MODEL 1
REMARK VINA RESULT: -8.870389768      0.000      0.000
REMARK  16 active torsions:
REMARK  status: ('A' for Active; 'I' for Inactive)
REMARK    1  A    between atoms: N1_1  and  C1_5 
REMARK    2  A    between atoms: C1_5  and  C2_6 
REMARK    3  A    between atoms: C2_6  and  O1_7 
REMARK    4  A    between atoms: O1_7  and  C3_8 
REMARK    5  A    between atoms: C8_14  and  O2_15 
REMARK    6  A    between atoms: C12_25  and  O4_26 
REMARK    7  A    between atoms: O4_26  and  C13_27 
REMARK    8  A    between atoms: C13_27  and  C14_28 
REMARK    9  A    between atoms: C14_28  and  S1_29 
REMARK   10  A    between atoms: S1_29  and  C15_30 
REMARK   11  A    between atoms: C18_36  and  O6_37 
REMARK   12  A    between atoms: C19_41  and  N7_42 
REMARK   13  A    between atoms: N7_42  and  C20_44 
REMARK   14  A    between atoms: C20_44  and  O7_45 
REMARK   15  A    between atoms: C20_44  and  C21_47 
REMARK   16  A    between atoms: C23_51  and  N9_52 
ROOT
HETATM    1  C3  UNL     1     -56.625  62.288  10.471  1.00  0.00     0.126 A 
HETATM    2  C4  UNL     1     -55.771  63.112  11.170  1.00  0.00     0.083 A 
HETATM    3  N2  UNL     1     -56.276  64.269  11.838  1.00  0.00    -0.099 NA
HETATM    4  C5  UNL     1     -54.438  62.780  11.199  1.00  0.00     0.047 A 
HETATM    5  C6  UNL     1     -53.986  61.632  10.529  1.00  0.00     0.045 A 
HETATM    6  C7  UNL     1     -54.835  60.804   9.826  1.00  0.00     0.026 A 
HETATM    7  C8  UNL     1     -56.169  61.142   9.802  1.00  0.00     0.111 A 
HETATM    8  C9  UNL     1     -54.319  59.610   9.070  1.00  0.00     0.106 A 
HETATM    9  C10 UNL     1     -53.126  59.067   9.844  1.00  0.00     0.161 C 
HETATM   10  N3  UNL     1     -52.111  60.078   9.992  1.00  0.00    -0.354 N 
ATOM     11  H3  UNL     1     -51.150  59.951   9.674  1.00  0.00     0.162 HD
HETATM   12  C11 UNL     1     -52.573  61.288  10.632  1.00  0.00     0.252 C 
HETATM   13  O3  UNL     1     -51.793  62.037  11.263  1.00  0.00    -0.268 OA
HETATM   14  N4  UNL     1     -55.215  58.581   8.794  1.00  0.00    -0.355 N 
ATOM     15  H4  UNL     1     -55.739  57.953   9.401  1.00  0.00     0.162 HD
HETATM   16  C12 UNL     1     -55.159  58.689   7.542  1.00  0.00     0.140 A 
HETATM   17  C19 UNL     1     -54.220  59.794   7.622  1.00  0.00     0.189 A 
ENDROOT
BRANCH  17  18
HETATM   18  N7  UNL     1     -53.053  59.798   6.874  1.00  0.00    -0.378 N 
ATOM     19  H7  UNL     1     -52.366  59.075   7.084  1.00  0.00     0.157 HD
BRANCH  18  20
HETATM   20  C20 UNL     1     -52.734  60.697   5.863  1.00  0.00     0.268 C 
BRANCH  20  21
HETATM   21  O7  UNL     1     -51.548  61.432   6.109  1.00  0.00    -0.371 OA
ATOM     22  H7  UNL     1     -51.122  61.745   5.320  1.00  0.00     0.212 HD
ENDBRANCH  20  21
BRANCH  20  23
HETATM   23  C21 UNL     1     -52.343  59.844   4.656  1.00  0.00     0.090 A 
HETATM   24  C22 UNL     1     -52.756  60.189   3.415  1.00  0.00     0.137 A 
HETATM   25  N8  UNL     1     -52.421  59.423   2.354  1.00  0.00    -0.199 N 
HETATM   26  C23 UNL     1     -51.675  58.316   2.532  1.00  0.00     0.694 A 
ATOM     27  H8  UNL     1     -52.732  59.683   1.418  1.00  0.00     0.183 HD
HETATM   28  N10 UNL     1     -51.269  57.983   3.764  1.00  0.00    -0.132 N 
HETATM   29  N11 UNL     1     -51.598  58.737   4.811  1.00  0.00    -0.285 N 
ATOM     30  H10 UNL     1     -50.702  57.146   3.902  1.00  0.00     0.205 HD
ATOM     31  H11 UNL     1     -51.281  58.471   5.743  1.00  0.00     0.187 HD
BRANCH  26  32
HETATM   32  N9  UNL     1     -51.310  57.478   1.446  1.00  0.00    -0.212 N 
HETATM   33  C24 UNL     1     -52.352  56.761   0.732  1.00  0.00     0.167 C 
HETATM   34  C25 UNL     1     -52.025  56.757  -0.734  1.00  0.00     0.188 C 
HETATM   35  O8  UNL     1     -50.796  56.104  -0.876  1.00  0.00    -0.388 OA
HETATM   36  C26 UNL     1     -49.758  56.894  -0.385  1.00  0.00     0.188 C 
HETATM   37  C27 UNL     1     -49.952  57.312   1.042  1.00  0.00     0.167 C 
ENDBRANCH  26  32
ENDBRANCH  20  23
ENDBRANCH  18  20
ENDBRANCH  17  18
BRANCH   7  38
HETATM   38  O2  UNL     1     -57.100  60.383   9.134  1.00  0.00    -0.357 OA
ATOM     39  H2  UNL     1     -57.411  59.592   9.560  1.00  0.00     0.217 HD
ENDBRANCH   7  38
BRANCH  16  40
HETATM   40  O4  UNL     1     -55.847  57.914   6.574  1.00  0.00    -0.337 OA
BRANCH  40  41
HETATM   41  C13 UNL     1     -56.922  57.073   7.029  1.00  0.00     0.187 C 
BRANCH  41  42
HETATM   42  C14 UNL     1     -58.224  57.794   7.077  1.00  0.00     0.109 C 
BRANCH  42  43
HETATM   43  S1  UNL     1     -59.225  57.105   8.395  1.00  0.00    -0.092 SA
BRANCH  43  44
HETATM   44  C15 UNL     1     -58.875  57.956   9.918  1.00  0.00     0.149 A 
HETATM   45  N5  UNL     1     -57.898  57.619  10.761  1.00  0.00    -0.304 N 
HETATM   46  C16 UNL     1     -57.631  58.261  11.900  1.00  0.00     0.251 A 
ATOM     47  H5  UNL     1     -57.317  56.816  10.520  1.00  0.00     0.171 HD
HETATM   48  O5  UNL     1     -56.705  57.924  12.676  1.00  0.00    -0.268 OA
HETATM   49  C17 UNL     1     -58.417  59.340  12.223  1.00  0.00     0.130 A 
HETATM   50  C18 UNL     1     -59.442  59.711  11.364  1.00  0.00     0.147 A 
HETATM   51  N6  UNL     1     -59.655  59.024  10.235  1.00  0.00    -0.317 N 
ATOM     52  H6  UNL     1     -60.409  59.304   9.606  1.00  0.00     0.170 HD
BRANCH  50  53
HETATM   53  O6  UNL     1     -60.214  60.811  11.732  1.00  0.00    -0.346 OA
ATOM     54  H6  UNL     1     -60.994  60.985  11.218  1.00  0.00     0.219 HD
ENDBRANCH  50  53
ENDBRANCH  43  44
ENDBRANCH  42  43
ENDBRANCH  41  42
ENDBRANCH  40  41
ENDBRANCH  16  40
BRANCH   1  55
HETATM   55  O1  UNL     1     -57.962  62.642  10.456  1.00  0.00    -0.345 OA
BRANCH  55  56
HETATM   56  C2  UNL     1     -58.492  63.602   9.585  1.00  0.00     0.203 C 
BRANCH  56  57
HETATM   57  C1  UNL     1     -59.082  62.980   8.333  1.00  0.00     0.256 C 
BRANCH  57  58
HETATM   58  N1  UNL     1     -59.934  61.860   8.597  1.00  0.00    -0.077 N 
ATOM     59  H13 UNL     1     -59.423  61.127   9.088  1.00  0.00     0.274 HD
ATOM     60  H12 UNL     1     -60.625  62.093   9.310  1.00  0.00     0.274 HD
ATOM     61  H11 UNL     1     -60.388  61.488   7.763  1.00  0.00     0.274 HD
ENDBRANCH  57  58
ENDBRANCH  56  57
ENDBRANCH  55  56
ENDBRANCH   1  55
TORSDOF 16
ENDMDL
MODEL 2
REMARK VINA RESULT: -8.564251771      4.235      7.816
REMARK  16 active torsions:
REMARK  status: ('A' for Active; 'I' for Inactive)
REMARK    1  A    between atoms: N1_1  and  C1_5 
REMARK    2  A    between atoms: C1_5  and  C2_6 
REMARK    3  A    between atoms: C2_6  and  O1_7 
REMARK    4  A    between atoms: O1_7  and  C3_8 
REMARK    5  A    between atoms: C8_14  and  O2_15 
REMARK    6  A    between atoms: C12_25  and  O4_26 
REMARK    7  A    between atoms: O4_26  and  C13_27 
REMARK    8  A    between atoms: C13_27  and  C14_28 
REMARK    9  A    between atoms: C14_28  and  S1_29 
REMARK   10  A    between atoms: S1_29  and  C15_30 
REMARK   11  A    between atoms: C18_36  and  O6_37 
REMARK   12  A    between atoms: C19_41  and  N7_42 
REMARK   13  A    between atoms: N7_42  and  C20_44 
REMARK   14  A    between atoms: C20_44  and  O7_45 
REMARK   15  A    between atoms: C20_44  and  C21_47 
REMARK   16  A    between atoms: C23_51  and  N9_52 
ROOT
HETATM    1  C3  UNL     1     -57.340  64.090  14.643  1.00  0.00     0.126 A 
HETATM    2  C4  UNL     1     -58.713  63.987  14.638  1.00  0.00     0.083 A 
HETATM    3  N2  UNL     1     -59.460  64.295  15.816  1.00  0.00    -0.099 NA
HETATM    4  C5  UNL     1     -59.323  63.587  13.475  1.00  0.00     0.047 A 
HETATM    5  C6  UNL     1     -58.550  63.296  12.340  1.00  0.00     0.045 A 
HETATM    6  C7  UNL     1     -57.175  63.394  12.337  1.00  0.00     0.026 A 
HETATM    7  C8  UNL     1     -56.570  63.798  13.507  1.00  0.00     0.111 A 
HETATM    8  C9  UNL     1     -56.363  63.025  11.126  1.00  0.00     0.106 A 
HETATM    9  C10 UNL     1     -57.194  63.376   9.901  1.00  0.00     0.161 C 
HETATM   10  N3  UNL     1     -58.457  62.681   9.925  1.00  0.00    -0.354 N 
ATOM     11  H3  UNL     1     -58.768  62.069   9.170  1.00  0.00     0.162 HD
HETATM   12  C11 UNL     1     -59.243  62.927  11.112  1.00  0.00     0.252 C 
HETATM   13  O3  UNL     1     -60.490  62.829  11.105  1.00  0.00    -0.268 OA
HETATM   14  N4  UNL     1     -55.088  63.571  11.009  1.00  0.00    -0.355 N 
ATOM     15  H4  UNL     1     -54.766  64.533  10.914  1.00  0.00     0.162 HD
HETATM   16  C12 UNL     1     -54.470  62.478  11.058  1.00  0.00     0.140 A 
HETATM   17  C19 UNL     1     -55.701  61.722  11.203  1.00  0.00     0.189 A 
ENDROOT
BRANCH  17  18
HETATM   18  N7  UNL     1     -55.963  60.620  10.404  1.00  0.00    -0.378 N 
ATOM     19  H7  UNL     1     -56.739  60.700   9.747  1.00  0.00     0.157 HD
BRANCH  18  20
HETATM   20  C20 UNL     1     -55.267  59.418  10.415  1.00  0.00     0.268 C 
BRANCH  20  21
HETATM   21  O7  UNL     1     -56.064  58.296  10.078  1.00  0.00    -0.371 OA
ATOM     22  H7  UNL     1     -55.634  57.686   9.489  1.00  0.00     0.212 HD
ENDBRANCH  20  21
BRANCH  20  23
HETATM   23  C21 UNL     1     -54.292  59.490   9.239  1.00  0.00     0.090 A 
HETATM   24  C22 UNL     1     -54.744  59.366   7.971  1.00  0.00     0.137 A 
HETATM   25  N8  UNL     1     -53.876  59.414   6.936  1.00  0.00    -0.199 N 
HETATM   26  C23 UNL     1     -52.561  59.586   7.169  1.00  0.00     0.694 A 
ATOM     27  H8  UNL     1     -54.217  59.320   5.980  1.00  0.00     0.183 HD
HETATM   28  N10 UNL     1     -52.122  59.711   8.428  1.00  0.00    -0.132 N 
HETATM   29  N11 UNL     1     -52.977  59.663   9.449  1.00  0.00    -0.285 N 
ATOM     30  H10 UNL     1     -51.127  59.843   8.607  1.00  0.00     0.205 HD
ATOM     31  H11 UNL     1     -52.628  59.760  10.403  1.00  0.00     0.187 HD
BRANCH  26  32
HETATM   32  N9  UNL     1     -51.615  59.632   6.112  1.00  0.00    -0.212 N 
HETATM   33  C24 UNL     1     -52.086  59.528   4.742  1.00  0.00     0.167 C 
HETATM   34  C25 UNL     1     -51.285  60.459   3.878  1.00  0.00     0.188 C 
HETATM   35  O8  UNL     1     -49.950  60.052   3.967  1.00  0.00    -0.388 OA
HETATM   36  C26 UNL     1     -49.426  60.353   5.223  1.00  0.00     0.188 C 
HETATM   37  C27 UNL     1     -50.216  59.767   6.355  1.00  0.00     0.167 C 
ENDBRANCH  26  32
ENDBRANCH  20  23
ENDBRANCH  18  20
ENDBRANCH  17  18
BRANCH   7  38
HETATM   38  O2  UNL     1     -55.205  63.932  13.611  1.00  0.00    -0.357 OA
ATOM     39  H2  UNL     1     -54.864  64.790  13.836  1.00  0.00     0.217 HD
ENDBRANCH   7  38
BRANCH  16  40
HETATM   40  O4  UNL     1     -53.068  62.270  10.986  1.00  0.00    -0.337 OA
BRANCH  40  41
HETATM   41  C13 UNL     1     -52.405  61.761  12.156  1.00  0.00     0.187 C 
BRANCH  41  42
HETATM   42  C14 UNL     1     -51.157  62.509  12.473  1.00  0.00     0.109 C 
BRANCH  42  43
HETATM   43  S1  UNL     1     -51.589  64.052  13.275  1.00  0.00    -0.092 SA
BRANCH  43  44
HETATM   44  C15 UNL     1     -50.109  64.888  13.801  1.00  0.00     0.149 A 
HETATM   45  N5  UNL     1     -49.952  66.213  13.800  1.00  0.00    -0.304 N 
HETATM   46  C16 UNL     1     -48.845  66.841  14.201  1.00  0.00     0.251 A 
ATOM     47  H5  UNL     1     -50.731  66.784  13.470  1.00  0.00     0.171 HD
HETATM   48  O5  UNL     1     -48.723  68.089  14.191  1.00  0.00    -0.268 OA
HETATM   49  C17 UNL     1     -47.799  66.068  14.643  1.00  0.00     0.130 A 
HETATM   50  C18 UNL     1     -47.935  64.687  14.653  1.00  0.00     0.147 A 
HETATM   51  N6  UNL     1     -49.075  64.120  14.238  1.00  0.00    -0.317 N 
ATOM     52  H6  UNL     1     -49.169  63.104  14.250  1.00  0.00     0.170 HD
BRANCH  50  53
HETATM   53  O6  UNL     1     -46.849  63.943  15.108  1.00  0.00    -0.346 OA
ATOM     54  H6  UNL     1     -46.638  63.148  14.634  1.00  0.00     0.219 HD
ENDBRANCH  50  53
ENDBRANCH  43  44
ENDBRANCH  42  43
ENDBRANCH  41  42
ENDBRANCH  40  41
ENDBRANCH  16  40
BRANCH   1  55
HETATM   55  O1  UNL     1     -56.747  64.495  15.825  1.00  0.00    -0.345 OA
BRANCH  55  56
HETATM   56  C2  UNL     1     -56.470  65.834  16.126  1.00  0.00     0.203 C 
BRANCH  56  57
HETATM   57  C1  UNL     1     -55.042  66.036  16.598  1.00  0.00     0.256 C 
BRANCH  57  58
HETATM   58  N1  UNL     1     -54.076  65.323  15.818  1.00  0.00    -0.077 N 
ATOM     59  H13 UNL     1     -54.523  64.854  15.031  1.00  0.00     0.274 HD
ATOM     60  H12 UNL     1     -53.475  65.971  15.309  1.00  0.00     0.274 HD
ATOM     61  H11 UNL     1     -53.519  64.665  16.362  1.00  0.00     0.274 HD
ENDBRANCH  57  58
ENDBRANCH  56  57
ENDBRANCH  55  56
ENDBRANCH   1  55
TORSDOF 16
ENDMDL
MODEL 3
REMARK VINA RESULT: -8.562719743      2.952      6.763
REMARK  16 active torsions:
REMARK  status: ('A' for Active; 'I' for Inactive)
REMARK    1  A    between atoms: N1_1  and  C1_5 
REMARK    2  A    between atoms: C1_5  and  C2_6 
REMARK    3  A    between atoms: C2_6  and  O1_7 
REMARK    4  A    between atoms: O1_7  and  C3_8 
REMARK    5  A    between atoms: C8_14  and  O2_15 
REMARK    6  A    between atoms: C12_25  and  O4_26 
REMARK    7  A    between atoms: O4_26  and  C13_27 
REMARK    8  A    between atoms: C13_27  and  C14_28 
REMARK    9  A    between atoms: C14_28  and  S1_29 
REMARK   10  A    between atoms: S1_29  and  C15_30 
REMARK   11  A    between atoms: C18_36  and  O6_37 
REMARK   12  A    between atoms: C19_41  and  N7_42 
REMARK   13  A    between atoms: N7_42  and  C20_44 
REMARK   14  A    between atoms: C20_44  and  O7_45 
REMARK   15  A    between atoms: C20_44  and  C21_47 
REMARK   16  A    between atoms: C23_51  and  N9_52 
ROOT
HETATM    1  C3  UNL     1     -60.071  58.804  12.570  1.00  0.00     0.126 A 
HETATM    2  C4  UNL     1     -60.126  57.569  11.964  1.00  0.00     0.083 A 
HETATM    3  N2  UNL     1     -60.843  56.498  12.580  1.00  0.00    -0.099 NA
HETATM    4  C5  UNL     1     -59.478  57.413  10.763  1.00  0.00     0.047 A 
HETATM    5  C6  UNL     1     -58.786  58.493  10.193  1.00  0.00     0.045 A 
HETATM    6  C7  UNL     1     -58.726  59.732  10.795  1.00  0.00     0.026 A 
HETATM    7  C8  UNL     1     -59.379  59.881  11.997  1.00  0.00     0.111 A 
HETATM    8  C9  UNL     1     -57.933  60.860  10.192  1.00  0.00     0.106 A 
HETATM    9  C10 UNL     1     -58.006  60.705   8.680  1.00  0.00     0.161 C 
HETATM   10  N3  UNL     1     -57.493  59.421   8.273  1.00  0.00    -0.354 N 
ATOM     11  H3  UNL     1     -56.728  59.315   7.606  1.00  0.00     0.162 HD
HETATM   12  C11 UNL     1     -58.158  58.298   8.892  1.00  0.00     0.252 C 
HETATM   13  O3  UNL     1     -58.203  57.176   8.340  1.00  0.00    -0.268 OA
HETATM   14  N4  UNL     1     -58.275  62.159  10.555  1.00  0.00    -0.355 N 
ATOM     15  H4  UNL     1     -59.127  62.702  10.418  1.00  0.00     0.162 HD
HETATM   16  C12 UNL     1     -57.181  62.436  11.108  1.00  0.00     0.140 A 
HETATM   17  C19 UNL     1     -56.642  61.116  10.832  1.00  0.00     0.189 A 
ENDROOT
BRANCH  17  18
HETATM   18  N7  UNL     1     -55.394  60.959  10.252  1.00  0.00    -0.378 N 
ATOM     19  H7  UNL     1     -55.063  61.715   9.654  1.00  0.00     0.157 HD
BRANCH  18  20
HETATM   20  C20 UNL     1     -54.550  59.866  10.412  1.00  0.00     0.268 C 
BRANCH  20  21
HETATM   21  O7  UNL     1     -55.218  58.618  10.345  1.00  0.00    -0.371 OA
ATOM     22  H7  UNL     1     -55.396  58.234  11.195  1.00  0.00     0.212 HD
ENDBRANCH  20  21
BRANCH  20  23
HETATM   23  C21 UNL     1     -53.671  59.832   9.161  1.00  0.00     0.090 A 
HETATM   24  C22 UNL     1     -54.109  59.222   8.037  1.00  0.00     0.137 A 
HETATM   25  N8  UNL     1     -53.321  59.181   6.940  1.00  0.00    -0.199 N 
HETATM   26  C23 UNL     1     -52.100  59.748   6.967  1.00  0.00     0.694 A 
ATOM     27  H8  UNL     1     -53.651  58.721   6.092  1.00  0.00     0.183 HD
HETATM   28  N10 UNL     1     -51.676  60.353   8.084  1.00  0.00    -0.132 N 
HETATM   29  N11 UNL     1     -52.451  60.394   9.166  1.00  0.00    -0.285 N 
ATOM     30  H10 UNL     1     -50.752  60.785   8.106  1.00  0.00     0.205 HD
ATOM     31  H11 UNL     1     -52.114  60.858  10.010  1.00  0.00     0.187 HD
BRANCH  26  32
HETATM   32  N9  UNL     1     -51.237  59.719   5.840  1.00  0.00    -0.212 N 
HETATM   33  C24 UNL     1     -51.327  58.602   4.916  1.00  0.00     0.167 C 
HETATM   34  C25 UNL     1     -51.153  59.112   3.514  1.00  0.00     0.188 C 
HETATM   35  O8  UNL     1     -49.886  59.700   3.449  1.00  0.00    -0.388 OA
HETATM   36  C26 UNL     1     -49.860  60.897   4.162  1.00  0.00     0.188 C 
HETATM   37  C27 UNL     1     -50.280  60.747   5.594  1.00  0.00     0.167 C 
ENDBRANCH  26  32
ENDBRANCH  20  23
ENDBRANCH  18  20
ENDBRANCH  17  18
BRANCH   7  38
HETATM   38  O2  UNL     1     -59.384  61.075  12.680  1.00  0.00    -0.357 OA
ATOM     39  H2  UNL     1     -58.710  61.210  13.335  1.00  0.00     0.217 HD
ENDBRANCH   7  38
BRANCH  16  40
HETATM   40  O4  UNL     1     -56.806  63.657  11.725  1.00  0.00    -0.337 OA
BRANCH  40  41
HETATM   41  C13 UNL     1     -55.529  63.709  12.387  1.00  0.00     0.187 C 
BRANCH  41  42
HETATM   42  C14 UNL     1     -55.626  64.267  13.764  1.00  0.00     0.109 C 
BRANCH  42  43
HETATM   43  S1  UNL     1     -54.389  63.486  14.799  1.00  0.00    -0.092 SA
BRANCH  43  44
HETATM   44  C15 UNL     1     -52.856  63.356  13.905  1.00  0.00     0.149 A 
HETATM   45  N5  UNL     1     -51.946  64.328  13.826  1.00  0.00    -0.304 N 
HETATM   46  C16 UNL     1     -50.793  64.229  13.162  1.00  0.00     0.251 A 
ATOM     47  H5  UNL     1     -52.146  65.206  14.306  1.00  0.00     0.171 HD
HETATM   48  O5  UNL     1     -49.953  65.159  13.104  1.00  0.00    -0.268 OA
HETATM   49  C17 UNL     1     -50.529  63.046  12.517  1.00  0.00     0.130 A 
HETATM   50  C18 UNL     1     -51.459  62.018  12.582  1.00  0.00     0.147 A 
HETATM   51  N6  UNL     1     -52.597  62.183  13.268  1.00  0.00    -0.317 N 
ATOM     52  H6  UNL     1     -53.276  61.422  13.313  1.00  0.00     0.170 HD
BRANCH  50  53
HETATM   53  O6  UNL     1     -51.150  60.836  11.912  1.00  0.00    -0.346 OA
ATOM     54  H6  UNL     1     -51.821  60.468  11.349  1.00  0.00     0.219 HD
ENDBRANCH  50  53
ENDBRANCH  43  44
ENDBRANCH  42  43
ENDBRANCH  41  42
ENDBRANCH  40  41
ENDBRANCH  16  40
BRANCH   1  55
HETATM   55  O1  UNL     1     -60.732  58.937  13.778  1.00  0.00    -0.345 OA
BRANCH  55  56
HETATM   56  C2  UNL     1     -60.108  58.758  15.018  1.00  0.00     0.203 C 
BRANCH  56  57
HETATM   57  C1  UNL     1     -60.293  59.952  15.936  1.00  0.00     0.256 C 
BRANCH  57  58
HETATM   58  N1  UNL     1     -59.404  61.037  15.649  1.00  0.00    -0.077 N 
ATOM     59  H13 UNL     1     -58.482  60.863  16.050  1.00  0.00     0.274 HD
ATOM     60  H12 UNL     1     -59.158  61.050  14.659  1.00  0.00     0.274 HD
ATOM     61  H11 UNL     1     -59.761  61.945  15.945  1.00  0.00     0.274 HD
ENDBRANCH  57  58
ENDBRANCH  56  57
ENDBRANCH  55  56
ENDBRANCH   1  55
TORSDOF 16
ENDMDL
MODEL 4
REMARK VINA RESULT: -8.483110769      3.072      6.939
REMARK  16 active torsions:
REMARK  status: ('A' for Active; 'I' for Inactive)
REMARK    1  A    between atoms: N1_1  and  C1_5 
REMARK    2  A    between atoms: C1_5  and  C2_6 
REMARK    3  A    between atoms: C2_6  and  O1_7 
REMARK    4  A    between atoms: O1_7  and  C3_8 
REMARK    5  A    between atoms: C8_14  and  O2_15 
REMARK    6  A    between atoms: C12_25  and  O4_26 
REMARK    7  A    between atoms: O4_26  and  C13_27 
REMARK    8  A    between atoms: C13_27  and  C14_28 
REMARK    9  A    between atoms: C14_28  and  S1_29 
REMARK   10  A    between atoms: S1_29  and  C15_30 
REMARK   11  A    between atoms: C18_36  and  O6_37 
REMARK   12  A    between atoms: C19_41  and  N7_42 
REMARK   13  A    between atoms: N7_42  and  C20_44 
REMARK   14  A    between atoms: C20_44  and  O7_45 
REMARK   15  A    between atoms: C20_44  and  C21_47 
REMARK   16  A    between atoms: C23_51  and  N9_52 
ROOT
HETATM    1  C3  UNL     1     -60.766  58.477  12.851  1.00  0.00     0.126 A 
HETATM    2  C4  UNL     1     -60.684  57.135  12.554  1.00  0.00     0.083 A 
HETATM    3  N2  UNL     1     -61.254  56.168  13.437  1.00  0.00    -0.099 NA
HETATM    4  C5  UNL     1     -60.046  56.771  11.393  1.00  0.00     0.047 A 
HETATM    5  C6  UNL     1     -59.502  57.756  10.553  1.00  0.00     0.045 A 
HETATM    6  C7  UNL     1     -59.578  59.101  10.845  1.00  0.00     0.026 A 
HETATM    7  C8  UNL     1     -60.220  59.458  12.010  1.00  0.00     0.111 A 
HETATM    8  C9  UNL     1     -58.939  60.135   9.958  1.00  0.00     0.106 A 
HETATM    9  C10 UNL     1     -59.025  59.618   8.529  1.00  0.00     0.161 C 
HETATM   10  N3  UNL     1     -58.370  58.339   8.409  1.00  0.00    -0.354 N 
ATOM     11  H3  UNL     1     -57.612  58.164   7.749  1.00  0.00     0.162 HD
HETATM   12  C11 UNL     1     -58.882  57.328   9.305  1.00  0.00     0.252 C 
HETATM   13  O3  UNL     1     -58.803  56.109   9.033  1.00  0.00    -0.268 OA
HETATM   14  N4  UNL     1     -59.428  61.436  10.023  1.00  0.00    -0.355 N 
ATOM     15  H4  UNL     1     -60.341  61.832   9.804  1.00  0.00     0.162 HD
HETATM   16  C12 UNL     1     -58.364  61.957  10.442  1.00  0.00     0.140 A 
HETATM   17  C19 UNL     1     -57.676  60.678  10.457  1.00  0.00     0.189 A 
ENDROOT
BRANCH  17  18
HETATM   18  N7  UNL     1     -56.430  60.529   9.870  1.00  0.00    -0.378 N 
ATOM     19  H7  UNL     1     -56.241  61.086   9.037  1.00  0.00     0.157 HD
BRANCH  18  20
HETATM   20  C20 UNL     1     -55.414  59.689  10.312  1.00  0.00     0.268 C 
BRANCH  20  21
HETATM   21  O7  UNL     1     -55.790  58.324  10.373  1.00  0.00    -0.371 OA
ATOM     22  H7  UNL     1     -56.318  58.041   9.636  1.00  0.00     0.212 HD
ENDBRANCH  20  21
BRANCH  20  23
HETATM   23  C21 UNL     1     -54.363  59.687   9.201  1.00  0.00     0.090 A 
HETATM   24  C22 UNL     1     -53.074  59.981   9.482  1.00  0.00     0.137 A 
HETATM   25  N8  UNL     1     -52.152  59.992   8.493  1.00  0.00    -0.199 N 
HETATM   26  C23 UNL     1     -52.519  59.711   7.228  1.00  0.00     0.694 A 
ATOM     27  H8  UNL     1     -51.180  60.214   8.704  1.00  0.00     0.183 HD
HETATM   28  N10 UNL     1     -53.798  59.419   6.960  1.00  0.00    -0.132 N 
HETATM   29  N11 UNL     1     -54.707  59.407   7.933  1.00  0.00    -0.285 N 
ATOM     30  H10 UNL     1     -54.078  59.203   6.003  1.00  0.00     0.205 HD
ATOM     31  H11 UNL     1     -55.678  59.182   7.713  1.00  0.00     0.187 HD
BRANCH  26  32
HETATM   32  N9  UNL     1     -51.586  59.723   6.159  1.00  0.00    -0.212 N 
HETATM   33  C24 UNL     1     -52.077  59.603   4.797  1.00  0.00     0.167 C 
HETATM   34  C25 UNL     1     -51.272  60.506   3.907  1.00  0.00     0.188 C 
HETATM   35  O8  UNL     1     -49.943  60.078   3.986  1.00  0.00    -0.388 OA
HETATM   36  C26 UNL     1     -49.397  60.393   5.230  1.00  0.00     0.188 C 
HETATM   37  C27 UNL     1     -50.182  59.840   6.382  1.00  0.00     0.167 C 
ENDBRANCH  26  32
ENDBRANCH  20  23
ENDBRANCH  18  20
ENDBRANCH  17  18
BRANCH   7  38
HETATM   38  O2  UNL     1     -60.354  60.772  12.393  1.00  0.00    -0.357 OA
ATOM     39  H2  UNL     1     -61.195  61.189  12.246  1.00  0.00     0.217 HD
ENDBRANCH   7  38
BRANCH  16  40
HETATM   40  O4  UNL     1     -58.125  63.324  10.738  1.00  0.00    -0.337 OA
BRANCH  40  41
HETATM   41  C13 UNL     1     -57.423  63.633  11.955  1.00  0.00     0.187 C 
BRANCH  41  42
HETATM   42  C14 UNL     1     -55.965  63.838  11.733  1.00  0.00     0.109 C 
BRANCH  42  43
HETATM   43  S1  UNL     1     -55.101  63.623  13.288  1.00  0.00    -0.092 SA
BRANCH  43  44
HETATM   44  C15 UNL     1     -53.354  63.471  12.986  1.00  0.00     0.149 A 
HETATM   45  N5  UNL     1     -52.491  64.488  13.032  1.00  0.00    -0.304 N 
HETATM   46  C16 UNL     1     -51.180  64.374  12.813  1.00  0.00     0.251 A 
ATOM     47  H5  UNL     1     -52.859  65.414  13.248  1.00  0.00     0.171 HD
HETATM   48  O5  UNL     1     -50.390  65.347  12.862  1.00  0.00    -0.268 OA
HETATM   49  C17 UNL     1     -50.689  63.125  12.519  1.00  0.00     0.130 A 
HETATM   50  C18 UNL     1     -51.565  62.050  12.465  1.00  0.00     0.147 A 
HETATM   51  N6  UNL     1     -52.871  62.233  12.697  1.00  0.00    -0.317 N 
ATOM     52  H6  UNL     1     -53.509  61.438  12.656  1.00  0.00     0.170 HD
BRANCH  50  53
HETATM   53  O6  UNL     1     -51.023  60.802  12.163  1.00  0.00    -0.346 OA
ATOM     54  H6  UNL     1     -50.907  60.194  12.883  1.00  0.00     0.219 HD
ENDBRANCH  50  53
ENDBRANCH  43  44
ENDBRANCH  42  43
ENDBRANCH  41  42
ENDBRANCH  40  41
ENDBRANCH  16  40
BRANCH   1  55
HETATM   55  O1  UNL     1     -61.412  58.819  14.025  1.00  0.00    -0.345 OA
BRANCH  55  56
HETATM   56  C2  UNL     1     -60.770  58.873  15.268  1.00  0.00     0.203 C 
BRANCH  56  57
HETATM   57  C1  UNL     1     -60.626  60.293  15.782  1.00  0.00     0.256 C 
BRANCH  57  58
HETATM   58  N1  UNL     1     -59.457  60.962  15.297  1.00  0.00    -0.077 N 
ATOM     59  H13 UNL     1     -59.021  60.427  14.545  1.00  0.00     0.274 HD
ATOM     60  H12 UNL     1     -59.711  61.803  14.780  1.00  0.00     0.274 HD
ATOM     61  H11 UNL     1     -58.778  61.177  16.027  1.00  0.00     0.274 HD
ENDBRANCH  57  58
ENDBRANCH  56  57
ENDBRANCH  55  56
ENDBRANCH   1  55
TORSDOF 16
ENDMDL
MODEL 5
REMARK VINA RESULT: -8.446051350      3.181      6.760
REMARK  16 active torsions:
REMARK  status: ('A' for Active; 'I' for Inactive)
REMARK    1  A    between atoms: N1_1  and  C1_5 
REMARK    2  A    between atoms: C1_5  and  C2_6 
REMARK    3  A    between atoms: C2_6  and  O1_7 
REMARK    4  A    between atoms: O1_7  and  C3_8 
REMARK    5  A    between atoms: C8_14  and  O2_15 
REMARK    6  A    between atoms: C12_25  and  O4_26 
REMARK    7  A    between atoms: O4_26  and  C13_27 
REMARK    8  A    between atoms: C13_27  and  C14_28 
REMARK    9  A    between atoms: C14_28  and  S1_29 
REMARK   10  A    between atoms: S1_29  and  C15_30 
REMARK   11  A    between atoms: C18_36  and  O6_37 
REMARK   12  A    between atoms: C19_41  and  N7_42 
REMARK   13  A    between atoms: N7_42  and  C20_44 
REMARK   14  A    between atoms: C20_44  and  O7_45 
REMARK   15  A    between atoms: C20_44  and  C21_47 
REMARK   16  A    between atoms: C23_51  and  N9_52 
ROOT
HETATM    1  C3  UNL     1     -59.335  59.590  13.544  1.00  0.00     0.126 A 
HETATM    2  C4  UNL     1     -59.625  58.332  13.064  1.00  0.00     0.083 A 
HETATM    3  N2  UNL     1     -60.316  57.391  13.886  1.00  0.00    -0.099 NA
HETATM    4  C5  UNL     1     -59.231  58.027  11.783  1.00  0.00     0.047 A 
HETATM    5  C6  UNL     1     -58.554  58.983  11.010  1.00  0.00     0.045 A 
HETATM    6  C7  UNL     1     -58.259  60.243  11.485  1.00  0.00     0.026 A 
HETATM    7  C8  UNL     1     -58.658  60.543  12.768  1.00  0.00     0.111 A 
HETATM    8  C9  UNL     1     -57.485  61.233  10.657  1.00  0.00     0.106 A 
HETATM    9  C10 UNL     1     -57.855  60.991   9.201  1.00  0.00     0.161 C 
HETATM   10  N3  UNL     1     -57.558  59.633   8.818  1.00  0.00    -0.354 N 
ATOM     11  H3  UNL     1     -56.945  59.399   8.036  1.00  0.00     0.162 HD
HETATM   12  C11 UNL     1     -58.203  58.635   9.639  1.00  0.00     0.252 C 
HETATM   13  O3  UNL     1     -58.461  57.492   9.200  1.00  0.00    -0.268 OA
HETATM   14  N4  UNL     1     -57.623  62.583  10.965  1.00  0.00    -0.355 N 
ATOM     15  H4  UNL     1     -58.427  63.210  10.937  1.00  0.00     0.162 HD
HETATM   16  C12 UNL     1     -56.422  62.770  11.288  1.00  0.00     0.140 A 
HETATM   17  C19 UNL     1     -56.078  61.382  11.032  1.00  0.00     0.189 A 
ENDROOT
BRANCH  17  18
HETATM   18  N7  UNL     1     -54.982  61.048  10.253  1.00  0.00    -0.378 N 
ATOM     19  H7  UNL     1     -54.682  61.732   9.559  1.00  0.00     0.157 HD
BRANCH  18  20
HETATM   20  C20 UNL     1     -54.255  59.866  10.331  1.00  0.00     0.268 C 
BRANCH  20  21
HETATM   21  O7  UNL     1     -55.056  58.699  10.265  1.00  0.00    -0.371 OA
ATOM     22  H7  UNL     1     -55.201  58.288  11.109  1.00  0.00     0.212 HD
ENDBRANCH  20  21
BRANCH  20  23
HETATM   23  C21 UNL     1     -53.454  59.784   9.031  1.00  0.00     0.090 A 
HETATM   24  C22 UNL     1     -53.975  59.167   7.947  1.00  0.00     0.137 A 
HETATM   25  N8  UNL     1     -53.256  59.083   6.806  1.00  0.00    -0.199 N 
HETATM   26  C23 UNL     1     -52.020  59.615   6.749  1.00  0.00     0.694 A 
ATOM     27  H8  UNL     1     -53.649  58.618   5.988  1.00  0.00     0.183 HD
HETATM   28  N10 UNL     1     -51.512  60.226   7.827  1.00  0.00    -0.132 N 
HETATM   29  N11 UNL     1     -52.220  60.309   8.952  1.00  0.00    -0.285 N 
ATOM     30  H10 UNL     1     -50.577  60.632   7.786  1.00  0.00     0.205 HD
ATOM     31  H11 UNL     1     -51.820  60.778   9.765  1.00  0.00     0.187 HD
BRANCH  26  32
HETATM   32  N9  UNL     1     -51.227  59.539   5.574  1.00  0.00    -0.212 N 
HETATM   33  C24 UNL     1     -51.281  58.333   4.767  1.00  0.00     0.167 C 
HETATM   34  C25 UNL     1     -51.235  58.714   3.315  1.00  0.00     0.188 C 
HETATM   35  O8  UNL     1     -50.026  59.387   3.108  1.00  0.00    -0.388 OA
HETATM   36  C26 UNL     1     -50.056  60.648   3.703  1.00  0.00     0.188 C 
HETATM   37  C27 UNL     1     -50.374  60.608   5.168  1.00  0.00     0.167 C 
ENDBRANCH  26  32
ENDBRANCH  20  23
ENDBRANCH  18  20
ENDBRANCH  17  18
BRANCH   7  38
HETATM   38  O2  UNL     1     -58.416  61.771  13.337  1.00  0.00    -0.357 OA
ATOM     39  H2  UNL     1     -57.673  62.267  13.014  1.00  0.00     0.217 HD
ENDBRANCH   7  38
BRANCH  16  40
HETATM   40  O4  UNL     1     -55.819  63.977  11.723  1.00  0.00    -0.337 OA
BRANCH  40  41
HETATM   41  C13 UNL     1     -56.255  64.530  12.978  1.00  0.00     0.187 C 
BRANCH  41  42
HETATM   42  C14 UNL     1     -55.405  65.669  13.422  1.00  0.00     0.109 C 
BRANCH  42  43
HETATM   43  S1  UNL     1     -54.212  65.077  14.620  1.00  0.00    -0.092 SA
BRANCH  43  44
HETATM   44  C15 UNL     1     -52.825  64.352  13.775  1.00  0.00     0.149 A 
HETATM   45  N5  UNL     1     -52.927  63.527  12.731  1.00  0.00    -0.304 N 
HETATM   46  C16 UNL     1     -51.886  62.989  12.091  1.00  0.00     0.251 A 
ATOM     47  H5  UNL     1     -53.863  63.292  12.400  1.00  0.00     0.171 HD
HETATM   48  O5  UNL     1     -52.010  62.216  11.112  1.00  0.00    -0.268 OA
HETATM   49  C17 UNL     1     -50.628  63.306  12.542  1.00  0.00     0.130 A 
HETATM   50  C18 UNL     1     -50.494  64.161  13.627  1.00  0.00     0.147 A 
HETATM   51  N6  UNL     1     -51.580  64.668  14.222  1.00  0.00    -0.317 N 
ATOM     52  H6  UNL     1     -51.474  65.297  15.019  1.00  0.00     0.170 HD
BRANCH  50  53
HETATM   53  O6  UNL     1     -49.199  64.454  14.049  1.00  0.00    -0.346 OA
ATOM     54  H6  UNL     1     -48.956  64.179  14.926  1.00  0.00     0.219 HD
ENDBRANCH  50  53
ENDBRANCH  43  44
ENDBRANCH  42  43
ENDBRANCH  41  42
ENDBRANCH  40  41
ENDBRANCH  16  40
BRANCH   1  55
HETATM   55  O1  UNL     1     -59.741  59.875  14.835  1.00  0.00    -0.345 OA
BRANCH  55  56
HETATM   56  C2  UNL     1     -60.917  60.573  15.133  1.00  0.00     0.203 C 
BRANCH  56  57
HETATM   57  C1  UNL     1     -60.682  61.705  16.116  1.00  0.00     0.256 C 
BRANCH  57  58
HETATM   58  N1  UNL     1     -59.306  62.085  16.233  1.00  0.00    -0.077 N 
ATOM     59  H13 UNL     1     -58.913  62.301  15.318  1.00  0.00     0.274 HD
ATOM     60  H12 UNL     1     -59.221  63.000  16.675  1.00  0.00     0.274 HD
ATOM     61  H11 UNL     1     -58.733  61.395  16.719  1.00  0.00     0.274 HD
ENDBRANCH  57  58
ENDBRANCH  56  57
ENDBRANCH  55  56
ENDBRANCH   1  55
TORSDOF 16
ENDMDL
