MODEL 1
REMARK VINA RESULT: -9.252334524      0.000      0.000
REMARK  16 active torsions:
REMARK  status: ('A' for Active; 'I' for Inactive)
REMARK    1  A    between atoms: C2_2  and  C16_44 
REMARK    2  A    between atoms: N1_3  and  N2_5 
REMARK    3  A    between atoms: N2_5  and  C3_7 
REMARK    4  A    between atoms: C4_10  and  N4_11 
REMARK       I    between atoms: N4_11  and  C5_13 
REMARK       I    between atoms: C5_13  and  N5_14 
REMARK       I    between atoms: C5_13  and  N6_18 
REMARK    5  A    between atoms: C7_23  and  N7_24 
REMARK    6  A    between atoms: C10_29  and  N9_30 
REMARK    7  A    between atoms: N9_30  and  C11_31 
REMARK    8  A    between atoms: N9_30  and  C13_35 
REMARK    9  A    between atoms: C11_31  and  C12_32 
REMARK   10  A    between atoms: C12_32  and  O1_33 
REMARK   11  A    between atoms: C13_35  and  C14_36 
REMARK   12  A    between atoms: C14_36  and  O2_37 
REMARK   13  A    between atoms: C19_47  and  C20_48 
REMARK   14  A    between atoms: N14_53  and  C21_54 
REMARK   15  A    between atoms: C26_62  and  C27_63 
REMARK   16  A    between atoms: N17_65  and  O4_67 
ROOT
HETATM    1  C3  UNL     1     -53.782  59.617   6.599  1.00  0.00     0.700 A 
HETATM    2  N3  UNL     1     -55.051  59.283   6.874  1.00  0.00    -0.174 N 
ATOM      3  H3  UNL     1     -55.619  58.881   6.128  1.00  0.00     0.186 HD
HETATM    4  C4  UNL     1     -55.622  59.454   8.103  1.00  0.00     0.137 A 
HETATM    5  C6  UNL     1     -54.816  60.000   9.084  1.00  0.00     0.098 A 
HETATM    6  C7  UNL     1     -55.278  60.220  10.332  1.00  0.00     0.136 A 
HETATM    7  N8  UNL     1     -54.457  60.780  11.294  1.00  0.00    -0.175 N 
ATOM      8  H8  UNL     1     -54.824  60.941  12.231  1.00  0.00     0.186 HD
HETATM    9  C10 UNL     1     -53.190  61.116  11.019  1.00  0.00     0.687 A 
HETATM   10  N10 UNL     1     -52.754  60.888   9.781  1.00  0.00    -0.175 N 
ATOM     11  H10 UNL     1     -51.790  61.141   9.562  1.00  0.00     0.186 HD
HETATM   12  C15 UNL     1     -53.494  60.350   8.806  1.00  0.00     0.154 A 
HETATM   13  N11 UNL     1     -53.028  60.145   7.572  1.00  0.00    -0.173 N 
ATOM     14  H11 UNL     1     -52.063  60.399   7.363  1.00  0.00     0.186 HD
ENDROOT
BRANCH   1  15
HETATM   15  N2  UNL     1     -53.299  59.419   5.396  1.00  0.00    -0.132 N 
ATOM     16  H2  UNL     1     -53.570  58.586   4.873  1.00  0.00     0.205 HD
BRANCH  15  17
HETATM   17  N1  UNL     1     -52.457  60.297   4.853  1.00  0.00    -0.289 N 
HETATM   18  C2  UNL     1     -52.428  61.208   4.032  1.00  0.00     0.049 C 
HETATM   19  C1  UNL     1     -51.087  61.888   3.819  1.00  0.00     0.072 C 
ATOM     20  H1  UNL     1     -51.527  60.169   5.253  1.00  0.00     0.187 HD
BRANCH  18  21
HETATM   21  C16 UNL     1     -53.552  61.723   3.266  1.00  0.00     0.056 A 
HETATM   22  C17 UNL     1     -54.589  62.415   3.891  1.00  0.00     0.032 A 
HETATM   23  C18 UNL     1     -55.600  62.872   3.123  1.00  0.00     0.020 A 
HETATM   24  C19 UNL     1     -55.681  62.696   1.719  1.00  0.00     0.041 A 
HETATM   25  C26 UNL     1     -54.659  62.012   1.148  1.00  0.00     0.090 A 
HETATM   26  N18 UNL     1     -53.619  61.548   1.946  1.00  0.00    -0.351 N 
ATOM     27  H18 UNL     1     -52.859  61.040   1.493  1.00  0.00     0.166 HD
BRANCH  24  28
HETATM   28  C20 UNL     1     -56.815  63.280   1.052  1.00  0.00     0.150 A 
HETATM   29  N12 UNL     1     -58.100  62.967   1.483  1.00  0.00    -0.268 N 
HETATM   30  N13 UNL     1     -58.936  63.714   0.808  1.00  0.00    -0.224 N 
ATOM     31  H12 UNL     1     -58.346  62.280   2.195  1.00  0.00     0.190 HD
HETATM   32  N14 UNL     1     -58.303  64.490  -0.030  1.00  0.00    -0.213 N 
ATOM     33  H13 UNL     1     -59.949  63.693   0.921  1.00  0.00     0.210 HD
HETATM   34  N15 UNL     1     -57.028  64.218   0.129  1.00  0.00    -0.265 N 
ATOM     35  H15 UNL     1     -56.282  64.675  -0.396  1.00  0.00     0.190 HD
BRANCH  32  36
HETATM   36  C21 UNL     1     -58.861  65.449  -0.944  1.00  0.00     0.132 C 
HETATM   37  C22 UNL     1     -57.994  65.605  -2.186  1.00  0.00     0.055 C 
HETATM   38  C23 UNL     1     -58.203  66.998  -2.725  1.00  0.00     0.169 C 
HETATM   39  O3  UNL     1     -59.528  67.375  -2.519  1.00  0.00    -0.391 OA
HETATM   40  C24 UNL     1     -59.769  67.710  -1.191  1.00  0.00     0.169 C 
HETATM   41  C25 UNL     1     -59.059  66.760  -0.251  1.00  0.00     0.055 C 
ENDBRANCH  32  36
ENDBRANCH  24  28
BRANCH  25  42
HETATM   42  C27 UNL     1     -54.568  61.641  -0.243  1.00  0.00     0.163 C 
HETATM   43  N16 UNL     1     -55.218  60.495  -0.799  1.00  0.00    -0.078 NA
HETATM   44  N17 UNL     1     -53.807  62.292  -1.051  1.00  0.00    -0.253 N 
ATOM     45  H17 UNL     1     -53.789  61.977  -2.021  1.00  0.00     0.195 HD
BRANCH  44  46
HETATM   46  O4  UNL     1     -53.051  63.325  -0.749  1.00  0.00    -0.288 OA
ATOM     47  H4  UNL     1     -52.809  64.036  -1.331  1.00  0.00     0.244 HD
ENDBRANCH  44  46
ENDBRANCH  25  42
ENDBRANCH  18  21
ENDBRANCH  15  17
ENDBRANCH   1  15
BRANCH   4  48
HETATM   48  N4  UNL     1     -56.844  59.141   8.301  1.00  0.00    -0.326 N 
HETATM   49  C5  UNL     1     -57.584  58.295   7.415  1.00  0.00     0.481 C 
HETATM   50  N5  UNL     1     -57.268  56.889   7.550  1.00  0.00    -0.033 N 
HETATM   51  N6  UNL     1     -59.035  58.398   7.711  1.00  0.00    -0.033 N 
ATOM     52  H53 UNL     1     -56.265  56.735   7.441  1.00  0.00     0.278 HD
ATOM     53  H52 UNL     1     -57.385  56.585   8.517  1.00  0.00     0.278 HD
ATOM     54  H51 UNL     1     -57.795  56.286   6.918  1.00  0.00     0.278 HD
ATOM     55  H63 UNL     1     -59.241  58.200   8.690  1.00  0.00     0.278 HD
ATOM     56  H62 UNL     1     -59.363  59.363   7.682  1.00  0.00     0.278 HD
ATOM     57  H61 UNL     1     -59.562  57.795   7.080  1.00  0.00     0.278 HD
ATOM     58  H4  UNL     1     -57.315  59.511   9.128  1.00  0.00     0.164 HD
ENDBRANCH   4  48
BRANCH   6  59
HETATM   59  N7  UNL     1     -56.578  59.852  10.756  1.00  0.00    -0.375 N 
HETATM   60  C8  UNL     1     -56.827  58.556  11.321  1.00  0.00     0.150 C 
HETATM   61  C9  UNL     1     -57.651  60.800  10.653  1.00  0.00     0.150 C 
ENDBRANCH   6  59
BRANCH   9  62
HETATM   62  N9  UNL     1     -52.367  61.699  12.058  1.00  0.00    -0.193 N 
BRANCH  62  63
HETATM   63  C11 UNL     1     -51.043  62.120  11.868  1.00  0.00     0.108 C 
BRANCH  63  64
HETATM   64  C12 UNL     1     -50.541  63.305  12.639  1.00  0.00     0.209 C 
BRANCH  64  65
HETATM   65  O1  UNL     1     -50.996  64.494  11.971  1.00  0.00    -0.396 OA
ATOM     66  H1  UNL     1     -51.907  64.630  12.204  1.00  0.00     0.209 HD
ENDBRANCH  64  65
ENDBRANCH  63  64
ENDBRANCH  62  63
BRANCH  62  67
HETATM   67  C13 UNL     1     -53.006  61.841  13.358  1.00  0.00     0.172 C 
BRANCH  67  68
HETATM   68  C14 UNL     1     -53.686  63.148  13.558  1.00  0.00     0.185 C 
BRANCH  68  69
HETATM   69  O2  UNL     1     -54.030  63.825  12.412  1.00  0.00    -0.399 OA
ATOM     70  H2  UNL     1     -54.944  63.770  12.159  1.00  0.00     0.209 HD
ENDBRANCH  68  69
ENDBRANCH  67  68
ENDBRANCH  62  67
ENDBRANCH   9  62
TORSDOF 16
ENDMDL
MODEL 2
REMARK VINA RESULT: -9.240067987      0.106      1.055
REMARK  16 active torsions:
REMARK  status: ('A' for Active; 'I' for Inactive)
REMARK    1  A    between atoms: C2_2  and  C16_44 
REMARK    2  A    between atoms: N1_3  and  N2_5 
REMARK    3  A    between atoms: N2_5  and  C3_7 
REMARK    4  A    between atoms: C4_10  and  N4_11 
REMARK       I    between atoms: N4_11  and  C5_13 
REMARK       I    between atoms: C5_13  and  N5_14 
REMARK       I    between atoms: C5_13  and  N6_18 
REMARK    5  A    between atoms: C7_23  and  N7_24 
REMARK    6  A    between atoms: C10_29  and  N9_30 
REMARK    7  A    between atoms: N9_30  and  C11_31 
REMARK    8  A    between atoms: N9_30  and  C13_35 
REMARK    9  A    between atoms: C11_31  and  C12_32 
REMARK   10  A    between atoms: C12_32  and  O1_33 
REMARK   11  A    between atoms: C13_35  and  C14_36 
REMARK   12  A    between atoms: C14_36  and  O2_37 
REMARK   13  A    between atoms: C19_47  and  C20_48 
REMARK   14  A    between atoms: N14_53  and  C21_54 
REMARK   15  A    between atoms: C26_62  and  C27_63 
REMARK   16  A    between atoms: N17_65  and  O4_67 
ROOT
HETATM    1  C3  UNL     1     -53.774  59.595   6.609  1.00  0.00     0.700 A 
HETATM    2  N3  UNL     1     -55.057  59.279   6.839  1.00  0.00    -0.174 N 
ATOM      3  H3  UNL     1     -55.605  58.887   6.074  1.00  0.00     0.186 HD
HETATM    4  C4  UNL     1     -55.667  59.456   8.049  1.00  0.00     0.137 A 
HETATM    5  C6  UNL     1     -54.887  59.988   9.058  1.00  0.00     0.098 A 
HETATM    6  C7  UNL     1     -55.388  60.212  10.290  1.00  0.00     0.136 A 
HETATM    7  N8  UNL     1     -54.592  60.758  11.281  1.00  0.00    -0.175 N 
ATOM      8  H8  UNL     1     -54.989  60.923  12.206  1.00  0.00     0.186 HD
HETATM    9  C10 UNL     1     -53.312  61.076  11.051  1.00  0.00     0.687 A 
HETATM   10  N10 UNL     1     -52.837  60.844   9.827  1.00  0.00    -0.175 N 
ATOM     11  H10 UNL     1     -51.863  61.082   9.642  1.00  0.00     0.186 HD
HETATM   12  C15 UNL     1     -53.551  60.319   8.827  1.00  0.00     0.154 A 
HETATM   13  N11 UNL     1     -53.047  60.109   7.608  1.00  0.00    -0.173 N 
ATOM     14  H11 UNL     1     -52.071  60.349   7.433  1.00  0.00     0.186 HD
ENDROOT
BRANCH   1  15
HETATM   15  N2  UNL     1     -53.254  59.392   5.423  1.00  0.00    -0.132 N 
ATOM     16  H2  UNL     1     -53.488  58.545   4.906  1.00  0.00     0.205 HD
BRANCH  15  17
HETATM   17  N1  UNL     1     -52.420  60.284   4.889  1.00  0.00    -0.289 N 
HETATM   18  C2  UNL     1     -52.400  61.203   4.077  1.00  0.00     0.049 C 
HETATM   19  C1  UNL     1     -51.066  61.898   3.872  1.00  0.00     0.072 C 
ATOM     20  H1  UNL     1     -51.490  60.162   5.289  1.00  0.00     0.187 HD
BRANCH  18  21
HETATM   21  C16 UNL     1     -53.528  61.713   3.313  1.00  0.00     0.056 A 
HETATM   22  C17 UNL     1     -54.565  62.403   3.941  1.00  0.00     0.032 A 
HETATM   23  C18 UNL     1     -55.580  62.855   3.175  1.00  0.00     0.020 A 
HETATM   24  C19 UNL     1     -55.665  62.676   1.772  1.00  0.00     0.041 A 
HETATM   25  C26 UNL     1     -54.643  61.995   1.199  1.00  0.00     0.090 A 
HETATM   26  N18 UNL     1     -53.598  61.535   1.994  1.00  0.00    -0.351 N 
ATOM     27  H18 UNL     1     -52.838  61.029   1.539  1.00  0.00     0.166 HD
BRANCH  24  28
HETATM   28  C20 UNL     1     -56.803  63.255   1.107  1.00  0.00     0.150 A 
HETATM   29  N12 UNL     1     -58.087  62.896   1.506  1.00  0.00    -0.268 N 
HETATM   30  N13 UNL     1     -58.930  63.645   0.844  1.00  0.00    -0.224 N 
ATOM     31  H12 UNL     1     -58.326  62.179   2.190  1.00  0.00     0.190 HD
HETATM   32  N14 UNL     1     -58.304  64.465   0.044  1.00  0.00    -0.213 N 
ATOM     33  H13 UNL     1     -59.944  63.595   0.940  1.00  0.00     0.210 HD
HETATM   34  N15 UNL     1     -57.025  64.220   0.214  1.00  0.00    -0.265 N 
ATOM     35  H15 UNL     1     -56.283  64.713  -0.283  1.00  0.00     0.190 HD
BRANCH  32  36
HETATM   36  C21 UNL     1     -58.872  65.442  -0.844  1.00  0.00     0.132 C 
HETATM   37  C22 UNL     1     -58.064  65.563  -2.129  1.00  0.00     0.055 C 
HETATM   38  C23 UNL     1     -58.249  66.961  -2.663  1.00  0.00     0.169 C 
HETATM   39  O3  UNL     1     -59.547  67.387  -2.392  1.00  0.00    -0.391 OA
HETATM   40  C24 UNL     1     -59.708  67.735  -1.055  1.00  0.00     0.169 C 
HETATM   41  C25 UNL     1     -58.986  66.762  -0.148  1.00  0.00     0.055 C 
ENDBRANCH  32  36
ENDBRANCH  24  28
BRANCH  25  42
HETATM   42  C27 UNL     1     -54.555  61.621  -0.193  1.00  0.00     0.163 C 
HETATM   43  N16 UNL     1     -55.177  60.455  -0.738  1.00  0.00    -0.078 NA
HETATM   44  N17 UNL     1     -53.821  62.291  -1.010  1.00  0.00    -0.253 N 
ATOM     45  H17 UNL     1     -53.803  61.973  -1.979  1.00  0.00     0.195 HD
BRANCH  44  46
HETATM   46  O4  UNL     1     -53.091  63.346  -0.718  1.00  0.00    -0.288 OA
ATOM     47  H4  UNL     1     -52.157  63.444  -0.864  1.00  0.00     0.244 HD
ENDBRANCH  44  46
ENDBRANCH  25  42
ENDBRANCH  18  21
ENDBRANCH  15  17
ENDBRANCH   1  15
BRANCH   4  48
HETATM   48  N4  UNL     1     -56.900  59.161   8.205  1.00  0.00    -0.326 N 
HETATM   49  C5  UNL     1     -57.603  58.274   7.330  1.00  0.00     0.481 C 
HETATM   50  N5  UNL     1     -57.306  56.876   7.552  1.00  0.00    -0.033 N 
HETATM   51  N6  UNL     1     -59.066  58.401   7.550  1.00  0.00    -0.033 N 
ATOM     52  H53 UNL     1     -56.301  56.710   7.499  1.00  0.00     0.278 HD
ATOM     53  H52 UNL     1     -57.471  56.623   8.526  1.00  0.00     0.278 HD
ATOM     54  H51 UNL     1     -57.808  56.243   6.928  1.00  0.00     0.278 HD
ATOM     55  H63 UNL     1     -59.320  58.256   8.527  1.00  0.00     0.278 HD
ATOM     56  H62 UNL     1     -59.385  59.366   7.455  1.00  0.00     0.278 HD
ATOM     57  H61 UNL     1     -59.568  57.769   6.926  1.00  0.00     0.278 HD
ATOM     58  H4  UNL     1     -57.406  59.576   8.988  1.00  0.00     0.164 HD
ENDBRANCH   4  48
BRANCH   6  59
HETATM   59  N7  UNL     1     -56.706  59.863  10.669  1.00  0.00    -0.375 N 
HETATM   60  C8  UNL     1     -56.999  58.561  11.200  1.00  0.00     0.150 C 
HETATM   61  C9  UNL     1     -57.757  60.835  10.554  1.00  0.00     0.150 C 
ENDBRANCH   6  59
BRANCH   9  62
HETATM   62  N9  UNL     1     -52.516  61.644  12.118  1.00  0.00    -0.193 N 
BRANCH  62  63
HETATM   63  C11 UNL     1     -52.996  61.889  13.413  1.00  0.00     0.108 C 
BRANCH  63  64
HETATM   64  C12 UNL     1     -53.740  63.164  13.681  1.00  0.00     0.209 C 
BRANCH  64  65
HETATM   65  O1  UNL     1     -54.046  63.773  12.416  1.00  0.00    -0.396 OA
ATOM     66  H1  UNL     1     -54.500  63.131  11.884  1.00  0.00     0.209 HD
ENDBRANCH  64  65
ENDBRANCH  63  64
ENDBRANCH  62  63
BRANCH  62  67
HETATM   67  C13 UNL     1     -51.136  61.955  11.773  1.00  0.00     0.172 C 
BRANCH  67  68
HETATM   68  C14 UNL     1     -50.595  63.154  12.466  1.00  0.00     0.185 C 
BRANCH  68  69
HETATM   69  O2  UNL     1     -50.996  64.368  11.961  1.00  0.00    -0.399 OA
ATOM     70  H2  UNL     1     -50.786  65.127  12.493  1.00  0.00     0.209 HD
ENDBRANCH  68  69
ENDBRANCH  67  68
ENDBRANCH  62  67
ENDBRANCH   9  62
TORSDOF 16
ENDMDL
MODEL 3
REMARK VINA RESULT: -9.035063215      6.822     11.336
REMARK  16 active torsions:
REMARK  status: ('A' for Active; 'I' for Inactive)
REMARK    1  A    between atoms: C2_2  and  C16_44 
REMARK    2  A    between atoms: N1_3  and  N2_5 
REMARK    3  A    between atoms: N2_5  and  C3_7 
REMARK    4  A    between atoms: C4_10  and  N4_11 
REMARK       I    between atoms: N4_11  and  C5_13 
REMARK       I    between atoms: C5_13  and  N5_14 
REMARK       I    between atoms: C5_13  and  N6_18 
REMARK    5  A    between atoms: C7_23  and  N7_24 
REMARK    6  A    between atoms: C10_29  and  N9_30 
REMARK    7  A    between atoms: N9_30  and  C11_31 
REMARK    8  A    between atoms: N9_30  and  C13_35 
REMARK    9  A    between atoms: C11_31  and  C12_32 
REMARK   10  A    between atoms: C12_32  and  O1_33 
REMARK   11  A    between atoms: C13_35  and  C14_36 
REMARK   12  A    between atoms: C14_36  and  O2_37 
REMARK   13  A    between atoms: C19_47  and  C20_48 
REMARK   14  A    between atoms: N14_53  and  C21_54 
REMARK   15  A    between atoms: C26_62  and  C27_63 
REMARK   16  A    between atoms: N17_65  and  O4_67 
ROOT
HETATM    1  C3  UNL     1     -58.656  62.361  12.225  1.00  0.00     0.700 A 
HETATM    2  N3  UNL     1     -59.110  61.320  12.938  1.00  0.00    -0.174 N 
ATOM      3  H3  UNL     1     -59.788  61.499  13.679  1.00  0.00     0.186 HD
HETATM    4  C4  UNL     1     -58.710  60.032  12.722  1.00  0.00     0.137 A 
HETATM    5  C6  UNL     1     -57.792  59.836  11.708  1.00  0.00     0.098 A 
HETATM    6  C7  UNL     1     -57.322  58.607  11.412  1.00  0.00     0.136 A 
HETATM    7  N8  UNL     1     -56.393  58.437  10.401  1.00  0.00    -0.175 N 
ATOM      8  H8  UNL     1     -56.048  57.500  10.193  1.00  0.00     0.186 HD
HETATM    9  C10 UNL     1     -55.939  59.476   9.690  1.00  0.00     0.687 A 
HETATM   10  N10 UNL     1     -56.418  60.681   9.998  1.00  0.00    -0.175 N 
ATOM     11  H10 UNL     1     -56.077  61.479   9.462  1.00  0.00     0.186 HD
HETATM   12  C15 UNL     1     -57.315  60.914  10.961  1.00  0.00     0.154 A 
HETATM   13  N11 UNL     1     -57.767  62.137  11.250  1.00  0.00    -0.173 N 
ATOM     14  H11 UNL     1     -57.422  62.929  10.708  1.00  0.00     0.186 HD
ENDROOT
BRANCH   1  15
HETATM   15  N2  UNL     1     -59.090  63.570  12.485  1.00  0.00    -0.132 N 
ATOM     16  H2  UNL     1     -59.501  64.133  11.740  1.00  0.00     0.205 HD
BRANCH  15  17
HETATM   17  N1  UNL     1     -58.999  64.070  13.717  1.00  0.00    -0.289 N 
HETATM   18  C2  UNL     1     -58.185  64.579  14.482  1.00  0.00     0.049 C 
HETATM   19  C1  UNL     1     -58.698  64.973  15.855  1.00  0.00     0.072 C 
ATOM     20  H1  UNL     1     -59.907  64.010  14.177  1.00  0.00     0.187 HD
BRANCH  18  21
HETATM   21  C16 UNL     1     -56.789  64.870  14.196  1.00  0.00     0.056 A 
HETATM   22  C17 UNL     1     -56.273  66.154  14.375  1.00  0.00     0.032 A 
HETATM   23  C18 UNL     1     -54.968  66.358  14.098  1.00  0.00     0.020 A 
HETATM   24  C19 UNL     1     -54.083  65.352  13.636  1.00  0.00     0.041 A 
HETATM   25  C26 UNL     1     -54.621  64.120  13.467  1.00  0.00     0.090 A 
HETATM   26  N18 UNL     1     -55.966  63.917  13.759  1.00  0.00    -0.351 N 
ATOM     27  H18 UNL     1     -56.347  62.980  13.629  1.00  0.00     0.166 HD
BRANCH  24  28
HETATM   28  C20 UNL     1     -52.712  65.738  13.423  1.00  0.00     0.150 A 
HETATM   29  N12 UNL     1     -52.428  66.964  12.830  1.00  0.00    -0.268 N 
HETATM   30  N13 UNL     1     -51.131  67.129  12.866  1.00  0.00    -0.224 N 
ATOM     31  H12 UNL     1     -53.108  67.615  12.438  1.00  0.00     0.190 HD
HETATM   32  N14 UNL     1     -50.542  66.111  13.433  1.00  0.00    -0.213 N 
ATOM     33  H13 UNL     1     -50.644  67.946  12.498  1.00  0.00     0.210 HD
HETATM   34  N15 UNL     1     -51.506  65.283  13.764  1.00  0.00    -0.265 N 
ATOM     35  H15 UNL     1     -51.349  64.390  14.230  1.00  0.00     0.190 HD
BRANCH  32  36
HETATM   36  C21 UNL     1     -49.136  65.916  13.661  1.00  0.00     0.132 C 
HETATM   37  C22 UNL     1     -48.870  64.623  14.420  1.00  0.00     0.055 C 
HETATM   38  C23 UNL     1     -47.588  64.796  15.195  1.00  0.00     0.169 C 
HETATM   39  O3  UNL     1     -46.709  65.585  14.457  1.00  0.00    -0.391 OA
HETATM   40  C24 UNL     1     -47.067  66.928  14.492  1.00  0.00     0.169 C 
HETATM   41  C25 UNL     1     -48.566  67.096  14.383  1.00  0.00     0.055 C 
ENDBRANCH  32  36
ENDBRANCH  24  28
BRANCH  25  42
HETATM   42  C27 UNL     1     -53.937  62.968  12.930  1.00  0.00     0.163 C 
HETATM   43  N16 UNL     1     -52.982  62.202  13.669  1.00  0.00    -0.078 NA
HETATM   44  N17 UNL     1     -54.096  62.621  11.702  1.00  0.00    -0.253 N 
ATOM     45  H17 UNL     1     -53.583  61.797  11.387  1.00  0.00     0.195 HD
BRANCH  44  46
HETATM   46  O4  UNL     1     -54.854  63.223  10.812  1.00  0.00    -0.288 OA
ATOM     47  H4  UNL     1     -55.703  62.929  10.503  1.00  0.00     0.244 HD
ENDBRANCH  44  46
ENDBRANCH  25  42
ENDBRANCH  18  21
ENDBRANCH  15  17
ENDBRANCH   1  15
BRANCH   4  48
HETATM   48  N4  UNL     1     -59.156  59.081  13.450  1.00  0.00    -0.326 N 
HETATM   49  C5  UNL     1     -60.475  59.082  14.006  1.00  0.00     0.481 C 
HETATM   50  N5  UNL     1     -61.512  58.754  13.052  1.00  0.00    -0.033 N 
HETATM   51  N6  UNL     1     -60.577  58.046  15.064  1.00  0.00    -0.033 N 
ATOM     52  H53 UNL     1     -61.463  59.373  12.242  1.00  0.00     0.278 HD
ATOM     53  H52 UNL     1     -61.315  57.862  12.598  1.00  0.00     0.278 HD
ATOM     54  H51 UNL     1     -62.452  58.755  13.448  1.00  0.00     0.278 HD
ATOM     55  H63 UNL     1     -60.306  57.123  14.725  1.00  0.00     0.278 HD
ATOM     56  H62 UNL     1     -59.859  58.158  15.780  1.00  0.00     0.278 HD
ATOM     57  H61 UNL     1     -61.517  58.046  15.461  1.00  0.00     0.278 HD
ATOM     58  H4  UNL     1     -58.546  58.287  13.643  1.00  0.00     0.164 HD
ENDBRANCH   4  48
BRANCH   6  59
HETATM   59  N7  UNL     1     -57.772  57.427  12.053  1.00  0.00    -0.375 N 
HETATM   60  C8  UNL     1     -58.893  56.692  11.537  1.00  0.00     0.150 C 
HETATM   61  C9  UNL     1     -57.077  56.942  13.212  1.00  0.00     0.150 C 
ENDBRANCH   6  59
BRANCH   9  62
HETATM   62  N9  UNL     1     -54.967  59.250   8.641  1.00  0.00    -0.193 N 
BRANCH  62  63
HETATM   63  C11 UNL     1     -53.713  59.874   8.583  1.00  0.00     0.108 C 
BRANCH  63  64
HETATM   64  C12 UNL     1     -52.797  59.773   9.768  1.00  0.00     0.209 C 
BRANCH  64  65
HETATM   65  O1  UNL     1     -51.854  58.719   9.510  1.00  0.00    -0.396 OA
ATOM     66  H1  UNL     1     -52.250  57.899   9.780  1.00  0.00     0.209 HD
ENDBRANCH  64  65
ENDBRANCH  63  64
ENDBRANCH  62  63
BRANCH  62  67
HETATM   67  C13 UNL     1     -55.367  58.302   7.611  1.00  0.00     0.172 C 
BRANCH  67  68
HETATM   68  C14 UNL     1     -56.829  58.285   7.339  1.00  0.00     0.185 C 
BRANCH  68  69
HETATM   69  O2  UNL     1     -57.501  57.159   7.751  1.00  0.00    -0.399 OA
ATOM     70  H2  UNL     1     -57.135  56.331   7.462  1.00  0.00     0.209 HD
ENDBRANCH  68  69
ENDBRANCH  67  68
ENDBRANCH  62  67
ENDBRANCH   9  62
TORSDOF 16
ENDMDL
MODEL 4
REMARK VINA RESULT: -9.031758827      4.872      7.777
REMARK  16 active torsions:
REMARK  status: ('A' for Active; 'I' for Inactive)
REMARK    1  A    between atoms: C2_2  and  C16_44 
REMARK    2  A    between atoms: N1_3  and  N2_5 
REMARK    3  A    between atoms: N2_5  and  C3_7 
REMARK    4  A    between atoms: C4_10  and  N4_11 
REMARK       I    between atoms: N4_11  and  C5_13 
REMARK       I    between atoms: C5_13  and  N5_14 
REMARK       I    between atoms: C5_13  and  N6_18 
REMARK    5  A    between atoms: C7_23  and  N7_24 
REMARK    6  A    between atoms: C10_29  and  N9_30 
REMARK    7  A    between atoms: N9_30  and  C11_31 
REMARK    8  A    between atoms: N9_30  and  C13_35 
REMARK    9  A    between atoms: C11_31  and  C12_32 
REMARK   10  A    between atoms: C12_32  and  O1_33 
REMARK   11  A    between atoms: C13_35  and  C14_36 
REMARK   12  A    between atoms: C14_36  and  O2_37 
REMARK   13  A    between atoms: C19_47  and  C20_48 
REMARK   14  A    between atoms: N14_53  and  C21_54 
REMARK   15  A    between atoms: C26_62  and  C27_63 
REMARK   16  A    between atoms: N17_65  and  O4_67 
ROOT
HETATM    1  C3  UNL     1     -52.513  61.737  11.201  1.00  0.00     0.700 A 
HETATM    2  N3  UNL     1     -53.684  62.158  11.702  1.00  0.00    -0.174 N 
ATOM      3  H3  UNL     1     -54.537  61.690  11.399  1.00  0.00     0.186 HD
HETATM    4  C4  UNL     1     -53.790  63.183  12.599  1.00  0.00     0.137 A 
HETATM    5  C6  UNL     1     -52.608  63.788  12.984  1.00  0.00     0.098 A 
HETATM    6  C7  UNL     1     -52.596  64.815  13.858  1.00  0.00     0.136 A 
HETATM    7  N8  UNL     1     -51.402  65.414  14.218  1.00  0.00    -0.175 N 
ATOM      8  H8  UNL     1     -51.412  66.190  14.879  1.00  0.00     0.186 HD
HETATM    9  C10 UNL     1     -50.233  64.995  13.716  1.00  0.00     0.687 A 
HETATM   10  N10 UNL     1     -50.268  63.978  12.856  1.00  0.00    -0.175 N 
ATOM     11  H10 UNL     1     -49.383  63.652  12.468  1.00  0.00     0.186 HD
HETATM   12  C15 UNL     1     -51.386  63.356  12.467  1.00  0.00     0.154 A 
HETATM   13  N11 UNL     1     -51.387  62.345  11.594  1.00  0.00    -0.173 N 
ATOM     14  H11 UNL     1     -50.497  62.025  11.213  1.00  0.00     0.186 HD
ENDROOT
BRANCH   1  15
HETATM   15  N2  UNL     1     -52.487  60.743  10.348  1.00  0.00    -0.132 N 
ATOM     16  H2  UNL     1     -51.596  60.320  10.089  1.00  0.00     0.205 HD
BRANCH  15  17
HETATM   17  N1  UNL     1     -53.618  60.280   9.816  1.00  0.00    -0.289 N 
HETATM   18  C2  UNL     1     -54.070  59.858   8.757  1.00  0.00     0.049 C 
HETATM   19  C1  UNL     1     -55.534  59.453   8.757  1.00  0.00     0.072 C 
ATOM     20  H1  UNL     1     -54.351  60.274  10.526  1.00  0.00     0.187 HD
BRANCH  18  21
HETATM   21  C16 UNL     1     -53.342  59.677   7.511  1.00  0.00     0.056 A 
HETATM   22  C17 UNL     1     -52.480  58.594   7.335  1.00  0.00     0.032 A 
HETATM   23  C18 UNL     1     -51.838  58.480   6.153  1.00  0.00     0.020 A 
HETATM   24  C19 UNL     1     -51.980  59.390   5.076  1.00  0.00     0.041 A 
HETATM   25  C26 UNL     1     -52.819  60.433   5.287  1.00  0.00     0.090 A 
HETATM   26  N18 UNL     1     -53.480  60.541   6.506  1.00  0.00    -0.351 N 
ATOM     27  H18 UNL     1     -54.110  61.332   6.639  1.00  0.00     0.166 HD
BRANCH  24  28
HETATM   28  C20 UNL     1     -51.244  59.096   3.873  1.00  0.00     0.150 A 
HETATM   29  N12 UNL     1     -50.203  59.933   3.484  1.00  0.00    -0.268 N 
HETATM   30  N13 UNL     1     -49.623  59.386   2.447  1.00  0.00    -0.224 N 
ATOM     31  H12 UNL     1     -49.940  60.813   3.927  1.00  0.00     0.190 HD
HETATM   32  N14 UNL     1     -50.200  58.259   2.124  1.00  0.00    -0.213 N 
ATOM     33  H13 UNL     1     -48.826  59.786   1.955  1.00  0.00     0.210 HD
HETATM   34  N15 UNL     1     -51.173  58.098   2.992  1.00  0.00    -0.265 N 
ATOM     35  H15 UNL     1     -51.804  57.297   2.992  1.00  0.00     0.190 HD
BRANCH  32  36
HETATM   36  C21 UNL     1     -49.860  57.366   1.051  1.00  0.00     0.132 C 
HETATM   37  C22 UNL     1     -48.357  57.337   0.808  1.00  0.00     0.055 C 
HETATM   38  C23 UNL     1     -48.129  56.987  -0.642  1.00  0.00     0.169 C 
HETATM   39  O3  UNL     1     -49.109  56.088  -1.056  1.00  0.00    -0.391 OA
HETATM   40  C24 UNL     1     -50.332  56.718  -1.262  1.00  0.00     0.169 C 
HETATM   41  C25 UNL     1     -50.604  57.748  -0.189  1.00  0.00     0.055 C 
ENDBRANCH  32  36
ENDBRANCH  24  28
BRANCH  25  42
HETATM   42  C27 UNL     1     -53.055  61.523   4.370  1.00  0.00     0.163 C 
HETATM   43  N16 UNL     1     -54.164  61.571   3.470  1.00  0.00    -0.078 NA
HETATM   44  N17 UNL     1     -52.208  62.485   4.259  1.00  0.00    -0.253 N 
ATOM     45  H17 UNL     1     -52.435  63.223   3.593  1.00  0.00     0.195 HD
BRANCH  44  46
HETATM   46  O4  UNL     1     -51.077  62.610   4.919  1.00  0.00    -0.288 OA
ATOM     47  H4  UNL     1     -50.957  63.048   5.754  1.00  0.00     0.244 HD
ENDBRANCH  44  46
ENDBRANCH  25  42
ENDBRANCH  18  21
ENDBRANCH  15  17
ENDBRANCH   1  15
BRANCH   4  48
HETATM   48  N4  UNL     1     -54.934  63.559  13.024  1.00  0.00    -0.326 N 
HETATM   49  C5  UNL     1     -56.063  63.738  12.163  1.00  0.00     0.481 C 
HETATM   50  N5  UNL     1     -56.691  62.499  11.758  1.00  0.00    -0.033 N 
HETATM   51  N6  UNL     1     -57.123  64.499  12.870  1.00  0.00    -0.033 N 
ATOM     52  H53 UNL     1     -56.008  61.873  11.330  1.00  0.00     0.278 HD
ATOM     53  H52 UNL     1     -56.947  61.942  12.574  1.00  0.00     0.278 HD
ATOM     54  H51 UNL     1     -57.496  62.626  11.144  1.00  0.00     0.278 HD
ATOM     55  H63 UNL     1     -57.382  64.063  13.755  1.00  0.00     0.278 HD
ATOM     56  H62 UNL     1     -56.777  65.386  13.237  1.00  0.00     0.278 HD
ATOM     57  H61 UNL     1     -57.928  64.626  12.256  1.00  0.00     0.278 HD
ATOM     58  H4  UNL     1     -55.048  63.741  14.022  1.00  0.00     0.164 HD
ENDBRANCH   4  48
BRANCH   6  59
HETATM   59  N7  UNL     1     -53.759  65.305  14.499  1.00  0.00    -0.375 N 
HETATM   60  C8  UNL     1     -54.297  64.641  15.654  1.00  0.00     0.150 C 
HETATM   61  C9  UNL     1     -54.388  66.499  14.010  1.00  0.00     0.150 C 
ENDBRANCH   6  59
BRANCH   9  62
HETATM   62  N9  UNL     1     -49.008  65.651  14.122  1.00  0.00    -0.193 N 
BRANCH  62  63
HETATM   63  C11 UNL     1     -48.146  65.163  15.115  1.00  0.00     0.108 C 
BRANCH  63  64
HETATM   64  C12 UNL     1     -46.810  64.614  14.708  1.00  0.00     0.209 C 
BRANCH  64  65
HETATM   65  O1  UNL     1     -45.868  65.699  14.704  1.00  0.00    -0.396 OA
ATOM     66  H1  UNL     1     -46.237  66.406  14.188  1.00  0.00     0.209 HD
ENDBRANCH  64  65
ENDBRANCH  63  64
ENDBRANCH  62  63
BRANCH  62  67
HETATM   67  C13 UNL     1     -48.697  66.887  13.418  1.00  0.00     0.172 C 
BRANCH  67  68
HETATM   68  C14 UNL     1     -48.363  68.026  14.314  1.00  0.00     0.185 C 
BRANCH  68  69
HETATM   69  O2  UNL     1     -47.041  68.399  14.341  1.00  0.00    -0.399 OA
ATOM     70  H2  UNL     1     -46.874  69.333  14.298  1.00  0.00     0.209 HD
ENDBRANCH  68  69
ENDBRANCH  67  68
ENDBRANCH  62  67
ENDBRANCH   9  62
TORSDOF 16
ENDMDL
MODEL 5
REMARK VINA RESULT: -8.837365119      4.303      5.774
REMARK  16 active torsions:
REMARK  status: ('A' for Active; 'I' for Inactive)
REMARK    1  A    between atoms: C2_2  and  C16_44 
REMARK    2  A    between atoms: N1_3  and  N2_5 
REMARK    3  A    between atoms: N2_5  and  C3_7 
REMARK    4  A    between atoms: C4_10  and  N4_11 
REMARK       I    between atoms: N4_11  and  C5_13 
REMARK       I    between atoms: C5_13  and  N5_14 
REMARK       I    between atoms: C5_13  and  N6_18 
REMARK    5  A    between atoms: C7_23  and  N7_24 
REMARK    6  A    between atoms: C10_29  and  N9_30 
REMARK    7  A    between atoms: N9_30  and  C11_31 
REMARK    8  A    between atoms: N9_30  and  C13_35 
REMARK    9  A    between atoms: C11_31  and  C12_32 
REMARK   10  A    between atoms: C12_32  and  O1_33 
REMARK   11  A    between atoms: C13_35  and  C14_36 
REMARK   12  A    between atoms: C14_36  and  O2_37 
REMARK   13  A    between atoms: C19_47  and  C20_48 
REMARK   14  A    between atoms: N14_53  and  C21_54 
REMARK   15  A    between atoms: C26_62  and  C27_63 
REMARK   16  A    between atoms: N17_65  and  O4_67 
ROOT
HETATM    1  C3  UNL     1     -54.617  60.133   8.744  1.00  0.00     0.700 A 
HETATM    2  N3  UNL     1     -55.958  60.161   8.721  1.00  0.00    -0.174 N 
ATOM      3  H3  UNL     1     -56.441  59.615   8.009  1.00  0.00     0.186 HD
HETATM    4  C4  UNL     1     -56.708  60.884   9.605  1.00  0.00     0.137 A 
HETATM    5  C6  UNL     1     -56.011  61.607  10.554  1.00  0.00     0.098 A 
HETATM    6  C7  UNL     1     -56.649  62.362  11.471  1.00  0.00     0.136 A 
HETATM    7  N8  UNL     1     -55.930  63.089  12.403  1.00  0.00    -0.175 N 
ATOM      8  H8  UNL     1     -56.430  63.656  13.088  1.00  0.00     0.186 HD
HETATM    9  C10 UNL     1     -54.592  63.063  12.426  1.00  0.00     0.687 A 
HETATM   10  N10 UNL     1     -53.982  62.308  11.512  1.00  0.00    -0.175 N 
ATOM     11  H10 UNL     1     -52.962  62.282  11.521  1.00  0.00     0.186 HD
HETATM   12  C15 UNL     1     -54.616  61.583  10.585  1.00  0.00     0.154 A 
HETATM   13  N11 UNL     1     -53.973  60.845   9.677  1.00  0.00    -0.173 N 
ATOM     14  H11 UNL     1     -52.953  60.824   9.695  1.00  0.00     0.186 HD
ENDROOT
BRANCH   1  15
HETATM   15  N2  UNL     1     -53.963  59.410   7.868  1.00  0.00    -0.132 N 
ATOM     16  H2  UNL     1     -54.470  58.944   7.116  1.00  0.00     0.205 HD
BRANCH  15  17
HETATM   17  N1  UNL     1     -52.640  59.280   7.952  1.00  0.00    -0.289 N 
HETATM   18  C2  UNL     1     -51.654  59.086   7.249  1.00  0.00     0.049 C 
HETATM   19  C1  UNL     1     -50.313  59.032   7.959  1.00  0.00     0.072 C 
ATOM     20  H1  UNL     1     -52.350  59.374   8.926  1.00  0.00     0.187 HD
BRANCH  18  21
HETATM   21  C16 UNL     1     -51.635  58.933   5.803  1.00  0.00     0.056 A 
HETATM   22  C17 UNL     1     -51.024  57.829   5.207  1.00  0.00     0.032 A 
HETATM   23  C18 UNL     1     -51.046  57.743   3.860  1.00  0.00     0.020 A 
HETATM   24  C19 UNL     1     -51.648  58.701   3.007  1.00  0.00     0.041 A 
HETATM   25  C26 UNL     1     -52.224  59.763   3.622  1.00  0.00     0.090 A 
HETATM   26  N18 UNL     1     -52.201  59.843   5.010  1.00  0.00    -0.351 N 
ATOM     27  H18 UNL     1     -52.645  60.649   5.450  1.00  0.00     0.166 HD
BRANCH  24  28
HETATM   28  C20 UNL     1     -51.608  58.433   1.593  1.00  0.00     0.150 A 
HETATM   29  N12 UNL     1     -50.379  58.313   0.952  1.00  0.00    -0.268 N 
HETATM   30  N13 UNL     1     -50.611  57.948  -0.282  1.00  0.00    -0.224 N 
ATOM     31  H12 UNL     1     -49.463  58.479   1.370  1.00  0.00     0.190 HD
HETATM   32  N14 UNL     1     -51.892  57.821  -0.503  1.00  0.00    -0.213 N 
ATOM     33  H13 UNL     1     -49.887  57.785  -0.981  1.00  0.00     0.210 HD
HETATM   34  N15 UNL     1     -52.478  58.115   0.635  1.00  0.00    -0.265 N 
ATOM     35  H15 UNL     1     -53.489  58.102   0.770  1.00  0.00     0.190 HD
BRANCH  32  36
HETATM   36  C21 UNL     1     -52.546  57.439  -1.724  1.00  0.00     0.132 C 
HETATM   37  C22 UNL     1     -53.836  58.221  -1.932  1.00  0.00     0.055 C 
HETATM   38  C23 UNL     1     -54.766  57.369  -2.761  1.00  0.00     0.169 C 
HETATM   39  O3  UNL     1     -54.019  56.635  -3.679  1.00  0.00    -0.391 OA
HETATM   40  C24 UNL     1     -53.364  55.567  -3.076  1.00  0.00     0.169 C 
HETATM   41  C25 UNL     1     -52.799  55.964  -1.730  1.00  0.00     0.055 C 
ENDBRANCH  32  36
ENDBRANCH  24  28
BRANCH  25  42
HETATM   42  C27 UNL     1     -52.821  60.899   2.959  1.00  0.00     0.163 C 
HETATM   43  N16 UNL     1     -53.955  60.802   2.095  1.00  0.00    -0.078 NA
HETATM   44  N17 UNL     1     -52.292  62.068   3.051  1.00  0.00    -0.253 N 
ATOM     45  H17 UNL     1     -52.764  62.826   2.558  1.00  0.00     0.195 HD
BRANCH  44  46
HETATM   46  O4  UNL     1     -51.202  62.382   3.718  1.00  0.00    -0.288 OA
ATOM     47  H4  UNL     1     -50.506  62.956   3.422  1.00  0.00     0.244 HD
ENDBRANCH  44  46
ENDBRANCH  25  42
ENDBRANCH  18  21
ENDBRANCH  15  17
ENDBRANCH   1  15
BRANCH   4  48
HETATM   48  N4  UNL     1     -57.982  60.894   9.520  1.00  0.00    -0.326 N 
HETATM   49  C5  UNL     1     -58.678  60.899   8.269  1.00  0.00     0.481 C 
HETATM   50  N5  UNL     1     -58.708  59.611   7.611  1.00  0.00    -0.033 N 
HETATM   51  N6  UNL     1     -60.102  61.260   8.485  1.00  0.00    -0.033 N 
ATOM     52  H53 UNL     1     -57.762  59.246   7.495  1.00  0.00     0.278 HD
ATOM     53  H52 UNL     1     -59.092  58.899   8.232  1.00  0.00     0.278 HD
ATOM     54  H51 UNL     1     -59.203  59.615   6.720  1.00  0.00     0.278 HD
ATOM     55  H63 UNL     1     -60.551  60.653   9.170  1.00  0.00     0.278 HD
ATOM     56  H62 UNL     1     -60.201  62.145   8.982  1.00  0.00     0.278 HD
ATOM     57  H61 UNL     1     -60.598  61.264   7.593  1.00  0.00     0.278 HD
ATOM     58  H4  UNL     1     -58.528  60.899  10.382  1.00  0.00     0.164 HD
ENDBRANCH   4  48
BRANCH   6  59
HETATM   59  N7  UNL     1     -58.059  62.422  11.584  1.00  0.00    -0.375 N 
HETATM   60  C8  UNL     1     -58.778  61.438  12.344  1.00  0.00     0.150 C 
HETATM   61  C9  UNL     1     -58.775  63.500  10.961  1.00  0.00     0.150 C 
ENDBRANCH   6  59
BRANCH   9  62
HETATM   62  N9  UNL     1     -53.881  63.838  13.420  1.00  0.00    -0.193 N 
BRANCH  62  63
HETATM   63  C11 UNL     1     -52.535  63.637  13.759  1.00  0.00     0.108 C 
BRANCH  63  64
HETATM   64  C12 UNL     1     -51.485  64.468  13.082  1.00  0.00     0.209 C 
BRANCH  64  65
HETATM   65  O1  UNL     1     -51.273  63.929  11.767  1.00  0.00    -0.396 OA
ATOM     66  H1  UNL     1     -50.339  63.803  11.649  1.00  0.00     0.209 HD
ENDBRANCH  64  65
ENDBRANCH  63  64
ENDBRANCH  62  63
BRANCH  62  67
HETATM   67  C13 UNL     1     -54.657  64.882  14.072  1.00  0.00     0.172 C 
BRANCH  67  68
HETATM   68  C14 UNL     1     -55.097  64.538  15.451  1.00  0.00     0.185 C 
BRANCH  68  69
HETATM   69  O2  UNL     1     -55.740  63.331  15.589  1.00  0.00    -0.399 OA
ATOM     70  H2  UNL     1     -55.999  63.100  16.474  1.00  0.00     0.209 HD
ENDBRANCH  68  69
ENDBRANCH  67  68
ENDBRANCH  62  67
ENDBRANCH   9  62
TORSDOF 16
ENDMDL
