MODEL 1
REMARK VINA RESULT: -10.446509586      0.000      0.000
REMARK  14 active torsions:
REMARK  status: ('A' for Active; 'I' for Inactive)
REMARK    1  A    between atoms: O1_2  and  C2_3 
REMARK    2  A    between atoms: C2_3  and  C3_5 
REMARK    3  A    between atoms: C3_5  and  O3_6 
REMARK    4  A    between atoms: C3_5  and  C24_56 
REMARK    5  A    between atoms: O3_6  and  C4_7 
REMARK    6  A    between atoms: C4_7  and  C5_8 
REMARK    7  A    between atoms: C5_8  and  S1_9 
REMARK    8  A    between atoms: S1_9  and  C6_10 
REMARK    9  A    between atoms: C6_10  and  C7_11 
REMARK   10  A    between atoms: C10_16  and  C11_17 
REMARK   11  A    between atoms: C12_20  and  N3_21 
REMARK   12  A    between atoms: C17_39  and  C18_40 
REMARK       I    between atoms: C18_40  and  N10_42 
REMARK       I    between atoms: N10_42  and  C19_44 
REMARK   13  A    between atoms: C20_49  and  O6_50 
REMARK   14  A    between atoms: C24_56  and  O9_58 
ROOT
HETATM    1  C4  UNL     1     -55.086  61.328  10.942  1.00  0.00     0.088 C 
HETATM    2  C16 UNL     1     -56.363  61.601  10.363  1.00  0.00     0.114 C 
HETATM    3  N9  UNL     1     -57.078  60.445  10.041  1.00  0.00    -0.344 N 
ATOM      4  H9  UNL     1     -56.519  59.619   9.826  1.00  0.00     0.166 HD
HETATM    5  C17 UNL     1     -58.427  60.285   9.978  1.00  0.00     0.135 C 
HETATM    6  C20 UNL     1     -59.266  61.240   9.423  1.00  0.00     0.098 C 
HETATM    7  C21 UNL     1     -59.187  62.602   9.566  1.00  0.00     0.043 C 
HETATM    8  C22 UNL     1     -58.124  63.327  10.154  1.00  0.00     0.060 C 
HETATM    9  C23 UNL     1     -56.817  62.883  10.231  1.00  0.00     0.201 C 
HETATM   10  O7  UNL     1     -55.916  63.793  10.164  1.00  0.00    -0.286 OA
ENDROOT
BRANCH   1  11
HETATM   11  O3  UNL     1     -54.104  62.172  11.248  1.00  0.00    -0.327 OA
BRANCH  11  12
HETATM   12  C3  UNL     1     -53.480  61.920  12.466  1.00  0.00     0.327 C 
BRANCH  12  13
HETATM   13  C2  UNL     1     -53.802  62.937  13.465  1.00  0.00     0.298 C 
HETATM   14  O2  UNL     1     -53.715  62.683  14.712  1.00  0.00    -0.262 OA
BRANCH  13  15
HETATM   15  O1  UNL     1     -54.214  64.229  13.174  1.00  0.00    -0.324 OA
HETATM   16  C1  UNL     1     -53.704  65.340  13.887  1.00  0.00     0.213 C 
ENDBRANCH  13  15
ENDBRANCH  12  13
BRANCH  12  17
HETATM   17  C24 UNL     1     -51.975  61.965  12.351  1.00  0.00     0.298 C 
HETATM   18  O8  UNL     1     -51.231  61.000  12.555  1.00  0.00    -0.262 OA
BRANCH  17  19
HETATM   19  O9  UNL     1     -51.426  63.180  11.992  1.00  0.00    -0.324 OA
HETATM   20  C25 UNL     1     -50.414  63.846  12.722  1.00  0.00     0.213 C 
ENDBRANCH  17  19
ENDBRANCH  12  17
ENDBRANCH  11  12
ENDBRANCH   1  11
BRANCH   1  21
HETATM   21  C5  UNL     1     -54.489  59.988  10.403  1.00  0.00     0.141 C 
BRANCH  21  22
HETATM   22  S1  UNL     1     -53.810  60.172   8.775  1.00  0.00    -0.158 SA
BRANCH  22  23
HETATM   23  C6  UNL     1     -52.092  60.132   8.493  1.00  0.00     0.114 C 
BRANCH  23  24
HETATM   24  C7  UNL     1     -51.652  59.955   7.092  1.00  0.00    -0.028 A 
HETATM   25  C8  UNL     1     -51.793  58.802   6.325  1.00  0.00     0.059 A 
HETATM   26  C9  UNL     1     -51.214  59.002   5.097  1.00  0.00     0.130 A 
HETATM   27  N1  UNL     1     -51.040  58.267   3.961  1.00  0.00    -0.324 N 
HETATM   28  N8  UNL     1     -50.712  60.271   5.093  1.00  0.00    -0.236 N 
HETATM   29  C10 UNL     1     -50.409  58.755   2.888  1.00  0.00     0.152 A 
ATOM     30  H1  UNL     1     -51.405  57.314   3.928  1.00  0.00     0.169 HD
HETATM   31  N6  UNL     1     -49.940  60.005   2.945  1.00  0.00    -0.268 N 
HETATM   32  N7  UNL     1     -50.096  60.733   4.031  1.00  0.00    -0.233 N 
ATOM     33  H6  UNL     1     -49.455  60.399   2.139  1.00  0.00     0.190 HD
ATOM     34  H7  UNL     1     -49.727  61.684   4.046  1.00  0.00     0.209 HD
HETATM   35  C15 UNL     1     -50.977  60.838   6.293  1.00  0.00     0.128 A 
BRANCH  29  36
HETATM   36  C11 UNL     1     -50.209  57.980   1.676  1.00  0.00     0.124 A 
HETATM   37  N2  UNL     1     -49.011  58.023   1.079  1.00  0.00    -0.186 N 
HETATM   38  C12 UNL     1     -48.824  57.302  -0.037  1.00  0.00     0.679 A 
ATOM     39  H2  UNL     1     -48.257  58.590   1.464  1.00  0.00     0.184 HD
HETATM   40  N4  UNL     1     -49.823  56.545  -0.554  1.00  0.00    -0.155 N 
HETATM   41  C13 UNL     1     -51.030  56.487   0.025  1.00  0.00     0.286 A 
ATOM     42  H4  UNL     1     -49.651  56.007  -1.403  1.00  0.00     0.187 HD
HETATM   43  O4  UNL     1     -51.988  55.797  -0.420  1.00  0.00    -0.266 OA
HETATM   44  C14 UNL     1     -51.247  57.215   1.168  1.00  0.00     0.145 A 
HETATM   45  N5  UNL     1     -52.510  57.195   1.825  1.00  0.00    -0.094 NA
BRANCH  38  46
HETATM   46  N3  UNL     1     -47.670  57.350  -0.603  1.00  0.00    -0.234 N 
ATOM     47  H32 UNL     1     -47.428  58.111  -1.238  1.00  0.00     0.174 HD
ATOM     48  H31 UNL     1     -47.003  56.606  -0.398  1.00  0.00     0.174 HD
ENDBRANCH  38  46
ENDBRANCH  29  36
ENDBRANCH  23  24
ENDBRANCH  22  23
ENDBRANCH  21  22
ENDBRANCH   1  21
BRANCH   5  49
HETATM   49  C18 UNL     1     -59.010  59.074  10.541  1.00  0.00     0.277 C 
HETATM   50  O5  UNL     1     -60.018  59.199  11.324  1.00  0.00    -0.266 OA
HETATM   51  N10 UNL     1     -58.558  57.788  10.291  1.00  0.00    -0.296 N 
HETATM   52  C19 UNL     1     -59.214  56.661  10.907  1.00  0.00     0.188 C 
ATOM     53  H10 UNL     1     -57.762  57.638   9.671  1.00  0.00     0.171 HD
HETATM   54  N11 UNL     1     -58.775  55.485  10.658  1.00  0.00    -0.373 N 
HETATM   55  N12 UNL     1     -60.330  56.794  11.774  1.00  0.00    -0.064 NA
ATOM     56 2H11 UNL     1     -57.973  55.389  10.035  1.00  0.00     0.158 HD
ATOM     57 1H11 UNL     1     -59.239  54.688  11.094  1.00  0.00     0.158 HD
ENDBRANCH   5  49
BRANCH   6  58
HETATM   58  O6  UNL     1     -60.284  60.746   8.644  1.00  0.00    -0.358 OA
ATOM     59  H6  UNL     1     -61.150  60.784   9.034  1.00  0.00     0.217 HD
ENDBRANCH   6  58
TORSDOF 14
ENDMDL
MODEL 2
REMARK VINA RESULT: -10.035606710      1.734      2.292
REMARK  14 active torsions:
REMARK  status: ('A' for Active; 'I' for Inactive)
REMARK    1  A    between atoms: O1_2  and  C2_3 
REMARK    2  A    between atoms: C2_3  and  C3_5 
REMARK    3  A    between atoms: C3_5  and  O3_6 
REMARK    4  A    between atoms: C3_5  and  C24_56 
REMARK    5  A    between atoms: O3_6  and  C4_7 
REMARK    6  A    between atoms: C4_7  and  C5_8 
REMARK    7  A    between atoms: C5_8  and  S1_9 
REMARK    8  A    between atoms: S1_9  and  C6_10 
REMARK    9  A    between atoms: C6_10  and  C7_11 
REMARK   10  A    between atoms: C10_16  and  C11_17 
REMARK   11  A    between atoms: C12_20  and  N3_21 
REMARK   12  A    between atoms: C17_39  and  C18_40 
REMARK       I    between atoms: C18_40  and  N10_42 
REMARK       I    between atoms: N10_42  and  C19_44 
REMARK   13  A    between atoms: C20_49  and  O6_50 
REMARK   14  A    between atoms: C24_56  and  O9_58 
ROOT
HETATM    1  C4  UNL     1     -55.290  61.395  11.501  1.00  0.00     0.088 C 
HETATM    2  C16 UNL     1     -56.665  61.601  11.172  1.00  0.00     0.114 C 
HETATM    3  N9  UNL     1     -56.962  61.298   9.841  1.00  0.00    -0.344 N 
ATOM      4  H9  UNL     1     -56.194  61.402   9.177  1.00  0.00     0.166 HD
HETATM    5  C17 UNL     1     -58.148  60.881   9.321  1.00  0.00     0.135 C 
HETATM    6  C20 UNL     1     -59.364  61.418   9.715  1.00  0.00     0.098 C 
HETATM    7  C21 UNL     1     -59.756  61.748  10.987  1.00  0.00     0.043 C 
HETATM    8  C22 UNL     1     -58.936  61.786  12.139  1.00  0.00     0.060 C 
HETATM    9  C23 UNL     1     -57.567  61.985  12.123  1.00  0.00     0.201 C 
HETATM   10  O7  UNL     1     -57.086  62.616  13.130  1.00  0.00    -0.286 OA
ENDROOT
BRANCH   1  11
HETATM   11  O3  UNL     1     -54.640  61.697  12.622  1.00  0.00    -0.327 OA
BRANCH  11  12
HETATM   12  C3  UNL     1     -53.804  62.806  12.528  1.00  0.00     0.327 C 
BRANCH  12  13
HETATM   13  C2  UNL     1     -52.419  62.475  12.858  1.00  0.00     0.298 C 
HETATM   14  O2  UNL     1     -51.963  61.299  12.673  1.00  0.00    -0.262 OA
BRANCH  13  15
HETATM   15  O1  UNL     1     -51.496  63.369  13.381  1.00  0.00    -0.324 OA
HETATM   16  C1  UNL     1     -50.576  64.045  12.546  1.00  0.00     0.213 C 
ENDBRANCH  13  15
ENDBRANCH  12  13
BRANCH  12  17
HETATM   17  C24 UNL     1     -54.181  63.884  13.515  1.00  0.00     0.298 C 
HETATM   18  O8  UNL     1     -54.388  63.688  14.718  1.00  0.00    -0.262 OA
BRANCH  17  19
HETATM   19  O9  UNL     1     -54.296  65.164  13.008  1.00  0.00    -0.324 OA
HETATM   20  C25 UNL     1     -53.560  66.277  13.476  1.00  0.00     0.213 C 
ENDBRANCH  17  19
ENDBRANCH  12  17
ENDBRANCH  11  12
ENDBRANCH   1  11
BRANCH   1  21
HETATM   21  C5  UNL     1     -54.364  61.638  10.266  1.00  0.00     0.141 C 
BRANCH  21  22
HETATM   22  S1  UNL     1     -53.881  60.118   9.490  1.00  0.00    -0.158 SA
BRANCH  22  23
HETATM   23  C6  UNL     1     -52.217  59.780   9.101  1.00  0.00     0.114 C 
BRANCH  23  24
HETATM   24  C7  UNL     1     -51.865  59.737   7.666  1.00  0.00    -0.028 A 
HETATM   25  C8  UNL     1     -51.786  58.597   6.872  1.00  0.00     0.059 A 
HETATM   26  C9  UNL     1     -51.376  58.950   5.612  1.00  0.00     0.130 A 
HETATM   27  N1  UNL     1     -51.124  58.296   4.440  1.00  0.00    -0.324 N 
HETATM   28  N8  UNL     1     -51.197  60.303   5.613  1.00  0.00    -0.236 N 
HETATM   29  C10 UNL     1     -50.719  58.940   3.340  1.00  0.00     0.152 A 
ATOM     30  H1  UNL     1     -51.249  57.284   4.403  1.00  0.00     0.169 HD
HETATM   31  N6  UNL     1     -50.563  60.265   3.405  1.00  0.00    -0.268 N 
HETATM   32  N7  UNL     1     -50.801  60.917   4.524  1.00  0.00    -0.233 N 
ATOM     33  H6  UNL     1     -50.257  60.778   2.578  1.00  0.00     0.190 HD
ATOM     34  H7  UNL     1     -50.672  61.929   4.544  1.00  0.00     0.209 HD
HETATM   35  C15 UNL     1     -51.491  60.770   6.849  1.00  0.00     0.128 A 
BRANCH  29  36
HETATM   36  C11 UNL     1     -50.440  58.255   2.090  1.00  0.00     0.124 A 
HETATM   37  N2  UNL     1     -49.345  58.604   1.401  1.00  0.00    -0.186 N 
HETATM   38  C12 UNL     1     -49.083  57.968   0.249  1.00  0.00     0.679 A 
ATOM     39  H2  UNL     1     -48.725  59.337   1.744  1.00  0.00     0.184 HD
HETATM   40  N4  UNL     1     -49.904  56.992  -0.211  1.00  0.00    -0.155 N 
HETATM   41  C13 UNL     1     -51.004  56.626   0.461  1.00  0.00     0.286 A 
ATOM     42  H4  UNL     1     -49.678  56.525  -1.089  1.00  0.00     0.187 HD
HETATM   43  O4  UNL     1     -51.796  55.724   0.070  1.00  0.00    -0.266 OA
HETATM   44  C14 UNL     1     -51.295  57.261   1.642  1.00  0.00     0.145 A 
HETATM   45  N5  UNL     1     -52.452  56.919   2.397  1.00  0.00    -0.094 NA
BRANCH  38  46
HETATM   46  N3  UNL     1     -48.030  58.310  -0.405  1.00  0.00    -0.234 N 
ATOM     47  H32 UNL     1     -47.986  59.201  -0.899  1.00  0.00     0.174 HD
ATOM     48  H31 UNL     1     -47.240  57.665  -0.416  1.00  0.00     0.174 HD
ENDBRANCH  38  46
ENDBRANCH  29  36
ENDBRANCH  23  24
ENDBRANCH  22  23
ENDBRANCH  21  22
ENDBRANCH   1  21
BRANCH   5  49
HETATM   49  C18 UNL     1     -58.135  59.809   8.334  1.00  0.00     0.277 C 
HETATM   50  O5  UNL     1     -59.168  59.664   7.589  1.00  0.00    -0.266 OA
HETATM   51  N10 UNL     1     -57.082  58.930   8.134  1.00  0.00    -0.296 N 
HETATM   52  C19 UNL     1     -57.181  57.904   7.126  1.00  0.00     0.188 C 
ATOM     53  H10 UNL     1     -56.237  59.009   8.700  1.00  0.00     0.171 HD
HETATM   54  N11 UNL     1     -56.194  57.107   6.964  1.00  0.00    -0.373 N 
HETATM   55  N12 UNL     1     -58.323  57.740   6.299  1.00  0.00    -0.064 NA
ATOM     56 2H11 UNL     1     -55.373  57.225   7.558  1.00  0.00     0.158 HD
ATOM     57 1H11 UNL     1     -56.264  56.382   6.250  1.00  0.00     0.158 HD
ENDBRANCH   5  49
BRANCH   6  58
HETATM   58  O6  UNL     1     -60.264  61.640   8.701  1.00  0.00    -0.358 OA
ATOM     59  H6  UNL     1     -61.079  62.052   8.964  1.00  0.00     0.217 HD
ENDBRANCH   6  58
TORSDOF 14
ENDMDL
MODEL 3
REMARK VINA RESULT: -9.933753786      1.081      1.619
REMARK  14 active torsions:
REMARK  status: ('A' for Active; 'I' for Inactive)
REMARK    1  A    between atoms: O1_2  and  C2_3 
REMARK    2  A    between atoms: C2_3  and  C3_5 
REMARK    3  A    between atoms: C3_5  and  O3_6 
REMARK    4  A    between atoms: C3_5  and  C24_56 
REMARK    5  A    between atoms: O3_6  and  C4_7 
REMARK    6  A    between atoms: C4_7  and  C5_8 
REMARK    7  A    between atoms: C5_8  and  S1_9 
REMARK    8  A    between atoms: S1_9  and  C6_10 
REMARK    9  A    between atoms: C6_10  and  C7_11 
REMARK   10  A    between atoms: C10_16  and  C11_17 
REMARK   11  A    between atoms: C12_20  and  N3_21 
REMARK   12  A    between atoms: C17_39  and  C18_40 
REMARK       I    between atoms: C18_40  and  N10_42 
REMARK       I    between atoms: N10_42  and  C19_44 
REMARK   13  A    between atoms: C20_49  and  O6_50 
REMARK   14  A    between atoms: C24_56  and  O9_58 
ROOT
HETATM    1  C4  UNL     1     -54.780  61.186  10.799  1.00  0.00     0.088 C 
HETATM    2  C16 UNL     1     -56.072  61.304  10.201  1.00  0.00     0.114 C 
HETATM    3  N9  UNL     1     -56.573  60.086   9.733  1.00  0.00    -0.344 N 
ATOM      4  H9  UNL     1     -55.877  59.393   9.458  1.00  0.00     0.166 HD
HETATM    5  C17 UNL     1     -57.874  59.711   9.601  1.00  0.00     0.135 C 
HETATM    6  C20 UNL     1     -58.850  60.566   9.115  1.00  0.00     0.098 C 
HETATM    7  C21 UNL     1     -59.008  61.899   9.399  1.00  0.00     0.043 C 
HETATM    8  C22 UNL     1     -58.096  62.724  10.100  1.00  0.00     0.060 C 
HETATM    9  C23 UNL     1     -56.734  62.498  10.182  1.00  0.00     0.201 C 
HETATM   10  O7  UNL     1     -56.000  63.547  10.245  1.00  0.00    -0.286 OA
ENDROOT
BRANCH   1  11
HETATM   11  O3  UNL     1     -53.963  62.144  11.228  1.00  0.00    -0.327 OA
BRANCH  11  12
HETATM   12  C3  UNL     1     -53.350  61.881  12.449  1.00  0.00     0.327 C 
BRANCH  12  13
HETATM   13  C2  UNL     1     -53.680  62.888  13.455  1.00  0.00     0.298 C 
HETATM   14  O2  UNL     1     -53.697  62.595  14.696  1.00  0.00    -0.262 OA
BRANCH  13  15
HETATM   15  O1  UNL     1     -53.993  64.211  13.177  1.00  0.00    -0.324 OA
HETATM   16  C1  UNL     1     -53.582  65.257  14.035  1.00  0.00     0.213 C 
ENDBRANCH  13  15
ENDBRANCH  12  13
BRANCH  12  17
HETATM   17  C24 UNL     1     -51.844  61.927  12.347  1.00  0.00     0.298 C 
HETATM   18  O8  UNL     1     -51.101  60.961  12.556  1.00  0.00    -0.262 OA
BRANCH  17  19
HETATM   19  O9  UNL     1     -51.292  63.143  11.997  1.00  0.00    -0.324 OA
HETATM   20  C25 UNL     1     -50.323  63.831  12.765  1.00  0.00     0.213 C 
ENDBRANCH  17  19
ENDBRANCH  12  17
ENDBRANCH  11  12
ENDBRANCH   1  11
BRANCH   1  21
HETATM   21  C5  UNL     1     -53.952  60.030  10.149  1.00  0.00     0.141 C 
BRANCH  21  22
HETATM   22  S1  UNL     1     -52.968  60.603   8.789  1.00  0.00    -0.158 SA
BRANCH  22  23
HETATM   23  C6  UNL     1     -51.491  59.802   8.331  1.00  0.00     0.114 C 
BRANCH  23  24
HETATM   24  C7  UNL     1     -51.246  59.638   6.882  1.00  0.00    -0.028 A 
HETATM   25  C8  UNL     1     -51.805  58.666   6.058  1.00  0.00     0.059 A 
HETATM   26  C9  UNL     1     -51.295  58.798   4.792  1.00  0.00     0.130 A 
HETATM   27  N1  UNL     1     -51.456  58.160   3.595  1.00  0.00    -0.324 N 
HETATM   28  N8  UNL     1     -50.419  59.844   4.819  1.00  0.00    -0.236 N 
HETATM   29  C10 UNL     1     -50.792  58.533   2.497  1.00  0.00     0.152 A 
ATOM     30  H1  UNL     1     -52.104  57.375   3.538  1.00  0.00     0.169 HD
HETATM   31  N6  UNL     1     -49.949  59.566   2.587  1.00  0.00    -0.268 N 
HETATM   32  N7  UNL     1     -49.778  60.197   3.731  1.00  0.00    -0.233 N 
ATOM     33  H6  UNL     1     -49.433  59.870   1.762  1.00  0.00     0.190 HD
ATOM     34  H7  UNL     1     -49.128  60.981   3.771  1.00  0.00     0.209 HD
HETATM   35  C15 UNL     1     -50.393  60.345   6.077  1.00  0.00     0.128 A 
BRANCH  29  36
HETATM   36  C11 UNL     1     -50.947  57.858   1.220  1.00  0.00     0.124 A 
HETATM   37  N2  UNL     1     -52.171  57.785   0.680  1.00  0.00    -0.186 N 
HETATM   38  C12 UNL     1     -52.314  57.167  -0.502  1.00  0.00     0.679 A 
ATOM     39  H2  UNL     1     -52.976  58.190   1.156  1.00  0.00     0.184 HD
HETATM   40  N4  UNL     1     -51.247  56.628  -1.141  1.00  0.00    -0.155 N 
HETATM   41  C13 UNL     1     -50.014  56.688  -0.620  1.00  0.00     0.286 A 
ATOM     42  H4  UNL     1     -51.387  56.165  -2.039  1.00  0.00     0.187 HD
HETATM   43  O4  UNL     1     -48.993  56.200  -1.179  1.00  0.00    -0.266 OA
HETATM   44  C14 UNL     1     -49.840  57.314   0.588  1.00  0.00     0.145 A 
HETATM   45  N5  UNL     1     -48.555  57.406   1.192  1.00  0.00    -0.094 NA
BRANCH  38  46
HETATM   46  N3  UNL     1     -53.494  57.102  -1.012  1.00  0.00    -0.234 N 
ATOM     47  H32 UNL     1     -54.207  56.495  -0.609  1.00  0.00     0.174 HD
ATOM     48  H31 UNL     1     -53.694  57.675  -1.832  1.00  0.00     0.174 HD
ENDBRANCH  38  46
ENDBRANCH  29  36
ENDBRANCH  23  24
ENDBRANCH  22  23
ENDBRANCH  21  22
ENDBRANCH   1  21
BRANCH   5  49
HETATM   49  C18 UNL     1     -58.254  58.366  10.014  1.00  0.00     0.277 C 
HETATM   50  O5  UNL     1     -58.217  57.433   9.136  1.00  0.00    -0.266 OA
HETATM   51  N10 UNL     1     -58.652  58.014  11.294  1.00  0.00    -0.296 N 
HETATM   52  C19 UNL     1     -59.008  56.648  11.589  1.00  0.00     0.188 C 
ATOM     53  H10 UNL     1     -58.694  58.722  12.028  1.00  0.00     0.171 HD
HETATM   54  N11 UNL     1     -59.372  56.353  12.779  1.00  0.00    -0.373 N 
HETATM   55  N12 UNL     1     -58.968  55.612  10.620  1.00  0.00    -0.064 NA
ATOM     56 2H11 UNL     1     -59.401  57.098  13.476  1.00  0.00     0.158 HD
ATOM     57 1H11 UNL     1     -59.623  55.387  12.988  1.00  0.00     0.158 HD
ENDBRANCH   5  49
BRANCH   6  58
HETATM   58  O6  UNL     1     -59.752  59.997   8.249  1.00  0.00    -0.358 OA
ATOM     59  H6  UNL     1     -60.593  60.437   8.190  1.00  0.00     0.217 HD
ENDBRANCH   6  58
TORSDOF 14
ENDMDL
MODEL 4
REMARK VINA RESULT: -9.868120929      3.021      5.887
REMARK  14 active torsions:
REMARK  status: ('A' for Active; 'I' for Inactive)
REMARK    1  A    between atoms: O1_2  and  C2_3 
REMARK    2  A    between atoms: C2_3  and  C3_5 
REMARK    3  A    between atoms: C3_5  and  O3_6 
REMARK    4  A    between atoms: C3_5  and  C24_56 
REMARK    5  A    between atoms: O3_6  and  C4_7 
REMARK    6  A    between atoms: C4_7  and  C5_8 
REMARK    7  A    between atoms: C5_8  and  S1_9 
REMARK    8  A    between atoms: S1_9  and  C6_10 
REMARK    9  A    between atoms: C6_10  and  C7_11 
REMARK   10  A    between atoms: C10_16  and  C11_17 
REMARK   11  A    between atoms: C12_20  and  N3_21 
REMARK   12  A    between atoms: C17_39  and  C18_40 
REMARK       I    between atoms: C18_40  and  N10_42 
REMARK       I    between atoms: N10_42  and  C19_44 
REMARK   13  A    between atoms: C20_49  and  O6_50 
REMARK   14  A    between atoms: C24_56  and  O9_58 
ROOT
HETATM    1  C4  UNL     1     -55.010  61.995  10.940  1.00  0.00     0.088 C 
HETATM    2  C16 UNL     1     -55.301  62.857  12.042  1.00  0.00     0.114 C 
HETATM    3  N9  UNL     1     -54.186  63.119  12.842  1.00  0.00    -0.344 N 
ATOM      4  H9  UNL     1     -53.467  62.395  12.857  1.00  0.00     0.166 HD
HETATM    5  C17 UNL     1     -53.942  64.219  13.603  1.00  0.00     0.135 C 
HETATM    6  C20 UNL     1     -54.925  64.832  14.365  1.00  0.00     0.098 C 
HETATM    7  C21 UNL     1     -56.230  65.064  14.012  1.00  0.00     0.043 C 
HETATM    8  C22 UNL     1     -56.896  64.558  12.870  1.00  0.00     0.060 C 
HETATM    9  C23 UNL     1     -56.544  63.399  12.204  1.00  0.00     0.201 C 
HETATM   10  O7  UNL     1     -57.513  62.747  11.674  1.00  0.00    -0.286 OA
ENDROOT
BRANCH   1  11
HETATM   11  O3  UNL     1     -55.844  61.443  10.063  1.00  0.00    -0.327 OA
BRANCH  11  12
HETATM   12  C3  UNL     1     -55.881  60.052  10.092  1.00  0.00     0.327 C 
BRANCH  12  13
HETATM   13  C2  UNL     1     -56.177  59.485   8.778  1.00  0.00     0.298 C 
HETATM   14  O2  UNL     1     -55.729  58.339   8.442  1.00  0.00    -0.262 OA
BRANCH  13  15
HETATM   15  O1  UNL     1     -56.943  60.106   7.803  1.00  0.00    -0.324 OA
HETATM   16  C1  UNL     1     -58.069  59.463   7.237  1.00  0.00     0.213 C 
ENDBRANCH  13  15
ENDBRANCH  12  13
BRANCH  12  17
HETATM   17  C24 UNL     1     -56.985  59.536  10.985  1.00  0.00     0.298 C 
HETATM   18  O8  UNL     1     -58.191  59.702  10.770  1.00  0.00    -0.262 OA
BRANCH  17  19
HETATM   19  O9  UNL     1     -56.587  58.836  12.107  1.00  0.00    -0.324 OA
HETATM   20  C25 UNL     1     -57.135  57.597  12.512  1.00  0.00     0.213 C 
ENDBRANCH  17  19
ENDBRANCH  12  17
ENDBRANCH  11  12
ENDBRANCH   1  11
BRANCH   1  21
HETATM   21  C5  UNL     1     -53.859  60.995  11.285  1.00  0.00     0.141 C 
BRANCH  21  22
HETATM   22  S1  UNL     1     -52.643  60.914   9.996  1.00  0.00    -0.158 SA
BRANCH  22  23
HETATM   23  C6  UNL     1     -52.216  59.405   9.237  1.00  0.00     0.114 C 
BRANCH  23  24
HETATM   24  C7  UNL     1     -51.945  59.445   7.784  1.00  0.00    -0.028 A 
HETATM   25  C8  UNL     1     -51.685  58.351   6.965  1.00  0.00     0.059 A 
HETATM   26  C9  UNL     1     -51.427  58.790   5.691  1.00  0.00     0.130 A 
HETATM   27  N1  UNL     1     -51.116  58.210   4.495  1.00  0.00    -0.324 N 
HETATM   28  N8  UNL     1     -51.522  60.151   5.710  1.00  0.00    -0.236 N 
HETATM   29  C10 UNL     1     -50.912  58.931   3.388  1.00  0.00     0.152 A 
ATOM     30  H1  UNL     1     -51.038  57.194   4.444  1.00  0.00     0.169 HD
HETATM   31  N6  UNL     1     -51.020  60.260   3.470  1.00  0.00    -0.268 N 
HETATM   32  N7  UNL     1     -51.319  60.842   4.613  1.00  0.00    -0.233 N 
ATOM     33  H6  UNL     1     -50.870  60.831   2.638  1.00  0.00     0.190 HD
ATOM     34  H7  UNL     1     -51.394  61.858   4.646  1.00  0.00     0.209 HD
HETATM   35  C15 UNL     1     -51.833  60.540   6.969  1.00  0.00     0.128 A 
BRANCH  29  36
HETATM   36  C11 UNL     1     -50.572  58.327   2.112  1.00  0.00     0.124 A 
HETATM   37  N2  UNL     1     -49.505  58.791   1.447  1.00  0.00    -0.186 N 
HETATM   38  C12 UNL     1     -49.187  58.229   0.271  1.00  0.00     0.679 A 
ATOM     39  H2  UNL     1     -48.946  59.554   1.828  1.00  0.00     0.184 HD
HETATM   40  N4  UNL     1     -49.927  57.214  -0.239  1.00  0.00    -0.155 N 
HETATM   41  C13 UNL     1     -50.998  56.734   0.406  1.00  0.00     0.286 A 
ATOM     42  H4  UNL     1     -49.660  56.806  -1.135  1.00  0.00     0.187 HD
HETATM   43  O4  UNL     1     -51.715  55.791  -0.031  1.00  0.00    -0.266 OA
HETATM   44  C14 UNL     1     -51.345  57.291   1.612  1.00  0.00     0.145 A 
HETATM   45  N5  UNL     1     -52.475  56.825   2.341  1.00  0.00    -0.094 NA
BRANCH  38  46
HETATM   46  N3  UNL     1     -48.161  58.682  -0.358  1.00  0.00    -0.234 N 
ATOM     47  H32 UNL     1     -47.270  58.818   0.120  1.00  0.00     0.174 HD
ATOM     48  H31 UNL     1     -48.264  58.902  -1.348  1.00  0.00     0.174 HD
ENDBRANCH  38  46
ENDBRANCH  29  36
ENDBRANCH  23  24
ENDBRANCH  22  23
ENDBRANCH  21  22
ENDBRANCH   1  21
BRANCH   5  49
HETATM   49  C18 UNL     1     -52.600  64.788  13.591  1.00  0.00     0.277 C 
HETATM   50  O5  UNL     1     -52.465  66.005  13.212  1.00  0.00    -0.266 OA
HETATM   51  N10 UNL     1     -51.450  64.111  13.965  1.00  0.00    -0.296 N 
HETATM   52  C19 UNL     1     -50.172  64.776  13.912  1.00  0.00     0.188 C 
ATOM     53  H10 UNL     1     -51.508  63.142  14.279  1.00  0.00     0.171 HD
HETATM   54  N11 UNL     1     -49.128  64.126  14.263  1.00  0.00    -0.373 N 
HETATM   55  N12 UNL     1     -50.018  66.124  13.492  1.00  0.00    -0.064 NA
ATOM     56 2H11 UNL     1     -49.238  63.158  14.564  1.00  0.00     0.158 HD
ATOM     57 1H11 UNL     1     -48.224  64.598  14.225  1.00  0.00     0.158 HD
ENDBRANCH   5  49
BRANCH   6  58
HETATM   58  O6  UNL     1     -54.529  65.244  15.614  1.00  0.00    -0.358 OA
ATOM     59  H6  UNL     1     -54.272  64.549  16.210  1.00  0.00     0.217 HD
ENDBRANCH   6  58
TORSDOF 14
ENDMDL
MODEL 5
REMARK VINA RESULT: -9.842054765      5.113      9.750
REMARK  14 active torsions:
REMARK  status: ('A' for Active; 'I' for Inactive)
REMARK    1  A    between atoms: O1_2  and  C2_3 
REMARK    2  A    between atoms: C2_3  and  C3_5 
REMARK    3  A    between atoms: C3_5  and  O3_6 
REMARK    4  A    between atoms: C3_5  and  C24_56 
REMARK    5  A    between atoms: O3_6  and  C4_7 
REMARK    6  A    between atoms: C4_7  and  C5_8 
REMARK    7  A    between atoms: C5_8  and  S1_9 
REMARK    8  A    between atoms: S1_9  and  C6_10 
REMARK    9  A    between atoms: C6_10  and  C7_11 
REMARK   10  A    between atoms: C10_16  and  C11_17 
REMARK   11  A    between atoms: C12_20  and  N3_21 
REMARK   12  A    between atoms: C17_39  and  C18_40 
REMARK       I    between atoms: C18_40  and  N10_42 
REMARK       I    between atoms: N10_42  and  C19_44 
REMARK   13  A    between atoms: C20_49  and  O6_50 
REMARK   14  A    between atoms: C24_56  and  O9_58 
ROOT
HETATM    1  C4  UNL     1     -55.112  59.008   7.869  1.00  0.00     0.088 C 
HETATM    2  C16 UNL     1     -56.398  58.454   8.152  1.00  0.00     0.114 C 
HETATM    3  N9  UNL     1     -56.887  58.819   9.408  1.00  0.00    -0.344 N 
ATOM      4  H9  UNL     1     -56.185  59.026  10.119  1.00  0.00     0.166 HD
HETATM    5  C17 UNL     1     -58.185  58.934   9.800  1.00  0.00     0.135 C 
HETATM    6  C20 UNL     1     -59.160  58.022   9.427  1.00  0.00     0.098 C 
HETATM    7  C21 UNL     1     -59.326  57.437   8.197  1.00  0.00     0.043 C 
HETATM    8  C22 UNL     1     -58.426  57.498   7.106  1.00  0.00     0.060 C 
HETATM    9  C23 UNL     1     -57.065  57.709   7.222  1.00  0.00     0.201 C 
HETATM   10  O7  UNL     1     -56.336  57.126   6.342  1.00  0.00    -0.286 OA
ENDROOT
BRANCH   1  11
HETATM   11  O3  UNL     1     -54.304  58.772   6.838  1.00  0.00    -0.327 OA
BRANCH  11  12
HETATM   12  C3  UNL     1     -53.410  59.799   6.553  1.00  0.00     0.327 C 
BRANCH  12  13
HETATM   13  C2  UNL     1     -53.347  60.088   5.122  1.00  0.00     0.298 C 
HETATM   14  O2  UNL     1     -53.615  61.251   4.674  1.00  0.00    -0.262 OA
BRANCH  13  15
HETATM   15  O1  UNL     1     -53.002  59.166   4.144  1.00  0.00    -0.324 OA
HETATM   16  C1  UNL     1     -52.047  59.477   3.148  1.00  0.00     0.213 C 
ENDBRANCH  13  15
ENDBRANCH  12  13
BRANCH  12  17
HETATM   17  C24 UNL     1     -51.993  59.437   6.929  1.00  0.00     0.298 C 
HETATM   18  O8  UNL     1     -51.639  58.319   7.320  1.00  0.00    -0.262 OA
BRANCH  17  19
HETATM   19  O9  UNL     1     -51.055  60.445   6.820  1.00  0.00    -0.324 OA
HETATM   20  C25 UNL     1     -49.880  60.361   6.037  1.00  0.00     0.213 C 
ENDBRANCH  17  19
ENDBRANCH  12  17
ENDBRANCH  11  12
ENDBRANCH   1  11
BRANCH   1  21
HETATM   21  C5  UNL     1     -54.271  59.200   9.172  1.00  0.00     0.141 C 
BRANCH  21  22
HETATM   22  S1  UNL     1     -54.251  60.892   9.705  1.00  0.00    -0.158 SA
BRANCH  22  23
HETATM   23  C6  UNL     1     -54.647  61.337  11.342  1.00  0.00     0.114 C 
BRANCH  23  24
HETATM   24  C7  UNL     1     -53.706  62.247  12.029  1.00  0.00    -0.028 A 
HETATM   25  C8  UNL     1     -52.345  62.371  11.770  1.00  0.00     0.059 A 
HETATM   26  C9  UNL     1     -51.797  63.272  12.648  1.00  0.00     0.130 A 
HETATM   27  N1  UNL     1     -50.555  63.791  12.878  1.00  0.00    -0.324 N 
HETATM   28  N8  UNL     1     -52.807  63.710  13.455  1.00  0.00    -0.236 N 
HETATM   29  C10 UNL     1     -50.327  64.684  13.846  1.00  0.00     0.152 A 
ATOM     30  H1  UNL     1     -49.777  63.487  12.293  1.00  0.00     0.169 HD
HETATM   31  N6  UNL     1     -51.357  65.074  14.602  1.00  0.00    -0.268 N 
HETATM   32  N7  UNL     1     -52.564  64.588  14.398  1.00  0.00    -0.233 N 
ATOM     33  H6  UNL     1     -51.207  65.757  15.346  1.00  0.00     0.190 HD
ATOM     34  H7  UNL     1     -53.331  64.903  14.991  1.00  0.00     0.209 HD
HETATM   35  C15 UNL     1     -53.951  63.091  13.079  1.00  0.00     0.128 A 
BRANCH  29  36
HETATM   36  C11 UNL     1     -49.010  65.237  14.107  1.00  0.00     0.124 A 
HETATM   37  N2  UNL     1     -48.066  64.431  14.614  1.00  0.00    -0.186 N 
HETATM   38  C12 UNL     1     -46.848  64.939  14.849  1.00  0.00     0.679 A 
ATOM     39  H2  UNL     1     -48.271  63.453  14.816  1.00  0.00     0.184 HD
HETATM   40  N4  UNL     1     -46.570  66.239  14.582  1.00  0.00    -0.155 N 
HETATM   41  C13 UNL     1     -47.497  67.064  14.075  1.00  0.00     0.286 A 
ATOM     42  H4  UNL     1     -45.634  66.597  14.770  1.00  0.00     0.187 HD
HETATM   43  O4  UNL     1     -47.284  68.280  13.811  1.00  0.00    -0.266 OA
HETATM   44  C14 UNL     1     -48.752  66.569  13.825  1.00  0.00     0.145 A 
HETATM   45  N5  UNL     1     -49.778  67.399  13.291  1.00  0.00    -0.094 NA
BRANCH  38  46
HETATM   46  N3  UNL     1     -45.950  64.158  15.336  1.00  0.00    -0.234 N 
ATOM     47  H32 UNL     1     -45.629  63.340  14.818  1.00  0.00     0.174 HD
ATOM     48  H31 UNL     1     -45.568  64.379  16.256  1.00  0.00     0.174 HD
ENDBRANCH  38  46
ENDBRANCH  29  36
ENDBRANCH  23  24
ENDBRANCH  22  23
ENDBRANCH  21  22
ENDBRANCH   1  21
BRANCH   5  49
HETATM   49  C18 UNL     1     -58.564  60.077  10.621  1.00  0.00     0.277 C 
HETATM   50  O5  UNL     1     -57.957  60.244  11.738  1.00  0.00    -0.266 OA
HETATM   51  N10 UNL     1     -59.533  61.008  10.282  1.00  0.00    -0.296 N 
HETATM   52  C19 UNL     1     -59.826  62.101  11.176  1.00  0.00     0.188 C 
ATOM     53  H10 UNL     1     -60.040  60.919   9.401  1.00  0.00     0.171 HD
HETATM   54  N11 UNL     1     -60.727  62.945  10.837  1.00  0.00    -0.373 N 
HETATM   55  N12 UNL     1     -59.157  62.290  12.413  1.00  0.00    -0.064 NA
ATOM     56 2H11 UNL     1     -61.207  62.810   9.947  1.00  0.00     0.158 HD
ATOM     57 1H11 UNL     1     -60.933  63.718  11.469  1.00  0.00     0.158 HD
ENDBRANCH   5  49
BRANCH   6  58
HETATM   58  O6  UNL     1     -60.049  57.675  10.414  1.00  0.00    -0.358 OA
ATOM     59  H6  UNL     1     -60.917  58.053  10.331  1.00  0.00     0.217 HD
ENDBRANCH   6  58
TORSDOF 14
ENDMDL
