MODEL 1
REMARK VINA RESULT: -7.918250530      0.000      0.000
REMARK  13 active torsions:
REMARK  status: ('A' for Active; 'I' for Inactive)
REMARK    1  A    between atoms: C3_3  and  C4_4 
REMARK    2  A    between atoms: C4_4  and  C5_5 
REMARK    3  A    between atoms: C5_5  and  N1_6 
REMARK    4  A    between atoms: C5_5  and  C20_31 
REMARK       I    between atoms: N1_6  and  C6_8 
REMARK    5  A    between atoms: C6_8  and  C7_10 
REMARK    6  A    between atoms: C7_10  and  N2_11 
REMARK    7  A    between atoms: C7_10  and  C8_15 
REMARK    8  A    between atoms: C8_15  and  N3_17 
REMARK    9  A    between atoms: N3_17  and  C10_19 
REMARK   10  A    between atoms: C10_19  and  C11_20 
REMARK   11  A    between atoms: C10_19  and  C15_24 
REMARK   12  A    between atoms: C11_20  and  C12_21 
REMARK       I    between atoms: C15_24  and  N4_26 
REMARK   13  A    between atoms: C20_31  and  C22_33 
ROOT
HETATM    1  C1  UNL     1      20.720  43.400  74.013  1.00  0.00     0.012 C 
HETATM    2  C2  UNL     1      21.419  42.605  73.421  1.00  0.00    -0.117 C 
HETATM    3  C3  UNL     1      22.259  41.620  72.710  1.00  0.00     0.095 C 
ENDROOT
BRANCH   3   4
HETATM    4  C4  UNL     1      22.008  41.749  71.230  1.00  0.00     0.037 C 
BRANCH   4   5
HETATM    5  C5  UNL     1      20.866  40.928  70.748  1.00  0.00     0.089 C 
BRANCH   5   6
HETATM    6  N1  UNL     1      19.701  41.780  70.552  1.00  0.00    -0.354 N 
HETATM    7  C6  UNL     1      18.558  41.690  71.381  1.00  0.00     0.250 C 
HETATM    8  O1  UNL     1      18.600  40.823  72.294  1.00  0.00    -0.271 OA
ATOM      9  H1  UNL     1      19.708  42.462  69.794  1.00  0.00     0.162 HD
BRANCH   7  10
HETATM   10  C7  UNL     1      17.381  42.556  71.188  1.00  0.00     0.296 C 
BRANCH  10  11
HETATM   11  N2  UNL     1      16.202  41.941  71.810  1.00  0.00    -0.065 N 
ATOM     12  H23 UNL     1      15.333  42.260  71.380  1.00  0.00     0.275 HD
ATOM     13  H22 UNL     1      16.122  40.950  71.584  1.00  0.00     0.275 HD
ATOM     14  H21 UNL     1      16.214  42.106  72.816  1.00  0.00     0.275 HD
ENDBRANCH  10  11
BRANCH  10  15
HETATM   15  C8  UNL     1      17.589  43.906  71.953  1.00  0.00     0.113 C 
HETATM   16  C9  UNL     1      16.521  43.965  72.998  1.00  0.00     0.034 C 
BRANCH  15  17
HETATM   17  N3  UNL     1      17.632  44.927  71.000  1.00  0.00    -0.403 N 
ATOM     18  H3  UNL     1      18.021  45.833  71.261  1.00  0.00     0.154 HD
BRANCH  17  19
HETATM   19  C10 UNL     1      17.140  44.735  69.661  1.00  0.00     0.170 C 
BRANCH  19  20
HETATM   20  C11 UNL     1      15.780  45.309  69.583  1.00  0.00     0.038 C 
BRANCH  20  21
HETATM   21  C12 UNL     1      15.427  46.563  70.267  1.00  0.00    -0.020 C 
HETATM   22  C13 UNL     1      14.020  46.669  70.775  1.00  0.00     0.009 C 
HETATM   23  C14 UNL     1      15.687  47.778  69.353  1.00  0.00     0.009 C 
ENDBRANCH  20  21
ENDBRANCH  19  20
BRANCH  19  24
HETATM   24  C15 UNL     1      18.096  45.074  68.609  1.00  0.00     0.242 C 
HETATM   25  O2  UNL     1      18.670  46.207  68.515  1.00  0.00    -0.271 OA
HETATM   26  N4  UNL     1      18.472  44.119  67.583  1.00  0.00    -0.350 N 
HETATM   27  C16 UNL     1      18.031  42.751  67.439  1.00  0.00     0.126 C 
HETATM   28  C19 UNL     1      19.403  44.386  66.490  1.00  0.00     0.126 C 
HETATM   29  C17 UNL     1      18.024  42.549  65.946  1.00  0.00     0.021 C 
HETATM   30  C18 UNL     1      19.315  43.245  65.538  1.00  0.00     0.021 C 
ENDBRANCH  19  24
ENDBRANCH  17  19
ENDBRANCH  15  17
ENDBRANCH  10  15
ENDBRANCH   7  10
ENDBRANCH   5   6
BRANCH   5  31
HETATM   31  C20 UNL     1      21.114  40.254  69.420  1.00  0.00     0.004 C 
HETATM   32  C21 UNL     1      22.494  39.662  69.426  1.00  0.00     0.012 C 
BRANCH  31  33
HETATM   33  C22 UNL     1      20.848  41.163  68.250  1.00  0.00     0.002 C 
HETATM   34  C23 UNL     1      22.111  41.542  67.512  1.00  0.00     0.005 C 
ENDBRANCH  31  33
ENDBRANCH   5  31
ENDBRANCH   4   5
ENDBRANCH   3   4
TORSDOF 13
ENDMDL
MODEL 2
REMARK VINA RESULT: -7.549139189      0.929      2.684
REMARK  13 active torsions:
REMARK  status: ('A' for Active; 'I' for Inactive)
REMARK    1  A    between atoms: C3_3  and  C4_4 
REMARK    2  A    between atoms: C4_4  and  C5_5 
REMARK    3  A    between atoms: C5_5  and  N1_6 
REMARK    4  A    between atoms: C5_5  and  C20_31 
REMARK       I    between atoms: N1_6  and  C6_8 
REMARK    5  A    between atoms: C6_8  and  C7_10 
REMARK    6  A    between atoms: C7_10  and  N2_11 
REMARK    7  A    between atoms: C7_10  and  C8_15 
REMARK    8  A    between atoms: C8_15  and  N3_17 
REMARK    9  A    between atoms: N3_17  and  C10_19 
REMARK   10  A    between atoms: C10_19  and  C11_20 
REMARK   11  A    between atoms: C10_19  and  C15_24 
REMARK   12  A    between atoms: C11_20  and  C12_21 
REMARK       I    between atoms: C15_24  and  N4_26 
REMARK   13  A    between atoms: C20_31  and  C22_33 
ROOT
HETATM    1  C1  UNL     1      21.266  41.474  67.641  1.00  0.00     0.012 C 
HETATM    2  C2  UNL     1      21.664  40.633  68.420  1.00  0.00    -0.117 C 
HETATM    3  C3  UNL     1      22.168  39.623  69.370  1.00  0.00     0.095 C 
ENDROOT
BRANCH   3   4
HETATM    4  C4  UNL     1      21.296  39.635  70.598  1.00  0.00     0.037 C 
BRANCH   4   5
HETATM    5  C5  UNL     1      21.153  40.981  71.212  1.00  0.00     0.089 C 
BRANCH   5   6
HETATM    6  N1  UNL     1      19.742  41.274  71.427  1.00  0.00    -0.354 N 
HETATM    7  C6  UNL     1      19.155  42.487  70.998  1.00  0.00     0.250 C 
HETATM    8  O1  UNL     1      19.923  43.307  70.429  1.00  0.00    -0.271 OA
ATOM      9  H1  UNL     1      19.161  40.583  71.901  1.00  0.00     0.162 HD
BRANCH   7  10
HETATM   10  C7  UNL     1      17.726  42.781  71.209  1.00  0.00     0.296 C 
BRANCH  10  11
HETATM   11  N2  UNL     1      17.146  41.803  72.137  1.00  0.00    -0.065 N 
ATOM     12  H23 UNL     1      16.203  41.526  71.863  1.00  0.00     0.275 HD
ATOM     13  H22 UNL     1      17.596  40.890  72.062  1.00  0.00     0.275 HD
ATOM     14  H21 UNL     1      17.176  42.168  73.089  1.00  0.00     0.275 HD
ENDBRANCH  10  11
BRANCH  10  15
HETATM   15  C8  UNL     1      17.572  44.165  71.925  1.00  0.00     0.113 C 
HETATM   16  C9  UNL     1      16.401  44.033  72.844  1.00  0.00     0.034 C 
BRANCH  15  17
HETATM   17  N3  UNL     1      17.521  45.148  70.934  1.00  0.00    -0.403 N 
ATOM     18  H3  UNL     1      17.864  46.085  71.146  1.00  0.00     0.154 HD
BRANCH  17  19
HETATM   19  C10 UNL     1      16.997  44.875  69.621  1.00  0.00     0.170 C 
BRANCH  19  20
HETATM   20  C11 UNL     1      15.629  45.430  69.547  1.00  0.00     0.038 C 
BRANCH  20  21
HETATM   21  C12 UNL     1      15.248  46.655  70.267  1.00  0.00    -0.020 C 
HETATM   22  C13 UNL     1      13.834  46.723  70.762  1.00  0.00     0.009 C 
HETATM   23  C14 UNL     1      15.500  47.903  69.395  1.00  0.00     0.009 C 
ENDBRANCH  20  21
ENDBRANCH  19  20
BRANCH  19  24
HETATM   24  C15 UNL     1      17.921  45.163  68.526  1.00  0.00     0.242 C 
HETATM   25  O2  UNL     1      18.503  46.285  68.370  1.00  0.00    -0.271 OA
HETATM   26  N4  UNL     1      18.253  44.166  67.526  1.00  0.00    -0.350 N 
HETATM   27  C16 UNL     1      17.793  42.798  67.448  1.00  0.00     0.126 C 
HETATM   28  C19 UNL     1      19.150  44.380  66.393  1.00  0.00     0.126 C 
HETATM   29  C17 UNL     1      17.734  42.541  65.964  1.00  0.00     0.021 C 
HETATM   30  C18 UNL     1      19.018  43.206  65.488  1.00  0.00     0.021 C 
ENDBRANCH  19  24
ENDBRANCH  17  19
ENDBRANCH  15  17
ENDBRANCH  10  15
ENDBRANCH   7  10
ENDBRANCH   5   6
BRANCH   5  31
HETATM   31  C20 UNL     1      21.814  41.111  72.564  1.00  0.00     0.004 C 
HETATM   32  C21 UNL     1      20.815  40.763  73.629  1.00  0.00     0.012 C 
BRANCH  31  33
HETATM   33  C22 UNL     1      22.470  42.451  72.762  1.00  0.00     0.002 C 
HETATM   34  C23 UNL     1      21.675  43.356  73.675  1.00  0.00     0.005 C 
ENDBRANCH  31  33
ENDBRANCH   5  31
ENDBRANCH   4   5
ENDBRANCH   3   4
TORSDOF 13
ENDMDL
MODEL 3
REMARK VINA RESULT: -7.469640516      2.224      5.718
REMARK  13 active torsions:
REMARK  status: ('A' for Active; 'I' for Inactive)
REMARK    1  A    between atoms: C3_3  and  C4_4 
REMARK    2  A    between atoms: C4_4  and  C5_5 
REMARK    3  A    between atoms: C5_5  and  N1_6 
REMARK    4  A    between atoms: C5_5  and  C20_31 
REMARK       I    between atoms: N1_6  and  C6_8 
REMARK    5  A    between atoms: C6_8  and  C7_10 
REMARK    6  A    between atoms: C7_10  and  N2_11 
REMARK    7  A    between atoms: C7_10  and  C8_15 
REMARK    8  A    between atoms: C8_15  and  N3_17 
REMARK    9  A    between atoms: N3_17  and  C10_19 
REMARK   10  A    between atoms: C10_19  and  C11_20 
REMARK   11  A    between atoms: C10_19  and  C15_24 
REMARK   12  A    between atoms: C11_20  and  C12_21 
REMARK       I    between atoms: C15_24  and  N4_26 
REMARK   13  A    between atoms: C20_31  and  C22_33 
ROOT
HETATM    1  C1  UNL     1      14.816  43.347  65.800  1.00  0.00     0.012 C 
HETATM    2  C2  UNL     1      15.979  43.527  66.094  1.00  0.00    -0.117 C 
HETATM    3  C3  UNL     1      17.390  43.767  66.456  1.00  0.00     0.095 C 
ENDROOT
BRANCH   3   4
HETATM    4  C4  UNL     1      17.739  42.905  67.641  1.00  0.00     0.037 C 
BRANCH   4   5
HETATM    5  C5  UNL     1      19.185  42.922  67.982  1.00  0.00     0.089 C 
BRANCH   5   6
HETATM    6  N1  UNL     1      19.369  42.472  69.356  1.00  0.00    -0.354 N 
HETATM    7  C6  UNL     1      20.074  43.245  70.309  1.00  0.00     0.250 C 
HETATM    8  O1  UNL     1      20.544  44.339  69.901  1.00  0.00    -0.271 OA
ATOM      9  H1  UNL     1      18.978  41.574  69.639  1.00  0.00     0.162 HD
BRANCH   7  10
HETATM   10  C7  UNL     1      20.254  42.795  71.701  1.00  0.00     0.296 C 
BRANCH  10  11
HETATM   11  N2  UNL     1      21.648  42.996  72.115  1.00  0.00    -0.065 N 
ATOM     12  H23 UNL     1      22.240  42.204  71.866  1.00  0.00     0.275 HD
ATOM     13  H22 UNL     1      22.114  43.710  71.555  1.00  0.00     0.275 HD
ATOM     14  H21 UNL     1      21.687  43.205  73.112  1.00  0.00     0.275 HD
ENDBRANCH  10  11
BRANCH  10  15
HETATM   15  C8  UNL     1      19.409  43.698  72.661  1.00  0.00     0.113 C 
HETATM   16  C9  UNL     1      20.127  43.705  73.971  1.00  0.00     0.034 C 
BRANCH  15  17
HETATM   17  N3  UNL     1      18.094  43.224  72.636  1.00  0.00    -0.403 N 
ATOM     18  H3  UNL     1      17.924  42.224  72.749  1.00  0.00     0.154 HD
BRANCH  17  19
HETATM   19  C10 UNL     1      16.973  44.109  72.456  1.00  0.00     0.170 C 
BRANCH  19  20
HETATM   20  C11 UNL     1      16.818  44.366  71.008  1.00  0.00     0.038 C 
BRANCH  20  21
HETATM   21  C12 UNL     1      16.603  45.723  70.480  1.00  0.00    -0.020 C 
HETATM   22  C13 UNL     1      15.243  46.011  69.921  1.00  0.00     0.009 C 
HETATM   23  C14 UNL     1      17.639  46.054  69.385  1.00  0.00     0.009 C 
ENDBRANCH  20  21
ENDBRANCH  19  20
BRANCH  19  24
HETATM   24  C15 UNL     1      15.785  43.748  73.226  1.00  0.00     0.242 C 
HETATM   25  O2  UNL     1      15.483  42.550  73.539  1.00  0.00    -0.271 OA
HETATM   26  N4  UNL     1      14.853  44.751  73.705  1.00  0.00    -0.350 N 
HETATM   27  C16 UNL     1      14.933  46.185  73.550  1.00  0.00     0.126 C 
HETATM   28  C19 UNL     1      13.635  44.471  74.462  1.00  0.00     0.126 C 
HETATM   29  C17 UNL     1      13.489  46.602  73.457  1.00  0.00     0.021 C 
HETATM   30  C18 UNL     1      12.852  45.735  74.534  1.00  0.00     0.021 C 
ENDBRANCH  19  24
ENDBRANCH  17  19
ENDBRANCH  15  17
ENDBRANCH  10  15
ENDBRANCH   7  10
ENDBRANCH   5   6
BRANCH   5  31
HETATM   31  C20 UNL     1      20.027  42.002  67.130  1.00  0.00     0.004 C 
HETATM   32  C21 UNL     1      20.639  40.950  68.009  1.00  0.00     0.012 C 
BRANCH  31  33
HETATM   33  C22 UNL     1      21.028  42.747  66.287  1.00  0.00     0.002 C 
HETATM   34  C23 UNL     1      22.444  42.271  66.514  1.00  0.00     0.005 C 
ENDBRANCH  31  33
ENDBRANCH   5  31
ENDBRANCH   4   5
ENDBRANCH   3   4
TORSDOF 13
ENDMDL
MODEL 4
REMARK VINA RESULT: -7.434426769      2.076      6.109
REMARK  13 active torsions:
REMARK  status: ('A' for Active; 'I' for Inactive)
REMARK    1  A    between atoms: C3_3  and  C4_4 
REMARK    2  A    between atoms: C4_4  and  C5_5 
REMARK    3  A    between atoms: C5_5  and  N1_6 
REMARK    4  A    between atoms: C5_5  and  C20_31 
REMARK       I    between atoms: N1_6  and  C6_8 
REMARK    5  A    between atoms: C6_8  and  C7_10 
REMARK    6  A    between atoms: C7_10  and  N2_11 
REMARK    7  A    between atoms: C7_10  and  C8_15 
REMARK    8  A    between atoms: C8_15  and  N3_17 
REMARK    9  A    between atoms: N3_17  and  C10_19 
REMARK   10  A    between atoms: C10_19  and  C11_20 
REMARK   11  A    between atoms: C10_19  and  C15_24 
REMARK   12  A    between atoms: C11_20  and  C12_21 
REMARK       I    between atoms: C15_24  and  N4_26 
REMARK   13  A    between atoms: C20_31  and  C22_33 
ROOT
HETATM    1  C1  UNL     1      14.349  42.977  65.581  1.00  0.00     0.012 C 
HETATM    2  C2  UNL     1      15.557  42.904  65.494  1.00  0.00    -0.117 C 
HETATM    3  C3  UNL     1      17.025  42.812  65.365  1.00  0.00     0.095 C 
ENDROOT
BRANCH   3   4
HETATM    4  C4  UNL     1      17.630  44.130  65.770  1.00  0.00     0.037 C 
BRANCH   4   5
HETATM    5  C5  UNL     1      18.765  43.996  66.720  1.00  0.00     0.089 C 
BRANCH   5   6
HETATM    6  N1  UNL     1      18.258  43.945  68.085  1.00  0.00    -0.354 N 
HETATM    7  C6  UNL     1      18.041  45.118  68.847  1.00  0.00     0.250 C 
HETATM    8  O1  UNL     1      18.322  46.208  68.283  1.00  0.00    -0.271 OA
ATOM      9  H1  UNL     1      18.054  43.039  68.504  1.00  0.00     0.162 HD
BRANCH   7  10
HETATM   10  C7  UNL     1      17.521  45.069  70.226  1.00  0.00     0.296 C 
BRANCH  10  11
HETATM   11  N2  UNL     1      16.053  45.062  70.206  1.00  0.00    -0.065 N 
ATOM     12  H23 UNL     1      15.657  45.092  71.145  1.00  0.00     0.275 HD
ATOM     13  H22 UNL     1      15.670  45.940  69.856  1.00  0.00     0.275 HD
ATOM     14  H21 UNL     1      15.718  44.259  69.674  1.00  0.00     0.275 HD
ENDBRANCH  10  11
BRANCH  10  15
HETATM   15  C8  UNL     1      17.927  43.713  70.894  1.00  0.00     0.113 C 
HETATM   16  C9  UNL     1      16.801  43.340  71.804  1.00  0.00     0.034 C 
BRANCH  15  17
HETATM   17  N3  UNL     1      19.195  43.883  71.456  1.00  0.00    -0.403 N 
ATOM     18  H3  UNL     1      19.377  44.706  72.031  1.00  0.00     0.154 HD
BRANCH  17  19
HETATM   19  C10 UNL     1      20.252  42.929  71.246  1.00  0.00     0.170 C 
BRANCH  19  20
HETATM   20  C11 UNL     1      19.641  41.656  70.806  1.00  0.00     0.038 C 
BRANCH  20  21
HETATM   21  C12 UNL     1      20.004  40.369  71.419  1.00  0.00    -0.020 C 
HETATM   22  C13 UNL     1      20.413  40.411  72.861  1.00  0.00     0.009 C 
HETATM   23  C14 UNL     1      21.142  39.687  70.630  1.00  0.00     0.009 C 
ENDBRANCH  20  21
ENDBRANCH  19  20
BRANCH  19  24
HETATM   24  C15 UNL     1      21.395  43.443  70.495  1.00  0.00     0.242 C 
HETATM   25  O2  UNL     1      21.290  44.227  69.496  1.00  0.00    -0.271 OA
HETATM   26  N4  UNL     1      22.759  43.098  70.850  1.00  0.00    -0.350 N 
HETATM   27  C16 UNL     1      23.209  42.270  71.945  1.00  0.00     0.126 C 
HETATM   28  C19 UNL     1      23.952  43.554  70.141  1.00  0.00     0.126 C 
HETATM   29  C17 UNL     1      24.449  41.615  71.393  1.00  0.00     0.021 C 
HETATM   30  C18 UNL     1      25.109  42.779  70.666  1.00  0.00     0.021 C 
ENDBRANCH  19  24
ENDBRANCH  17  19
ENDBRANCH  15  17
ENDBRANCH  10  15
ENDBRANCH   7  10
ENDBRANCH   5   6
BRANCH   5  31
HETATM   31  C20 UNL     1      19.574  42.734  66.532  1.00  0.00     0.004 C 
HETATM   32  C21 UNL     1      19.413  41.868  67.747  1.00  0.00     0.012 C 
BRANCH  31  33
HETATM   33  C22 UNL     1      21.009  43.014  66.172  1.00  0.00     0.002 C 
HETATM   34  C23 UNL     1      21.974  42.092  66.881  1.00  0.00     0.005 C 
ENDBRANCH  31  33
ENDBRANCH   5  31
ENDBRANCH   4   5
ENDBRANCH   3   4
TORSDOF 13
ENDMDL
MODEL 5
REMARK VINA RESULT: -7.215242673      1.670      5.218
REMARK  13 active torsions:
REMARK  status: ('A' for Active; 'I' for Inactive)
REMARK    1  A    between atoms: C3_3  and  C4_4 
REMARK    2  A    between atoms: C4_4  and  C5_5 
REMARK    3  A    between atoms: C5_5  and  N1_6 
REMARK    4  A    between atoms: C5_5  and  C20_31 
REMARK       I    between atoms: N1_6  and  C6_8 
REMARK    5  A    between atoms: C6_8  and  C7_10 
REMARK    6  A    between atoms: C7_10  and  N2_11 
REMARK    7  A    between atoms: C7_10  and  C8_15 
REMARK    8  A    between atoms: C8_15  and  N3_17 
REMARK    9  A    between atoms: N3_17  and  C10_19 
REMARK   10  A    between atoms: C10_19  and  C11_20 
REMARK   11  A    between atoms: C10_19  and  C15_24 
REMARK   12  A    between atoms: C11_20  and  C12_21 
REMARK       I    between atoms: C15_24  and  N4_26 
REMARK   13  A    between atoms: C20_31  and  C22_33 
ROOT
HETATM    1  C1  UNL     1      15.692  43.592  66.021  1.00  0.00     0.012 C 
HETATM    2  C2  UNL     1      16.855  43.266  65.907  1.00  0.00    -0.117 C 
HETATM    3  C3  UNL     1      18.276  42.890  65.769  1.00  0.00     0.095 C 
ENDROOT
BRANCH   3   4
HETATM    4  C4  UNL     1      18.710  42.167  67.016  1.00  0.00     0.037 C 
BRANCH   4   5
HETATM    5  C5  UNL     1      19.615  42.967  67.883  1.00  0.00     0.089 C 
BRANCH   5   6
HETATM    6  N1  UNL     1      18.828  43.711  68.857  1.00  0.00    -0.354 N 
HETATM    7  C6  UNL     1      18.599  45.101  68.730  1.00  0.00     0.250 C 
HETATM    8  O1  UNL     1      19.123  45.663  67.732  1.00  0.00    -0.271 OA
ATOM      9  H1  UNL     1      18.430  43.215  69.654  1.00  0.00     0.162 HD
BRANCH   7  10
HETATM   10  C7  UNL     1      17.796  45.854  69.711  1.00  0.00     0.296 C 
BRANCH  10  11
HETATM   11  N2  UNL     1      17.376  47.137  69.133  1.00  0.00    -0.065 N 
ATOM     12  H23 UNL     1      17.916  47.919  69.503  1.00  0.00     0.275 HD
ATOM     13  H22 UNL     1      17.644  47.222  68.153  1.00  0.00     0.275 HD
ATOM     14  H21 UNL     1      16.373  47.266  69.268  1.00  0.00     0.275 HD
ENDBRANCH  10  11
BRANCH  10  15
HETATM   15  C8  UNL     1      16.466  45.084  70.007  1.00  0.00     0.113 C 
HETATM   16  C9  UNL     1      15.438  45.651  69.082  1.00  0.00     0.034 C 
BRANCH  15  17
HETATM   17  N3  UNL     1      16.228  45.166  71.381  1.00  0.00    -0.403 N 
ATOM     18  H3  UNL     1      15.455  45.739  71.718  1.00  0.00     0.154 HD
BRANCH  17  19
HETATM   19  C10 UNL     1      17.046  44.464  72.335  1.00  0.00     0.170 C 
BRANCH  19  20
HETATM   20  C11 UNL     1      16.613  44.859  73.693  1.00  0.00     0.038 C 
BRANCH  20  21
HETATM   21  C12 UNL     1      15.236  45.296  73.971  1.00  0.00    -0.020 C 
HETATM   22  C13 UNL     1      15.072  46.350  75.024  1.00  0.00     0.009 C 
HETATM   23  C14 UNL     1      14.351  44.096  74.369  1.00  0.00     0.009 C 
ENDBRANCH  20  21
ENDBRANCH  19  20
BRANCH  19  24
HETATM   24  C15 UNL     1      17.224  43.042  72.053  1.00  0.00     0.242 C 
HETATM   25  O2  UNL     1      16.263  42.251  71.776  1.00  0.00    -0.271 OA
HETATM   26  N4  UNL     1      18.535  42.420  72.057  1.00  0.00    -0.350 N 
HETATM   27  C16 UNL     1      19.815  43.048  72.293  1.00  0.00     0.126 C 
HETATM   28  C19 UNL     1      18.794  41.005  71.804  1.00  0.00     0.126 C 
HETATM   29  C17 UNL     1      20.610  41.962  72.970  1.00  0.00     0.021 C 
HETATM   30  C18 UNL     1      20.217  40.741  72.149  1.00  0.00     0.021 C 
ENDBRANCH  19  24
ENDBRANCH  17  19
ENDBRANCH  15  17
ENDBRANCH  10  15
ENDBRANCH   7  10
ENDBRANCH   5   6
BRANCH   5  31
HETATM   31  C20 UNL     1      20.588  42.135  68.685  1.00  0.00     0.004 C 
HETATM   32  C21 UNL     1      21.853  42.919  68.878  1.00  0.00     0.012 C 
BRANCH  31  33
HETATM   33  C22 UNL     1      20.804  40.768  68.094  1.00  0.00     0.002 C 
HETATM   34  C23 UNL     1      21.654  39.884  68.978  1.00  0.00     0.005 C 
ENDBRANCH  31  33
ENDBRANCH   5  31
ENDBRANCH   4   5
ENDBRANCH   3   4
TORSDOF 13
ENDMDL
