MODEL 1
REMARK VINA RESULT: -9.587852794      0.000      0.000
REMARK  13 active torsions:
REMARK  status: ('A' for Active; 'I' for Inactive)
REMARK    1  A    between atoms: C2_2  and  C3_3 
REMARK    2  A    between atoms: C3_3  and  C4_4 
REMARK    3  A    between atoms: C4_4  and  C5_5 
REMARK    4  A    between atoms: C4_4  and  C17_25 
REMARK    5  A    between atoms: C5_5  and  O1_6 
REMARK    6  A    between atoms: O1_6  and  C6_7 
REMARK    7  A    between atoms: C6_7  and  C7_8 
REMARK    8  A    between atoms: C7_8  and  O2_9 
REMARK    9  A    between atoms: C7_8  and  C8_11 
REMARK   10  A    between atoms: C8_11  and  N1_12 
REMARK   11  A    between atoms: C11_15  and  C12_16 
REMARK   12  A    between atoms: C12_16  and  C13_17 
REMARK   13  A    between atoms: C13_17  and  N2_18 
ROOT
HETATM    1  C7  UNL     1      14.953  41.516  64.571  1.00  0.00     0.160 C 
ENDROOT
BRANCH   1   2
HETATM    2  C6  UNL     1      16.241  42.239  64.421  1.00  0.00     0.200 C 
BRANCH   2   3
HETATM    3  O1  UNL     1      16.429  43.302  65.226  1.00  0.00    -0.388 OA
BRANCH   3   4
HETATM    4  C5  UNL     1      17.598  43.551  65.849  1.00  0.00     0.172 C 
BRANCH   4   5
HETATM    5  C4  UNL     1      17.807  42.706  67.086  1.00  0.00     0.013 C 
BRANCH   5   6
HETATM    6  C3  UNL     1      17.543  43.357  68.378  1.00  0.00     0.007 C 
BRANCH   6   7
HETATM    7  C2  UNL     1      17.160  44.804  68.293  1.00  0.00    -0.004 C 
HETATM    8  C1  UNL     1      18.341  45.624  68.885  1.00  0.00     0.005 C 
ENDBRANCH   6   7
ENDBRANCH   5   6
BRANCH   5   9
HETATM    9  C17 UNL     1      19.190  42.103  66.976  1.00  0.00    -0.008 C 
HETATM   10  C18 UNL     1      19.830  41.903  68.326  1.00  0.00     0.005 C 
HETATM   11  C19 UNL     1      21.002  40.962  68.134  1.00  0.00     0.000 C 
HETATM   12  C20 UNL     1      22.017  41.671  67.270  1.00  0.00     0.000 C 
HETATM   13  C21 UNL     1      21.533  42.932  66.647  1.00  0.00     0.000 C 
HETATM   14  C22 UNL     1      20.128  42.869  66.107  1.00  0.00     0.005 C 
ENDBRANCH   5   9
ENDBRANCH   4   5
ENDBRANCH   3   4
ENDBRANCH   2   3
ENDBRANCH   1   2
BRANCH   1  15
HETATM   15  O2  UNL     1      14.973  40.314  63.857  1.00  0.00    -0.392 OA
ATOM     16  H2  UNL     1      14.511  39.633  64.331  1.00  0.00     0.210 HD
ENDBRANCH   1  15
BRANCH   1  17
HETATM   17  C8  UNL     1      13.786  42.304  64.080  1.00  0.00     0.160 C 
BRANCH  17  18
HETATM   18  N1  UNL     1      12.906  42.828  65.066  1.00  0.00    -0.371 N 
HETATM   19  C9  UNL     1      11.762  43.478  64.567  1.00  0.00     0.063 C 
HETATM   20  C10 UNL     1      10.434  43.174  65.126  1.00  0.00     0.049 C 
HETATM   21  C11 UNL     1      10.447  42.415  66.423  1.00  0.00    -0.004 C 
HETATM   22  C15 UNL     1      11.565  41.360  66.401  1.00  0.00     0.049 C 
HETATM   23  C16 UNL     1      12.835  42.183  66.314  1.00  0.00     0.063 C 
BRANCH  21  24
HETATM   24  C12 UNL     1       9.121  41.796  66.719  1.00  0.00     0.025 C 
BRANCH  24  25
HETATM   25  C13 UNL     1       9.241  40.321  67.071  1.00  0.00     0.122 C 
BRANCH  25  26
HETATM   26  N2  UNL     1       8.911  40.117  68.471  1.00  0.00    -0.367 N 
HETATM   27  C14 UNL     1       8.332  39.058  68.916  1.00  0.00     0.196 C 
HETATM   28  N3  UNL     1       8.043  38.937  70.305  1.00  0.00    -0.067 NA
HETATM   29  N4  UNL     1       7.979  38.011  68.040  1.00  0.00    -0.067 NA
ATOM     30  H2  UNL     1       9.151  40.851  69.137  1.00  0.00     0.161 HD
ENDBRANCH  25  26
ENDBRANCH  24  25
ENDBRANCH  21  24
ENDBRANCH  17  18
ENDBRANCH   1  17
TORSDOF 13
ENDMDL
MODEL 2
REMARK VINA RESULT: -9.375881221      0.926      2.566
REMARK  13 active torsions:
REMARK  status: ('A' for Active; 'I' for Inactive)
REMARK    1  A    between atoms: C2_2  and  C3_3 
REMARK    2  A    between atoms: C3_3  and  C4_4 
REMARK    3  A    between atoms: C4_4  and  C5_5 
REMARK    4  A    between atoms: C4_4  and  C17_25 
REMARK    5  A    between atoms: C5_5  and  O1_6 
REMARK    6  A    between atoms: O1_6  and  C6_7 
REMARK    7  A    between atoms: C6_7  and  C7_8 
REMARK    8  A    between atoms: C7_8  and  O2_9 
REMARK    9  A    between atoms: C7_8  and  C8_11 
REMARK   10  A    between atoms: C8_11  and  N1_12 
REMARK   11  A    between atoms: C11_15  and  C12_16 
REMARK   12  A    between atoms: C12_16  and  C13_17 
REMARK   13  A    between atoms: C13_17  and  N2_18 
ROOT
HETATM    1  C7  UNL     1      14.864  41.575  64.654  1.00  0.00     0.160 C 
ENDROOT
BRANCH   1   2
HETATM    2  C6  UNL     1      16.073  42.429  64.536  1.00  0.00     0.200 C 
BRANCH   2   3
HETATM    3  O1  UNL     1      17.227  41.901  64.987  1.00  0.00    -0.388 OA
BRANCH   3   4
HETATM    4  C5  UNL     1      17.766  42.229  66.177  1.00  0.00     0.172 C 
BRANCH   4   5
HETATM    5  C4  UNL     1      18.016  43.713  66.331  1.00  0.00     0.013 C 
BRANCH   5   6
HETATM    6  C3  UNL     1      19.352  44.197  65.952  1.00  0.00     0.007 C 
BRANCH   6   7
HETATM    7  C2  UNL     1      20.403  43.134  65.838  1.00  0.00    -0.004 C 
HETATM    8  C1  UNL     1      21.261  43.199  67.133  1.00  0.00     0.005 C 
ENDBRANCH   6   7
ENDBRANCH   5   6
BRANCH   5   9
HETATM    9  C17 UNL     1      17.608  44.082  67.740  1.00  0.00    -0.008 C 
HETATM   10  C18 UNL     1      18.362  45.283  68.252  1.00  0.00     0.005 C 
HETATM   11  C19 UNL     1      17.621  45.792  69.472  1.00  0.00     0.000 C 
HETATM   12  C20 UNL     1      17.717  44.729  70.539  1.00  0.00     0.000 C 
HETATM   13  C21 UNL     1      18.255  43.423  70.071  1.00  0.00     0.000 C 
HETATM   14  C22 UNL     1      17.737  42.975  68.728  1.00  0.00     0.005 C 
ENDBRANCH   5   9
ENDBRANCH   4   5
ENDBRANCH   3   4
ENDBRANCH   2   3
ENDBRANCH   1   2
BRANCH   1  15
HETATM   15  O2  UNL     1      15.014  40.399  63.913  1.00  0.00    -0.392 OA
ATOM     16  H2  UNL     1      15.484  39.743  64.413  1.00  0.00     0.210 HD
ENDBRANCH   1  15
BRANCH   1  17
HETATM   17  C8  UNL     1      13.627  42.251  64.170  1.00  0.00     0.160 C 
BRANCH  17  18
HETATM   18  N1  UNL     1      12.744  42.760  65.161  1.00  0.00    -0.371 N 
HETATM   19  C9  UNL     1      11.614  43.440  64.669  1.00  0.00     0.063 C 
HETATM   20  C10 UNL     1      10.276  43.138  65.204  1.00  0.00     0.049 C 
HETATM   21  C11 UNL     1      10.264  42.342  66.479  1.00  0.00    -0.004 C 
HETATM   22  C15 UNL     1      11.368  41.273  66.439  1.00  0.00     0.049 C 
HETATM   23  C16 UNL     1      12.649  42.079  66.389  1.00  0.00     0.063 C 
BRANCH  21  24
HETATM   24  C12 UNL     1       8.927  41.734  66.743  1.00  0.00     0.025 C 
BRANCH  24  25
HETATM   25  C13 UNL     1       9.027  40.258  67.097  1.00  0.00     0.122 C 
BRANCH  25  26
HETATM   26  N2  UNL     1       8.772  40.070  68.516  1.00  0.00    -0.367 N 
HETATM   27  C14 UNL     1       8.292  38.984  69.012  1.00  0.00     0.196 C 
HETATM   28  N3  UNL     1       8.072  38.882  70.415  1.00  0.00    -0.067 NA
HETATM   29  N4  UNL     1       7.980  37.891  68.179  1.00  0.00    -0.067 NA
ATOM     30  H2  UNL     1       8.985  40.838  69.151  1.00  0.00     0.161 HD
ENDBRANCH  25  26
ENDBRANCH  24  25
ENDBRANCH  21  24
ENDBRANCH  17  18
ENDBRANCH   1  17
TORSDOF 13
ENDMDL
MODEL 3
REMARK VINA RESULT: -9.307402069      1.124      2.315
REMARK  13 active torsions:
REMARK  status: ('A' for Active; 'I' for Inactive)
REMARK    1  A    between atoms: C2_2  and  C3_3 
REMARK    2  A    between atoms: C3_3  and  C4_4 
REMARK    3  A    between atoms: C4_4  and  C5_5 
REMARK    4  A    between atoms: C4_4  and  C17_25 
REMARK    5  A    between atoms: C5_5  and  O1_6 
REMARK    6  A    between atoms: O1_6  and  C6_7 
REMARK    7  A    between atoms: C6_7  and  C7_8 
REMARK    8  A    between atoms: C7_8  and  O2_9 
REMARK    9  A    between atoms: C7_8  and  C8_11 
REMARK   10  A    between atoms: C8_11  and  N1_12 
REMARK   11  A    between atoms: C11_15  and  C12_16 
REMARK   12  A    between atoms: C12_16  and  C13_17 
REMARK   13  A    between atoms: C13_17  and  N2_18 
ROOT
HETATM    1  C7  UNL     1      14.870  41.473  64.726  1.00  0.00     0.160 C 
ENDROOT
BRANCH   1   2
HETATM    2  C6  UNL     1      16.135  42.246  64.811  1.00  0.00     0.200 C 
BRANCH   2   3
HETATM    3  O1  UNL     1      16.654  42.412  66.043  1.00  0.00    -0.388 OA
BRANCH   3   4
HETATM    4  C5  UNL     1      17.967  42.265  66.310  1.00  0.00     0.172 C 
BRANCH   4   5
HETATM    5  C4  UNL     1      18.456  43.168  67.420  1.00  0.00     0.013 C 
BRANCH   5   6
HETATM    6  C3  UNL     1      19.763  43.811  67.216  1.00  0.00     0.007 C 
BRANCH   6   7
HETATM    7  C2  UNL     1      20.495  43.381  65.979  1.00  0.00    -0.004 C 
HETATM    8  C1  UNL     1      21.763  42.611  66.444  1.00  0.00     0.005 C 
ENDBRANCH   6   7
ENDBRANCH   5   6
BRANCH   5   9
HETATM    9  C17 UNL     1      18.356  42.377  68.705  1.00  0.00    -0.008 C 
HETATM   10  C18 UNL     1      17.830  43.213  69.845  1.00  0.00     0.005 C 
HETATM   11  C19 UNL     1      17.408  42.259  70.944  1.00  0.00     0.000 C 
HETATM   12  C20 UNL     1      18.651  41.565  71.447  1.00  0.00     0.000 C 
HETATM   13  C21 UNL     1      19.866  41.784  70.616  1.00  0.00     0.000 C 
HETATM   14  C22 UNL     1      19.629  41.730  69.129  1.00  0.00     0.005 C 
ENDBRANCH   5   9
ENDBRANCH   4   5
ENDBRANCH   3   4
ENDBRANCH   2   3
ENDBRANCH   1   2
BRANCH   1  15
HETATM   15  O2  UNL     1      15.018  40.373  63.876  1.00  0.00    -0.392 OA
ATOM     16  H2  UNL     1      14.174  40.079  63.555  1.00  0.00     0.210 HD
ENDBRANCH   1  15
BRANCH   1  17
HETATM   17  C8  UNL     1      13.730  42.283  64.209  1.00  0.00     0.160 C 
BRANCH  17  18
HETATM   18  N1  UNL     1      12.821  42.799  65.172  1.00  0.00    -0.371 N 
HETATM   19  C9  UNL     1      11.699  43.467  64.644  1.00  0.00     0.063 C 
HETATM   20  C10 UNL     1      10.351  43.165  65.151  1.00  0.00     0.049 C 
HETATM   21  C11 UNL     1      10.312  42.384  66.435  1.00  0.00    -0.004 C 
HETATM   22  C15 UNL     1      11.422  41.321  66.434  1.00  0.00     0.049 C 
HETATM   23  C16 UNL     1      12.700  42.134  66.405  1.00  0.00     0.063 C 
BRANCH  21  24
HETATM   24  C12 UNL     1       8.972  41.772  66.674  1.00  0.00     0.025 C 
BRANCH  24  25
HETATM   25  C13 UNL     1       9.070  40.300  67.041  1.00  0.00     0.122 C 
BRANCH  25  26
HETATM   26  N2  UNL     1       8.825  40.125  68.463  1.00  0.00    -0.367 N 
HETATM   27  C14 UNL     1       8.336  39.050  68.972  1.00  0.00     0.196 C 
HETATM   28  N3  UNL     1       8.126  38.961  70.377  1.00  0.00    -0.067 NA
HETATM   29  N4  UNL     1       8.002  37.954  68.149  1.00  0.00    -0.067 NA
ATOM     30  H2  UNL     1       9.054  40.895  69.091  1.00  0.00     0.161 HD
ENDBRANCH  25  26
ENDBRANCH  24  25
ENDBRANCH  21  24
ENDBRANCH  17  18
ENDBRANCH   1  17
TORSDOF 13
ENDMDL
MODEL 4
REMARK VINA RESULT: -9.302175739      0.558      1.123
REMARK  13 active torsions:
REMARK  status: ('A' for Active; 'I' for Inactive)
REMARK    1  A    between atoms: C2_2  and  C3_3 
REMARK    2  A    between atoms: C3_3  and  C4_4 
REMARK    3  A    between atoms: C4_4  and  C5_5 
REMARK    4  A    between atoms: C4_4  and  C17_25 
REMARK    5  A    between atoms: C5_5  and  O1_6 
REMARK    6  A    between atoms: O1_6  and  C6_7 
REMARK    7  A    between atoms: C6_7  and  C7_8 
REMARK    8  A    between atoms: C7_8  and  O2_9 
REMARK    9  A    between atoms: C7_8  and  C8_11 
REMARK   10  A    between atoms: C8_11  and  N1_12 
REMARK   11  A    between atoms: C11_15  and  C12_16 
REMARK   12  A    between atoms: C12_16  and  C13_17 
REMARK   13  A    between atoms: C13_17  and  N2_18 
ROOT
HETATM    1  C7  UNL     1      14.824  41.415  64.738  1.00  0.00     0.160 C 
ENDROOT
BRANCH   1   2
HETATM    2  C6  UNL     1      16.092  42.166  64.921  1.00  0.00     0.200 C 
BRANCH   2   3
HETATM    3  O1  UNL     1      16.571  42.238  66.177  1.00  0.00    -0.388 OA
BRANCH   3   4
HETATM    4  C5  UNL     1      17.522  43.117  66.549  1.00  0.00     0.172 C 
BRANCH   4   5
HETATM    5  C4  UNL     1      17.984  42.930  67.977  1.00  0.00     0.013 C 
BRANCH   5   6
HETATM    6  C3  UNL     1      17.541  43.942  68.948  1.00  0.00     0.007 C 
BRANCH   6   7
HETATM    7  C2  UNL     1      18.115  45.312  68.743  1.00  0.00    -0.004 C 
HETATM    8  C1  UNL     1      17.034  46.333  69.196  1.00  0.00     0.005 C 
ENDBRANCH   6   7
ENDBRANCH   5   6
BRANCH   5   9
HETATM    9  C17 UNL     1      19.483  42.739  67.931  1.00  0.00    -0.008 C 
HETATM   10  C18 UNL     1      19.982  42.500  66.529  1.00  0.00     0.005 C 
HETATM   11  C19 UNL     1      21.482  42.712  66.543  1.00  0.00     0.000 C 
HETATM   12  C20 UNL     1      22.085  41.634  67.410  1.00  0.00     0.000 C 
HETATM   13  C21 UNL     1      21.101  40.841  68.195  1.00  0.00     0.000 C 
HETATM   14  C22 UNL     1      19.992  41.652  68.815  1.00  0.00     0.005 C 
ENDBRANCH   5   9
ENDBRANCH   4   5
ENDBRANCH   3   4
ENDBRANCH   2   3
ENDBRANCH   1   2
BRANCH   1  15
HETATM   15  O2  UNL     1      14.995  40.367  63.830  1.00  0.00    -0.392 OA
ATOM     16  H2  UNL     1      14.286  40.350  63.198  1.00  0.00     0.210 HD
ENDBRANCH   1  15
BRANCH   1  17
HETATM   17  C8  UNL     1      13.714  42.269  64.227  1.00  0.00     0.160 C 
BRANCH  17  18
HETATM   18  N1  UNL     1      12.801  42.780  65.191  1.00  0.00    -0.371 N 
HETATM   19  C9  UNL     1      11.684  43.454  64.663  1.00  0.00     0.063 C 
HETATM   20  C10 UNL     1      10.332  43.152  65.162  1.00  0.00     0.049 C 
HETATM   21  C11 UNL     1      10.286  42.361  66.440  1.00  0.00    -0.004 C 
HETATM   22  C15 UNL     1      11.393  41.295  66.435  1.00  0.00     0.049 C 
HETATM   23  C16 UNL     1      12.674  42.105  66.418  1.00  0.00     0.063 C 
BRANCH  21  24
HETATM   24  C12 UNL     1       8.944  41.751  66.668  1.00  0.00     0.025 C 
BRANCH  24  25
HETATM   25  C13 UNL     1       9.038  40.280  67.046  1.00  0.00     0.122 C 
BRANCH  25  26
HETATM   26  N2  UNL     1       8.811  40.118  68.472  1.00  0.00    -0.367 N 
HETATM   27  C14 UNL     1       8.334  39.046  68.997  1.00  0.00     0.196 C 
HETATM   28  N3  UNL     1       8.142  38.969  70.406  1.00  0.00    -0.067 NA
HETATM   29  N4  UNL     1       7.996  37.940  68.190  1.00  0.00    -0.067 NA
ATOM     30  H2  UNL     1       9.043  40.896  69.090  1.00  0.00     0.161 HD
ENDBRANCH  25  26
ENDBRANCH  24  25
ENDBRANCH  21  24
ENDBRANCH  17  18
ENDBRANCH   1  17
TORSDOF 13
ENDMDL
MODEL 5
REMARK VINA RESULT: -9.219917297      1.098      1.598
REMARK  13 active torsions:
REMARK  status: ('A' for Active; 'I' for Inactive)
REMARK    1  A    between atoms: C2_2  and  C3_3 
REMARK    2  A    between atoms: C3_3  and  C4_4 
REMARK    3  A    between atoms: C4_4  and  C5_5 
REMARK    4  A    between atoms: C4_4  and  C17_25 
REMARK    5  A    between atoms: C5_5  and  O1_6 
REMARK    6  A    between atoms: O1_6  and  C6_7 
REMARK    7  A    between atoms: C6_7  and  C7_8 
REMARK    8  A    between atoms: C7_8  and  O2_9 
REMARK    9  A    between atoms: C7_8  and  C8_11 
REMARK   10  A    between atoms: C8_11  and  N1_12 
REMARK   11  A    between atoms: C11_15  and  C12_16 
REMARK   12  A    between atoms: C12_16  and  C13_17 
REMARK   13  A    between atoms: C13_17  and  N2_18 
ROOT
HETATM    1  C7  UNL     1      14.890  41.373  64.651  1.00  0.00     0.160 C 
ENDROOT
BRANCH   1   2
HETATM    2  C6  UNL     1      16.210  42.049  64.714  1.00  0.00     0.200 C 
BRANCH   2   3
HETATM    3  O1  UNL     1      17.019  41.692  65.730  1.00  0.00    -0.388 OA
BRANCH   3   4
HETATM    4  C5  UNL     1      17.927  42.528  66.271  1.00  0.00     0.172 C 
BRANCH   4   5
HETATM    5  C4  UNL     1      17.525  43.046  67.634  1.00  0.00     0.013 C 
BRANCH   5   6
HETATM    6  C3  UNL     1      17.607  44.501  67.834  1.00  0.00     0.007 C 
BRANCH   6   7
HETATM    7  C2  UNL     1      16.291  45.187  68.051  1.00  0.00    -0.004 C 
HETATM    8  C1  UNL     1      16.431  46.045  69.340  1.00  0.00     0.005 C 
ENDBRANCH   6   7
ENDBRANCH   5   6
BRANCH   5   9
HETATM    9  C17 UNL     1      18.300  42.243  68.654  1.00  0.00    -0.008 C 
HETATM   10  C18 UNL     1      17.974  42.656  70.067  1.00  0.00     0.005 C 
HETATM   11  C19 UNL     1      18.483  41.562  70.984  1.00  0.00     0.000 C 
HETATM   12  C20 UNL     1      19.988  41.540  70.872  1.00  0.00     0.000 C 
HETATM   13  C21 UNL     1      20.544  42.367  69.766  1.00  0.00     0.000 C 
HETATM   14  C22 UNL     1      19.778  42.280  68.471  1.00  0.00     0.005 C 
ENDBRANCH   5   9
ENDBRANCH   4   5
ENDBRANCH   3   4
ENDBRANCH   2   3
ENDBRANCH   1   2
BRANCH   1  15
HETATM   15  O2  UNL     1      14.944  40.257  63.810  1.00  0.00    -0.392 OA
ATOM     16  H2  UNL     1      15.663  40.334  63.194  1.00  0.00     0.210 HD
ENDBRANCH   1  15
BRANCH   1  17
HETATM   17  C8  UNL     1      13.807  42.261  64.140  1.00  0.00     0.160 C 
BRANCH  17  18
HETATM   18  N1  UNL     1      12.908  42.796  65.103  1.00  0.00    -0.371 N 
HETATM   19  C9  UNL     1      11.784  43.458  64.575  1.00  0.00     0.063 C 
HETATM   20  C10 UNL     1      10.440  43.169  65.100  1.00  0.00     0.049 C 
HETATM   21  C11 UNL     1      10.411  42.410  66.397  1.00  0.00    -0.004 C 
HETATM   22  C15 UNL     1      11.517  41.343  66.403  1.00  0.00     0.049 C 
HETATM   23  C16 UNL     1      12.798  42.152  66.348  1.00  0.00     0.063 C 
BRANCH  21  24
HETATM   24  C12 UNL     1       9.071  41.807  66.659  1.00  0.00     0.025 C 
BRANCH  24  25
HETATM   25  C13 UNL     1       9.167  40.335  67.032  1.00  0.00     0.122 C 
BRANCH  25  26
HETATM   26  N2  UNL     1       8.889  40.163  68.448  1.00  0.00    -0.367 N 
HETATM   27  C14 UNL     1       8.366  39.098  68.944  1.00  0.00     0.196 C 
HETATM   28  N3  UNL     1       8.126  39.010  70.345  1.00  0.00    -0.067 NA
HETATM   29  N4  UNL     1       8.025  38.011  68.112  1.00  0.00    -0.067 NA
ATOM     30  H2  UNL     1       9.122  40.926  69.083  1.00  0.00     0.161 HD
ENDBRANCH  25  26
ENDBRANCH  24  25
ENDBRANCH  21  24
ENDBRANCH  17  18
ENDBRANCH   1  17
TORSDOF 13
ENDMDL
