MODEL 1
REMARK VINA RESULT: -5.912808782      0.000      0.000
REMARK  4 active torsions:
REMARK  status: ('A' for Active; 'I' for Inactive)
REMARK    1  A    between atoms: C2_3  and  N3_7 
REMARK       I    between atoms: C3_9  and  N5_11 
REMARK    2  A    between atoms: N5_11  and  N6_13 
REMARK    3  A    between atoms: N6_13  and  N7_14 
REMARK    4  A    between atoms: N6_13  and  O1_17 
ROOT
HETATM    1  N1  UNL     1      29.304  45.377  -7.690  1.00  0.00    -0.188 NA
HETATM    2  C1  UNL     1      29.447  45.824  -6.631  1.00  0.00     0.136 C 
HETATM    3  C2  UNL     1      29.635  46.372  -5.306  1.00  0.00     0.184 C 
HETATM    4  N2  UNL     1      30.402  47.394  -5.184  1.00  0.00    -0.377 N 
ATOM      5  H21 UNL     1      30.535  47.780  -4.249  1.00  0.00     0.158 HD
ATOM      6  H22 UNL     1      30.858  47.794  -6.003  1.00  0.00     0.158 HD
ENDROOT
BRANCH   3   7
HETATM    7  N3  UNL     1      29.001  45.813  -4.164  1.00  0.00    -0.307 N 
HETATM    8  C3  UNL     1      28.318  46.495  -3.325  1.00  0.00     0.212 C 
HETATM    9  N4  UNL     1      28.129  47.885  -3.460  1.00  0.00    -0.062 NA
HETATM   10  N5  UNL     1      27.738  45.802  -2.224  1.00  0.00    -0.232 N 
ATOM     11  H5  UNL     1      27.271  44.917  -2.418  1.00  0.00     0.194 HD
ATOM     12  H3  UNL     1      29.095  44.810  -4.004  1.00  0.00     0.170 HD
BRANCH  10  13
HETATM   13  N6  UNL     1      27.758  46.237  -0.916  1.00  0.00    -0.099 N 
BRANCH  13  14
HETATM   14  N7  UNL     1      27.458  47.448  -0.588  1.00  0.00    -0.303 N 
ATOM     15  H72 UNL     1      27.542  48.146  -1.327  1.00  0.00     0.181 HD
ATOM     16  H71 UNL     1      27.154  47.698   0.353  1.00  0.00     0.181 HD
ENDBRANCH  13  14
BRANCH  13  17
HETATM   17  O1  UNL     1      28.100  45.405   0.112  1.00  0.00    -0.254 OA
ATOM     18  H1  UNL     1      28.446  45.739   0.931  1.00  0.00     0.248 HD
ENDBRANCH  13  17
ENDBRANCH  10  13
ENDBRANCH   3   7
TORSDOF 4
ENDMDL
MODEL 2
REMARK VINA RESULT: -5.758853456      3.985      5.757
REMARK  4 active torsions:
REMARK  status: ('A' for Active; 'I' for Inactive)
REMARK    1  A    between atoms: C2_3  and  N3_7 
REMARK       I    between atoms: C3_9  and  N5_11 
REMARK    2  A    between atoms: N5_11  and  N6_13 
REMARK    3  A    between atoms: N6_13  and  N7_14 
REMARK    4  A    between atoms: N6_13  and  O1_17 
ROOT
HETATM    1  N1  UNL     1      28.048  45.805   0.368  1.00  0.00    -0.188 NA
HETATM    2  C1  UNL     1      28.149  46.837  -0.148  1.00  0.00     0.136 C 
HETATM    3  C2  UNL     1      28.265  48.121  -0.801  1.00  0.00     0.184 C 
HETATM    4  N2  UNL     1      27.636  49.115  -0.285  1.00  0.00    -0.377 N 
ATOM      5  H21 UNL     1      27.718  50.021  -0.746  1.00  0.00     0.158 HD
ATOM      6  H22 UNL     1      27.076  48.986   0.557  1.00  0.00     0.158 HD
ENDROOT
BRANCH   3   7
HETATM    7  N3  UNL     1      29.045  48.301  -1.975  1.00  0.00    -0.307 N 
HETATM    8  C3  UNL     1      30.285  48.612  -1.965  1.00  0.00     0.212 C 
HETATM    9  N4  UNL     1      31.002  48.809  -0.768  1.00  0.00    -0.062 NA
HETATM   10  N5  UNL     1      30.942  48.760  -3.220  1.00  0.00    -0.232 N 
ATOM     11  H5  UNL     1      30.765  48.050  -3.930  1.00  0.00     0.194 HD
ATOM     12  H3  UNL     1      28.589  48.173  -2.879  1.00  0.00     0.170 HD
BRANCH  10  13
HETATM   13  N6  UNL     1      31.799  49.789  -3.548  1.00  0.00    -0.099 N 
BRANCH  13  14
HETATM   14  N7  UNL     1      32.444  49.819  -4.665  1.00  0.00    -0.303 N 
ATOM     15  H72 UNL     1      33.205  49.146  -4.760  1.00  0.00     0.181 HD
ATOM     16  H71 UNL     1      32.209  50.472  -5.412  1.00  0.00     0.181 HD
ENDBRANCH  13  14
BRANCH  13  17
HETATM   17  O1  UNL     1      32.016  50.840  -2.703  1.00  0.00    -0.254 OA
ATOM     18  H1  UNL     1      31.845  50.774  -1.771  1.00  0.00     0.248 HD
ENDBRANCH  13  17
ENDBRANCH  10  13
ENDBRANCH   3   7
TORSDOF 4
ENDMDL
MODEL 3
REMARK VINA RESULT: -5.732583630      3.482      4.979
REMARK  4 active torsions:
REMARK  status: ('A' for Active; 'I' for Inactive)
REMARK    1  A    between atoms: C2_3  and  N3_7 
REMARK       I    between atoms: C3_9  and  N5_11 
REMARK    2  A    between atoms: N5_11  and  N6_13 
REMARK    3  A    between atoms: N6_13  and  N7_14 
REMARK    4  A    between atoms: N6_13  and  O1_17 
ROOT
HETATM    1  N1  UNL     1      25.679  49.297  -2.457  1.00  0.00    -0.188 NA
HETATM    2  C1  UNL     1      26.370  48.408  -2.185  1.00  0.00     0.136 C 
HETATM    3  C2  UNL     1      27.238  47.306  -1.837  1.00  0.00     0.184 C 
HETATM    4  N2  UNL     1      26.788  46.423  -1.020  1.00  0.00    -0.377 N 
ATOM      5  H21 UNL     1      27.401  45.646  -0.774  1.00  0.00     0.158 HD
ATOM      6  H22 UNL     1      25.847  46.511  -0.637  1.00  0.00     0.158 HD
ENDROOT
BRANCH   3   7
HETATM    7  N3  UNL     1      28.550  47.184  -2.369  1.00  0.00    -0.307 N 
HETATM    8  C3  UNL     1      29.600  47.610  -1.779  1.00  0.00     0.212 C 
HETATM    9  N4  UNL     1      29.551  48.251  -0.524  1.00  0.00    -0.062 NA
HETATM   10  N5  UNL     1      30.852  47.421  -2.431  1.00  0.00    -0.232 N 
ATOM     11  H5  UNL     1      31.031  46.507  -2.848  1.00  0.00     0.194 HD
ATOM     12  H3  UNL     1      28.660  46.729  -3.276  1.00  0.00     0.170 HD
BRANCH  10  13
HETATM   13  N6  UNL     1      31.840  48.375  -2.542  1.00  0.00    -0.099 N 
BRANCH  13  14
HETATM   14  N7  UNL     1      33.041  48.084  -2.912  1.00  0.00    -0.303 N 
ATOM     15  H72 UNL     1      33.479  47.298  -2.432  1.00  0.00     0.181 HD
ATOM     16  H71 UNL     1      33.528  48.606  -3.641  1.00  0.00     0.181 HD
ENDBRANCH  13  14
BRANCH  13  17
HETATM   17  O1  UNL     1      31.601  49.691  -2.263  1.00  0.00    -0.254 OA
ATOM     18  H1  UNL     1      32.099  50.160  -1.603  1.00  0.00     0.248 HD
ENDBRANCH  13  17
ENDBRANCH  10  13
ENDBRANCH   3   7
TORSDOF 4
ENDMDL
MODEL 4
REMARK VINA RESULT: -5.709701001      2.804      5.280
REMARK  4 active torsions:
REMARK  status: ('A' for Active; 'I' for Inactive)
REMARK    1  A    between atoms: C2_3  and  N3_7 
REMARK       I    between atoms: C3_9  and  N5_11 
REMARK    2  A    between atoms: N5_11  and  N6_13 
REMARK    3  A    between atoms: N6_13  and  N7_14 
REMARK    4  A    between atoms: N6_13  and  O1_17 
ROOT
HETATM    1  N1  UNL     1      27.795  48.929   0.302  1.00  0.00    -0.188 NA
HETATM    2  C1  UNL     1      28.069  47.957  -0.265  1.00  0.00     0.136 C 
HETATM    3  C2  UNL     1      28.420  46.742  -0.964  1.00  0.00     0.184 C 
HETATM    4  N2  UNL     1      27.853  45.651  -0.593  1.00  0.00    -0.377 N 
ATOM      5  H21 UNL     1      28.102  44.794  -1.087  1.00  0.00     0.158 HD
ATOM      6  H22 UNL     1      27.180  45.657   0.172  1.00  0.00     0.158 HD
ENDROOT
BRANCH   3   7
HETATM    7  N3  UNL     1      29.360  46.732  -2.030  1.00  0.00    -0.307 N 
HETATM    8  C3  UNL     1      29.033  46.693  -3.266  1.00  0.00     0.212 C 
HETATM    9  N4  UNL     1      27.690  46.654  -3.689  1.00  0.00    -0.062 NA
HETATM   10  N5  UNL     1      30.082  46.688  -4.229  1.00  0.00    -0.232 N 
ATOM     11  H5  UNL     1      30.851  47.343  -4.091  1.00  0.00     0.194 HD
ATOM     12  H3  UNL     1      30.352  46.759  -1.796  1.00  0.00     0.170 HD
BRANCH  10  13
HETATM   13  N6  UNL     1      30.138  45.866  -5.334  1.00  0.00    -0.099 N 
BRANCH  13  14
HETATM   14  N7  UNL     1      29.661  44.667  -5.327  1.00  0.00    -0.303 N 
ATOM     15  H72 UNL     1      29.437  44.281  -4.409  1.00  0.00     0.181 HD
ATOM     16  H71 UNL     1      29.514  44.134  -6.183  1.00  0.00     0.181 HD
ENDBRANCH  13  14
BRANCH  13  17
HETATM   17  O1  UNL     1      30.707  46.276  -6.507  1.00  0.00    -0.254 OA
ATOM     18  H1  UNL     1      31.077  45.658  -7.126  1.00  0.00     0.248 HD
ENDBRANCH  13  17
ENDBRANCH  10  13
ENDBRANCH   3   7
TORSDOF 4
ENDMDL
MODEL 5
REMARK VINA RESULT: -5.591854992      2.327      3.144
REMARK  4 active torsions:
REMARK  status: ('A' for Active; 'I' for Inactive)
REMARK    1  A    between atoms: C2_3  and  N3_7 
REMARK       I    between atoms: C3_9  and  N5_11 
REMARK    2  A    between atoms: N5_11  and  N6_13 
REMARK    3  A    between atoms: N6_13  and  N7_14 
REMARK    4  A    between atoms: N6_13  and  O1_17 
ROOT
HETATM    1  N1  UNL     1      33.204  49.410  -2.903  1.00  0.00    -0.188 NA
HETATM    2  C1  UNL     1      32.165  49.105  -3.314  1.00  0.00     0.136 C 
HETATM    3  C2  UNL     1      30.863  48.731  -3.817  1.00  0.00     0.184 C 
HETATM    4  N2  UNL     1      30.300  49.513  -4.666  1.00  0.00    -0.377 N 
ATOM      5  H21 UNL     1      29.381  49.249  -5.020  1.00  0.00     0.158 HD
ATOM      6  H22 UNL     1      30.769  50.368  -4.965  1.00  0.00     0.158 HD
ENDROOT
BRANCH   3   7
HETATM    7  N3  UNL     1      30.209  47.540  -3.400  1.00  0.00    -0.307 N 
HETATM    8  C3  UNL     1      29.007  47.503  -2.966  1.00  0.00     0.212 C 
HETATM    9  N4  UNL     1      28.208  48.659  -2.860  1.00  0.00    -0.062 NA
HETATM   10  N5  UNL     1      28.479  46.237  -2.582  1.00  0.00    -0.232 N 
ATOM     11  H5  UNL     1      28.652  45.447  -3.203  1.00  0.00     0.194 HD
ATOM     12  H3  UNL     1      30.729  46.664  -3.450  1.00  0.00     0.170 HD
BRANCH  10  13
HETATM   13  N6  UNL     1      27.753  45.998  -1.435  1.00  0.00    -0.099 N 
BRANCH  13  14
HETATM   14  N7  UNL     1      26.610  46.553  -1.214  1.00  0.00    -0.303 N 
ATOM     15  H72 UNL     1      26.049  46.764  -2.040  1.00  0.00     0.181 HD
ATOM     16  H71 UNL     1      26.282  46.769  -0.273  1.00  0.00     0.181 HD
ENDBRANCH  13  14
BRANCH  13  17
HETATM   17  O1  UNL     1      28.207  45.154  -0.461  1.00  0.00    -0.254 OA
ATOM     18  H1  UNL     1      27.991  45.287   0.455  1.00  0.00     0.248 HD
ENDBRANCH  13  17
ENDBRANCH  10  13
ENDBRANCH   3   7
TORSDOF 4
ENDMDL
