MODEL 1
REMARK VINA RESULT: -5.927012201      0.000      0.000
REMARK  3 active torsions:
REMARK  status: ('A' for Active; 'I' for Inactive)
REMARK       I    between atoms: N1_2  and  C2_4 
REMARK       I    between atoms: C2_4  and  N4_10 
REMARK    1  A    between atoms: N2_5  and  N3_7 
REMARK       I    between atoms: N4_10  and  C3_12 
REMARK    2  A    between atoms: C3_12  and  C4_14 
REMARK    3  A    between atoms: C4_14  and  N5_16 
ROOT
HETATM    1  C1  UNL     1      27.761  48.790  -0.029  1.00  0.00     0.165 C 
HETATM    2  N1  UNL     1      28.809  47.776   0.048  1.00  0.00    -0.229 N 
ATOM      3  H1  UNL     1      29.404  47.696   0.872  1.00  0.00     0.177 HD
HETATM    4  C2  UNL     1      28.971  46.916  -1.050  1.00  0.00     0.694 C 
HETATM    5  N2  UNL     1      28.210  45.898  -1.177  1.00  0.00    -0.139 N 
ATOM      6  H2  UNL     1      28.331  45.275  -1.974  1.00  0.00     0.205 HD
HETATM    7  N4  UNL     1      29.980  47.178  -2.015  1.00  0.00    -0.157 N 
ATOM      8  H4  UNL     1      30.087  46.545  -2.807  1.00  0.00     0.187 HD
HETATM    9  C3  UNL     1      30.838  48.291  -1.906  1.00  0.00     0.266 C 
HETATM   10  O1  UNL     1      30.713  49.069  -0.940  1.00  0.00    -0.270 OA
ENDROOT
BRANCH   9  11
HETATM   11  C4  UNL     1      31.883  48.557  -2.911  1.00  0.00     0.271 C 
HETATM   12  C5  UNL     1      31.587  47.721  -4.133  1.00  0.00     0.050 C 
BRANCH  11  13
HETATM   13  N5  UNL     1      31.900  49.969  -3.233  1.00  0.00    -0.067 N 
ATOM     14  H53 UNL     1      32.388  50.520  -2.527  1.00  0.00     0.275 HD
ATOM     15  H52 UNL     1      32.508  50.175  -4.026  1.00  0.00     0.275 HD
ATOM     16  H51 UNL     1      30.946  50.298  -3.385  1.00  0.00     0.275 HD
ENDBRANCH  11  13
ENDBRANCH   9  11
BRANCH   5  17
HETATM   17  N3  UNL     1      27.222  45.632  -0.243  1.00  0.00    -0.331 N 
ATOM     18  H32 UNL     1      27.500  45.431   0.718  1.00  0.00     0.177 HD
ATOM     19  H31 UNL     1      26.238  45.636  -0.509  1.00  0.00     0.177 HD
ENDBRANCH   5  17
TORSDOF 3
ENDMDL
MODEL 2
REMARK VINA RESULT: -5.766330291      2.373      2.557
REMARK  3 active torsions:
REMARK  status: ('A' for Active; 'I' for Inactive)
REMARK       I    between atoms: N1_2  and  C2_4 
REMARK       I    between atoms: C2_4  and  N4_10 
REMARK    1  A    between atoms: N2_5  and  N3_7 
REMARK       I    between atoms: N4_10  and  C3_12 
REMARK    2  A    between atoms: C3_12  and  C4_14 
REMARK    3  A    between atoms: C4_14  and  N5_16 
ROOT
HETATM    1  C1  UNL     1      26.660  48.544  -2.361  1.00  0.00     0.165 C 
HETATM    2  N1  UNL     1      27.970  48.050  -1.946  1.00  0.00    -0.229 N 
ATOM      3  H1  UNL     1      28.635  48.658  -1.470  1.00  0.00     0.177 HD
HETATM    4  C2  UNL     1      28.283  46.710  -2.224  1.00  0.00     0.694 C 
HETATM    5  N2  UNL     1      27.860  45.786  -1.451  1.00  0.00    -0.139 N 
ATOM      6  H2  UNL     1      28.089  44.814  -1.655  1.00  0.00     0.205 HD
HETATM    7  N4  UNL     1      29.068  46.385  -3.363  1.00  0.00    -0.157 N 
ATOM      8  H4  UNL     1      29.288  45.407  -3.553  1.00  0.00     0.187 HD
HETATM    9  C3  UNL     1      29.552  47.379  -4.237  1.00  0.00     0.266 C 
HETATM   10  O1  UNL     1      29.287  48.576  -4.010  1.00  0.00    -0.270 OA
ENDROOT
BRANCH   9  11
HETATM   11  C4  UNL     1      30.367  47.036  -5.416  1.00  0.00     0.271 C 
HETATM   12  C5  UNL     1      29.586  46.058  -6.261  1.00  0.00     0.050 C 
BRANCH  11  13
HETATM   13  N5  UNL     1      30.678  48.240  -6.160  1.00  0.00    -0.067 N 
ATOM     14  H53 UNL     1      30.109  49.033  -5.863  1.00  0.00     0.275 HD
ATOM     15  H52 UNL     1      31.594  48.616  -5.916  1.00  0.00     0.275 HD
ATOM     16  H51 UNL     1      30.591  48.057  -7.159  1.00  0.00     0.275 HD
ENDBRANCH  11  13
ENDBRANCH   9  11
BRANCH   5  17
HETATM   17  N3  UNL     1      27.092  46.089  -0.338  1.00  0.00    -0.331 N 
ATOM     18  H32 UNL     1      27.548  46.520   0.466  1.00  0.00     0.177 HD
ATOM     19  H31 UNL     1      26.093  45.886  -0.323  1.00  0.00     0.177 HD
ENDBRANCH   5  17
TORSDOF 3
ENDMDL
MODEL 3
REMARK VINA RESULT: -5.755651803      1.604      4.627
REMARK  3 active torsions:
REMARK  status: ('A' for Active; 'I' for Inactive)
REMARK       I    between atoms: N1_2  and  C2_4 
REMARK       I    between atoms: C2_4  and  N4_10 
REMARK    1  A    between atoms: N2_5  and  N3_7 
REMARK       I    between atoms: N4_10  and  C3_12 
REMARK    2  A    between atoms: C3_12  and  C4_14 
REMARK    3  A    between atoms: C4_14  and  N5_16 
ROOT
HETATM    1  C1  UNL     1      32.210  48.128  -2.629  1.00  0.00     0.165 C 
HETATM    2  N1  UNL     1      31.097  49.026  -2.333  1.00  0.00    -0.229 N 
ATOM      3  H1  UNL     1      31.181  49.752  -1.621  1.00  0.00     0.177 HD
HETATM    4  C2  UNL     1      29.907  48.857  -3.059  1.00  0.00     0.694 C 
HETATM    5  N2  UNL     1      29.800  49.359  -4.228  1.00  0.00    -0.139 N 
ATOM      6  H2  UNL     1      28.935  49.235  -4.752  1.00  0.00     0.205 HD
HETATM    7  N4  UNL     1      28.827  48.129  -2.492  1.00  0.00    -0.157 N 
ATOM      8  H4  UNL     1      27.968  48.014  -3.030  1.00  0.00     0.187 HD
HETATM    9  C3  UNL     1      28.910  47.562  -1.205  1.00  0.00     0.266 C 
HETATM   10  O1  UNL     1      29.956  47.699  -0.541  1.00  0.00    -0.270 OA
ENDROOT
BRANCH   9  11
HETATM   11  C4  UNL     1      27.785  46.808  -0.622  1.00  0.00     0.271 C 
HETATM   12  C5  UNL     1      26.559  47.061  -1.467  1.00  0.00     0.050 C 
BRANCH  11  13
HETATM   13  N5  UNL     1      28.112  45.398  -0.583  1.00  0.00    -0.067 N 
ATOM     14  H53 UNL     1      27.913  44.931  -1.468  1.00  0.00     0.275 HD
ATOM     15  H52 UNL     1      29.119  45.238  -0.556  1.00  0.00     0.275 HD
ATOM     16  H51 UNL     1      27.632  44.956   0.201  1.00  0.00     0.275 HD
ENDBRANCH  11  13
ENDBRANCH   9  11
BRANCH   5  17
HETATM   17  N3  UNL     1      30.847  50.070  -4.792  1.00  0.00    -0.331 N 
ATOM     18  H32 UNL     1      31.636  50.329  -4.200  1.00  0.00     0.177 HD
ATOM     19  H31 UNL     1      30.829  50.330  -5.778  1.00  0.00     0.177 HD
ENDBRANCH   5  17
TORSDOF 3
ENDMDL
MODEL 4
REMARK VINA RESULT: -5.714007749      3.061      3.724
REMARK  3 active torsions:
REMARK  status: ('A' for Active; 'I' for Inactive)
REMARK       I    between atoms: N1_2  and  C2_4 
REMARK       I    between atoms: C2_4  and  N4_10 
REMARK    1  A    between atoms: N2_5  and  N3_7 
REMARK       I    between atoms: N4_10  and  C3_12 
REMARK    2  A    between atoms: C3_12  and  C4_14 
REMARK    3  A    between atoms: C4_14  and  N5_16 
ROOT
HETATM    1  C1  UNL     1      27.313  46.866  -0.621  1.00  0.00     0.165 C 
HETATM    2  N1  UNL     1      26.753  47.340  -1.884  1.00  0.00    -0.229 N 
ATOM      3  H1  UNL     1      25.881  46.958  -2.250  1.00  0.00     0.177 HD
HETATM    4  C2  UNL     1      27.455  48.338  -2.578  1.00  0.00     0.694 C 
HETATM    5  N2  UNL     1      27.322  49.562  -2.237  1.00  0.00    -0.139 N 
ATOM      6  H2  UNL     1      27.833  50.284  -2.743  1.00  0.00     0.205 HD
HETATM    7  N4  UNL     1      28.310  47.986  -3.657  1.00  0.00    -0.157 N 
ATOM      8  H4  UNL     1      28.814  48.722  -4.152  1.00  0.00     0.187 HD
HETATM    9  C3  UNL     1      28.480  46.647  -4.060  1.00  0.00     0.266 C 
HETATM   10  O1  UNL     1      27.867  45.743  -3.459  1.00  0.00    -0.270 OA
ENDROOT
BRANCH   9  11
HETATM   11  C4  UNL     1      29.368  46.288  -5.181  1.00  0.00     0.271 C 
HETATM   12  C5  UNL     1      30.656  47.062  -5.029  1.00  0.00     0.050 C 
BRANCH  11  13
HETATM   13  N5  UNL     1      29.611  44.860  -5.172  1.00  0.00    -0.067 N 
ATOM     14  H53 UNL     1      29.098  44.378  -5.910  1.00  0.00     0.275 HD
ATOM     15  H52 UNL     1      30.557  44.629  -5.475  1.00  0.00     0.275 HD
ATOM     16  H51 UNL     1      29.400  44.482  -4.248  1.00  0.00     0.275 HD
ENDBRANCH  11  13
ENDBRANCH   9  11
BRANCH   5  17
HETATM   17  N3  UNL     1      26.492  49.918  -1.186  1.00  0.00    -0.331 N 
ATOM     18  H32 UNL     1      25.537  50.207  -1.395  1.00  0.00     0.177 HD
ATOM     19  H31 UNL     1      26.829  49.892  -0.224  1.00  0.00     0.177 HD
ENDBRANCH   5  17
TORSDOF 3
ENDMDL
MODEL 5
REMARK VINA RESULT: -5.695994193      2.413      2.654
REMARK  3 active torsions:
REMARK  status: ('A' for Active; 'I' for Inactive)
REMARK       I    between atoms: N1_2  and  C2_4 
REMARK       I    between atoms: C2_4  and  N4_10 
REMARK    1  A    between atoms: N2_5  and  N3_7 
REMARK       I    between atoms: N4_10  and  C3_12 
REMARK    2  A    between atoms: C3_12  and  C4_14 
REMARK    3  A    between atoms: C4_14  and  N5_16 
ROOT
HETATM    1  C1  UNL     1      26.733  48.473  -1.883  1.00  0.00     0.165 C 
HETATM    2  N1  UNL     1      28.052  47.893  -1.644  1.00  0.00    -0.229 N 
ATOM      3  H1  UNL     1      28.803  48.446  -1.232  1.00  0.00     0.177 HD
HETATM    4  C2  UNL     1      28.252  46.551  -2.002  1.00  0.00     0.694 C 
HETATM    5  N2  UNL     1      27.870  45.621  -1.214  1.00  0.00    -0.139 N 
ATOM      6  H2  UNL     1      28.017  44.646  -1.477  1.00  0.00     0.205 HD
HETATM    7  N4  UNL     1      28.878  46.230  -3.236  1.00  0.00    -0.157 N 
ATOM      8  H4  UNL     1      29.017  45.250  -3.483  1.00  0.00     0.187 HD
HETATM    9  C3  UNL     1      29.312  47.230  -4.129  1.00  0.00     0.266 C 
HETATM   10  O1  UNL     1      29.145  48.430  -3.833  1.00  0.00    -0.270 OA
ENDROOT
BRANCH   9  11
HETATM   11  C4  UNL     1      29.961  46.891  -5.407  1.00  0.00     0.271 C 
HETATM   12  C5  UNL     1      31.386  47.389  -5.360  1.00  0.00     0.050 C 
BRANCH  11  13
HETATM   13  N5  UNL     1      29.914  45.458  -5.612  1.00  0.00    -0.067 N 
ATOM     14  H53 UNL     1      30.611  45.142  -6.286  1.00  0.00     0.275 HD
ATOM     15  H52 UNL     1      30.251  44.942  -4.799  1.00  0.00     0.275 HD
ATOM     16  H51 UNL     1      28.969  45.180  -5.878  1.00  0.00     0.275 HD
ENDBRANCH  11  13
ENDBRANCH   9  11
BRANCH   5  17
HETATM   17  N3  UNL     1      27.258  45.920  -0.008  1.00  0.00    -0.331 N 
ATOM     18  H32 UNL     1      27.147  46.900   0.253  1.00  0.00     0.177 HD
ATOM     19  H31 UNL     1      26.924  45.177   0.606  1.00  0.00     0.177 HD
ENDBRANCH   5  17
TORSDOF 3
ENDMDL
