MODEL 1
REMARK VINA RESULT: -6.245476202      0.000      0.000
REMARK  4 active torsions:
REMARK  status: ('A' for Active; 'I' for Inactive)
REMARK    1  A    between atoms: O1_2  and  C2_3 
REMARK    2  A    between atoms: C2_3  and  C3_5 
REMARK    3  A    between atoms: C3_5  and  N1_6 
REMARK    4  A    between atoms: C3_5  and  C4_10 
REMARK       I    between atoms: N3_12  and  C5_14 
ROOT
HETATM    1  C3  UNL     1      29.904  47.631  -3.472  1.00  0.00     0.346 C 
ENDROOT
BRANCH   1   2
HETATM    2  C2  UNL     1      29.247  46.653  -4.353  1.00  0.00     0.296 C 
HETATM    3  O2  UNL     1      27.993  46.620  -4.378  1.00  0.00    -0.262 OA
BRANCH   2   4
HETATM    4  O1  UNL     1      29.929  45.760  -5.163  1.00  0.00    -0.325 OA
HETATM    5  C1  UNL     1      29.572  45.649  -6.539  1.00  0.00     0.213 C 
ENDBRANCH   2   4
ENDBRANCH   1   2
BRANCH   1   6
HETATM    6  N1  UNL     1      29.484  48.954  -3.896  1.00  0.00    -0.059 N 
ATOM      7  H13 UNL     1      30.256  49.525  -4.241  1.00  0.00     0.275 HD
ATOM      8  H12 UNL     1      28.934  48.940  -4.755  1.00  0.00     0.275 HD
ATOM      9  H11 UNL     1      28.989  49.385  -3.115  1.00  0.00     0.275 HD
ENDBRANCH   1   6
BRANCH   1  10
HETATM   10  C4  UNL     1      29.546  47.482  -2.057  1.00  0.00     0.136 C 
HETATM   11  N2  UNL     1      30.059  48.397  -1.116  1.00  0.00    -0.085 NA
HETATM   12  N3  UNL     1      28.779  46.530  -1.692  1.00  0.00    -0.321 N 
HETATM   13  C5  UNL     1      28.369  46.289  -0.361  1.00  0.00     0.186 C 
ATOM     14  H3  UNL     1      28.437  45.897  -2.415  1.00  0.00     0.169 HD
HETATM   15  N4  UNL     1      27.147  45.950  -0.150  1.00  0.00    -0.373 N 
HETATM   16  N5  UNL     1      29.247  46.407   0.733  1.00  0.00    -0.064 NA
ATOM     17  H42 UNL     1      26.510  45.864  -0.943  1.00  0.00     0.158 HD
ATOM     18  H41 UNL     1      26.851  45.776   0.811  1.00  0.00     0.158 HD
ENDBRANCH   1  10
TORSDOF 4
ENDMDL
MODEL 2
REMARK VINA RESULT: -6.150861901      2.595      4.450
REMARK  4 active torsions:
REMARK  status: ('A' for Active; 'I' for Inactive)
REMARK    1  A    between atoms: O1_2  and  C2_3 
REMARK    2  A    between atoms: C2_3  and  C3_5 
REMARK    3  A    between atoms: C3_5  and  N1_6 
REMARK    4  A    between atoms: C3_5  and  C4_10 
REMARK       I    between atoms: N3_12  and  C5_14 
ROOT
HETATM    1  C3  UNL     1      28.525  47.021  -0.798  1.00  0.00     0.346 C 
ENDROOT
BRANCH   1   2
HETATM    2  C2  UNL     1      27.554  48.115  -0.639  1.00  0.00     0.296 C 
HETATM    3  O2  UNL     1      27.723  48.931   0.299  1.00  0.00    -0.262 OA
BRANCH   2   4
HETATM    4  O1  UNL     1      26.458  48.304  -1.465  1.00  0.00    -0.325 OA
HETATM    5  C1  UNL     1      26.388  49.473  -2.279  1.00  0.00     0.213 C 
ENDBRANCH   2   4
ENDBRANCH   1   2
BRANCH   1   6
HETATM    6  N1  UNL     1      27.790  45.771  -0.735  1.00  0.00    -0.059 N 
ATOM      7  H13 UNL     1      26.844  45.884  -0.370  1.00  0.00     0.275 HD
ATOM      8  H12 UNL     1      27.536  45.412  -1.655  1.00  0.00     0.275 HD
ATOM      9  H11 UNL     1      28.349  45.112  -0.193  1.00  0.00     0.275 HD
ENDBRANCH   1   6
BRANCH   1  10
HETATM   10  C4  UNL     1      29.242  47.053  -2.078  1.00  0.00     0.136 C 
HETATM   11  N2  UNL     1      30.450  47.773  -2.173  1.00  0.00    -0.085 NA
HETATM   12  N3  UNL     1      28.770  46.433  -3.087  1.00  0.00    -0.321 N 
HETATM   13  C5  UNL     1      29.372  46.394  -4.366  1.00  0.00     0.186 C 
ATOM     14  H3  UNL     1      27.892  45.928  -2.962  1.00  0.00     0.169 HD
HETATM   15  N4  UNL     1      29.375  45.280  -5.007  1.00  0.00    -0.373 N 
HETATM   16  N5  UNL     1      29.965  47.528  -4.956  1.00  0.00    -0.064 NA
ATOM     17  H42 UNL     1      28.946  44.459  -4.580  1.00  0.00     0.158 HD
ATOM     18  H41 UNL     1      29.810  45.253  -5.929  1.00  0.00     0.158 HD
ENDBRANCH   1  10
TORSDOF 4
ENDMDL
MODEL 3
REMARK VINA RESULT: -5.979206334      3.155      4.747
REMARK  4 active torsions:
REMARK  status: ('A' for Active; 'I' for Inactive)
REMARK    1  A    between atoms: O1_2  and  C2_3 
REMARK    2  A    between atoms: C2_3  and  C3_5 
REMARK    3  A    between atoms: C3_5  and  N1_6 
REMARK    4  A    between atoms: C3_5  and  C4_10 
REMARK       I    between atoms: N3_12  and  C5_14 
ROOT
HETATM    1  C3  UNL     1      27.057  48.414  -1.669  1.00  0.00     0.346 C 
ENDROOT
BRANCH   1   2
HETATM    2  C2  UNL     1      27.749  48.307  -0.375  1.00  0.00     0.296 C 
HETATM    3  O2  UNL     1      27.609  49.237   0.455  1.00  0.00    -0.262 OA
BRANCH   2   4
HETATM    4  O1  UNL     1      28.550  47.237  -0.012  1.00  0.00    -0.325 OA
HETATM    5  C1  UNL     1      28.030  45.912  -0.098  1.00  0.00     0.213 C 
ENDBRANCH   2   4
ENDBRANCH   1   2
BRANCH   1   6
HETATM    6  N1  UNL     1      26.608  49.787  -1.813  1.00  0.00    -0.059 N 
ATOM      7  H13 UNL     1      26.983  50.405  -1.093  1.00  0.00     0.275 HD
ATOM      8  H12 UNL     1      27.019  50.257  -2.620  1.00  0.00     0.275 HD
ATOM      9  H11 UNL     1      25.588  49.776  -1.837  1.00  0.00     0.275 HD
ENDBRANCH   1   6
BRANCH   1  10
HETATM   10  C4  UNL     1      27.910  48.100  -2.820  1.00  0.00     0.136 C 
HETATM   11  N2  UNL     1      27.510  47.093  -3.721  1.00  0.00    -0.085 NA
HETATM   12  N3  UNL     1      29.002  48.737  -2.994  1.00  0.00    -0.321 N 
HETATM   13  C5  UNL     1      29.901  48.520  -4.064  1.00  0.00     0.186 C 
ATOM     14  H3  UNL     1      29.243  49.455  -2.312  1.00  0.00     0.169 HD
HETATM   15  N4  UNL     1      30.440  49.542  -4.627  1.00  0.00    -0.373 N 
HETATM   16  N5  UNL     1      30.224  47.230  -4.529  1.00  0.00    -0.064 NA
ATOM     17  H42 UNL     1      30.206  50.477  -4.290  1.00  0.00     0.158 HD
ATOM     18  H41 UNL     1      31.088  49.385  -5.398  1.00  0.00     0.158 HD
ENDBRANCH   1  10
TORSDOF 4
ENDMDL
MODEL 4
REMARK VINA RESULT: -5.921950501      2.290      4.012
REMARK  4 active torsions:
REMARK  status: ('A' for Active; 'I' for Inactive)
REMARK    1  A    between atoms: O1_2  and  C2_3 
REMARK    2  A    between atoms: C2_3  and  C3_5 
REMARK    3  A    between atoms: C3_5  and  N1_6 
REMARK    4  A    between atoms: C3_5  and  C4_10 
REMARK       I    between atoms: N3_12  and  C5_14 
ROOT
HETATM    1  C3  UNL     1      27.891  46.822  -0.847  1.00  0.00     0.346 C 
ENDROOT
BRANCH   1   2
HETATM    2  C2  UNL     1      27.005  47.070  -1.996  1.00  0.00     0.296 C 
HETATM    3  O2  UNL     1      27.179  46.395  -3.039  1.00  0.00    -0.262 OA
BRANCH   2   4
HETATM    4  O1  UNL     1      25.984  48.006  -1.999  1.00  0.00    -0.325 OA
HETATM    5  C1  UNL     1      26.231  49.309  -2.522  1.00  0.00     0.213 C 
ENDBRANCH   2   4
ENDBRANCH   1   2
BRANCH   1   6
HETATM    6  N1  UNL     1      27.950  45.387  -0.641  1.00  0.00    -0.059 N 
ATOM      7  H13 UNL     1      27.622  45.104   0.283  1.00  0.00     0.275 HD
ATOM      8  H12 UNL     1      27.258  44.877  -1.190  1.00  0.00     0.275 HD
ATOM      9  H11 UNL     1      28.907  45.088  -0.831  1.00  0.00     0.275 HD
ENDBRANCH   1   6
BRANCH   1  10
HETATM   10  C4  UNL     1      29.263  47.301  -1.049  1.00  0.00     0.136 C 
HETATM   11  N2  UNL     1      30.023  47.707   0.066  1.00  0.00    -0.085 NA
HETATM   12  N3  UNL     1      29.754  47.346  -2.225  1.00  0.00    -0.321 N 
HETATM   13  C5  UNL     1      31.060  47.788  -2.539  1.00  0.00     0.186 C 
ATOM     14  H3  UNL     1      29.160  47.040  -2.996  1.00  0.00     0.169 HD
HETATM   15  N4  UNL     1      31.731  47.136  -3.420  1.00  0.00    -0.373 N 
HETATM   16  N5  UNL     1      31.645  48.911  -1.923  1.00  0.00    -0.064 NA
ATOM     17  H42 UNL     1      31.307  46.322  -3.867  1.00  0.00     0.158 HD
ATOM     18  H41 UNL     1      32.673  47.455  -3.646  1.00  0.00     0.158 HD
ENDBRANCH   1  10
TORSDOF 4
ENDMDL
MODEL 5
REMARK VINA RESULT: -5.913840707      2.468      4.247
REMARK  4 active torsions:
REMARK  status: ('A' for Active; 'I' for Inactive)
REMARK    1  A    between atoms: O1_2  and  C2_3 
REMARK    2  A    between atoms: C2_3  and  C3_5 
REMARK    3  A    between atoms: C3_5  and  N1_6 
REMARK    4  A    between atoms: C3_5  and  C4_10 
REMARK       I    between atoms: N3_12  and  C5_14 
ROOT
HETATM    1  C3  UNL     1      28.365  48.250  -0.421  1.00  0.00     0.346 C 
ENDROOT
BRANCH   1   2
HETATM    2  C2  UNL     1      27.072  48.115  -1.113  1.00  0.00     0.296 C 
HETATM    3  O2  UNL     1      26.608  46.963  -1.288  1.00  0.00    -0.262 OA
BRANCH   2   4
HETATM    4  O1  UNL     1      26.332  49.186  -1.585  1.00  0.00    -0.325 OA
HETATM    5  C1  UNL     1      26.047  49.280  -2.979  1.00  0.00     0.213 C 
ENDBRANCH   2   4
ENDBRANCH   1   2
BRANCH   1   6
HETATM    6  N1  UNL     1      28.486  47.137   0.502  1.00  0.00    -0.059 N 
ATOM      7  H13 UNL     1      27.972  46.310   0.196  1.00  0.00     0.275 HD
ATOM      8  H12 UNL     1      29.417  46.722   0.504  1.00  0.00     0.275 HD
ATOM      9  H11 UNL     1      28.196  47.468   1.422  1.00  0.00     0.275 HD
ENDBRANCH   1   6
BRANCH   1  10
HETATM   10  C4  UNL     1      29.521  48.210  -1.324  1.00  0.00     0.136 C 
HETATM   11  N2  UNL     1      30.751  48.744  -0.892  1.00  0.00    -0.085 NA
HETATM   12  N3  UNL     1      29.404  47.695  -2.484  1.00  0.00    -0.321 N 
HETATM   13  C5  UNL     1      30.446  47.602  -3.436  1.00  0.00     0.186 C 
ATOM     14  H3  UNL     1      28.491  47.323  -2.746  1.00  0.00     0.169 HD
HETATM   15  N4  UNL     1      30.556  46.518  -4.117  1.00  0.00    -0.373 N 
HETATM   16  N5  UNL     1      31.360  48.650  -3.659  1.00  0.00    -0.064 NA
ATOM     17  H42 UNL     1      29.894  45.758  -3.956  1.00  0.00     0.158 HD
ATOM     18  H41 UNL     1      31.309  46.451  -4.803  1.00  0.00     0.158 HD
ENDBRANCH   1  10
TORSDOF 4
ENDMDL
