MODEL 1
REMARK VINA RESULT: -5.468679781      0.000      0.000
REMARK  3 active torsions:
REMARK  status: ('A' for Active; 'I' for Inactive)
REMARK    1  A    between atoms: N1_1  and  N2_4 
REMARK    2  A    between atoms: N2_4  and  C1_6 
REMARK    3  A    between atoms: C4_15  and  N6_16 
ROOT
HETATM    1  C1  UNL     1      34.580  26.581  14.834  1.00  0.00     0.712 A 
HETATM    2  N3  UNL     1      34.600  27.853  14.639  1.00  0.00    -0.172 N 
ATOM      3  H3  UNL     1      34.996  28.440  15.373  1.00  0.00     0.186 HD
HETATM    4  C2  UNL     1      34.110  28.499  13.471  1.00  0.00     0.154 A 
HETATM    5  N4  UNL     1      34.149  29.829  13.304  1.00  0.00    -0.336 N 
ATOM      6  H4  UNL     1      34.547  30.404  14.047  1.00  0.00     0.168 HD
HETATM    7  C3  UNL     1      33.684  30.435  12.200  1.00  0.00     0.183 A 
HETATM    8  N5  UNL     1      33.148  29.743  11.184  1.00  0.00    -0.337 N 
ATOM      9  H5  UNL     1      32.801  30.221  10.353  1.00  0.00     0.168 HD
HETATM   10  C4  UNL     1      33.077  28.376  11.289  1.00  0.00     0.132 A 
HETATM   11  C5  UNL     1      33.554  27.755  12.424  1.00  0.00     0.137 A 
HETATM   12  N7  UNL     1      33.532  26.352  12.641  1.00  0.00    -0.280 N 
ATOM     13  H7  UNL     1      33.140  25.748  11.918  1.00  0.00     0.188 HD
HETATM   14  N8  UNL     1      34.033  25.761  13.818  1.00  0.00    -0.130 N 
ATOM     15  H8  UNL     1      34.001  24.749  13.937  1.00  0.00     0.205 HD
ENDROOT
BRANCH   1  16
HETATM   16  N2  UNL     1      35.098  25.999  16.047  1.00  0.00    -0.137 N 
ATOM     17  H2  UNL     1      36.051  25.638  16.083  1.00  0.00     0.205 HD
BRANCH  16  18
HETATM   18  N1  UNL     1      34.336  25.944  17.085  1.00  0.00    -0.331 N 
ATOM     19  H12 UNL     1      34.476  26.604  17.849  1.00  0.00     0.177 HD
ATOM     20  H11 UNL     1      33.603  25.235  17.119  1.00  0.00     0.177 HD
ENDBRANCH  16  18
ENDBRANCH   1  16
BRANCH  10  21
HETATM   21  N6  UNL     1      32.568  27.702  10.331  1.00  0.00    -0.383 N 
ATOM     22  H62 UNL     1      31.959  28.141   9.641  1.00  0.00     0.157 HD
ATOM     23  H61 UNL     1      32.778  26.707  10.254  1.00  0.00     0.157 HD
ENDBRANCH  10  21
TORSDOF 3
ENDMDL
MODEL 2
REMARK VINA RESULT: -5.176340949      1.175      1.189
REMARK  3 active torsions:
REMARK  status: ('A' for Active; 'I' for Inactive)
REMARK    1  A    between atoms: N1_1  and  N2_4 
REMARK    2  A    between atoms: N2_4  and  C1_6 
REMARK    3  A    between atoms: C4_15  and  N6_16 
ROOT
HETATM    1  C1  UNL     1      34.203  26.659  14.920  1.00  0.00     0.712 A 
HETATM    2  N3  UNL     1      33.452  27.700  14.815  1.00  0.00    -0.172 N 
ATOM      3  H3  UNL     1      32.908  27.976  15.632  1.00  0.00     0.186 HD
HETATM    4  C2  UNL     1      33.326  28.490  13.640  1.00  0.00     0.154 A 
HETATM    5  N4  UNL     1      32.532  29.568  13.570  1.00  0.00    -0.336 N 
ATOM      6  H4  UNL     1      31.994  29.834  14.394  1.00  0.00     0.168 HD
HETATM    7  C3  UNL     1      32.416  30.311  12.458  1.00  0.00     0.183 A 
HETATM    8  N5  UNL     1      33.092  30.022  11.338  1.00  0.00    -0.337 N 
ATOM      9  H5  UNL     1      32.991  30.599  10.503  1.00  0.00     0.168 HD
HETATM   10  C4  UNL     1      33.925  28.929  11.339  1.00  0.00     0.132 A 
HETATM   11  C5  UNL     1      34.042  28.167  12.482  1.00  0.00     0.137 A 
HETATM   12  N7  UNL     1      34.870  27.019  12.599  1.00  0.00    -0.280 N 
ATOM     13  H7  UNL     1      35.421  26.725  11.792  1.00  0.00     0.188 HD
HETATM   14  N8  UNL     1      34.960  26.270  13.789  1.00  0.00    -0.130 N 
ATOM     15  H8  UNL     1      35.567  25.451  13.834  1.00  0.00     0.205 HD
ENDROOT
BRANCH   1  16
HETATM   16  N2  UNL     1      34.278  25.908  16.147  1.00  0.00    -0.137 N 
ATOM     17  H2  UNL     1      33.452  25.442  16.522  1.00  0.00     0.205 HD
BRANCH  16  18
HETATM   18  N1  UNL     1      35.408  25.836  16.764  1.00  0.00    -0.331 N 
ATOM     19  H12 UNL     1      35.762  24.928  17.063  1.00  0.00     0.177 HD
ATOM     20  H11 UNL     1      35.927  26.696  16.940  1.00  0.00     0.177 HD
ENDBRANCH  16  18
ENDBRANCH   1  16
BRANCH  10  21
HETATM   21  N6  UNL     1      34.576  28.639  10.280  1.00  0.00    -0.383 N 
ATOM     22  H62 UNL     1      35.596  28.666  10.263  1.00  0.00     0.157 HD
ATOM     23  H61 UNL     1      34.067  28.374   9.438  1.00  0.00     0.157 HD
ENDBRANCH  10  21
TORSDOF 3
ENDMDL
MODEL 3
REMARK VINA RESULT: -3.863770329      0.916      2.320
REMARK  3 active torsions:
REMARK  status: ('A' for Active; 'I' for Inactive)
REMARK    1  A    between atoms: N1_1  and  N2_4 
REMARK    2  A    between atoms: N2_4  and  C1_6 
REMARK    3  A    between atoms: C4_15  and  N6_16 
ROOT
HETATM    1  C1  UNL     1      34.320  27.005  14.382  1.00  0.00     0.712 A 
HETATM    2  N3  UNL     1      33.807  26.736  13.232  1.00  0.00    -0.172 N 
ATOM      3  H3  UNL     1      33.626  25.757  13.010  1.00  0.00     0.186 HD
HETATM    4  C2  UNL     1      33.473  27.708  12.250  1.00  0.00     0.154 A 
HETATM    5  N4  UNL     1      32.940  27.389  11.062  1.00  0.00    -0.336 N 
ATOM      6  H4  UNL     1      32.765  26.406  10.852  1.00  0.00     0.168 HD
HETATM    7  C3  UNL     1      32.627  28.311  10.137  1.00  0.00     0.183 A 
HETATM    8  N5  UNL     1      32.829  29.619  10.343  1.00  0.00    -0.337 N 
ATOM      9  H5  UNL     1      32.584  30.304   9.628  1.00  0.00     0.168 HD
HETATM   10  C4  UNL     1      33.373  30.017  11.540  1.00  0.00     0.132 A 
HETATM   11  C5  UNL     1      33.694  29.070  12.488  1.00  0.00     0.137 A 
HETATM   12  N7  UNL     1      34.261  29.364  13.757  1.00  0.00    -0.280 N 
ATOM     13  H7  UNL     1      34.449  30.338  13.998  1.00  0.00     0.188 HD
HETATM   14  N8  UNL     1      34.572  28.361  14.697  1.00  0.00    -0.130 N 
ATOM     15  H8  UNL     1      34.977  28.612  15.599  1.00  0.00     0.205 HD
ENDROOT
BRANCH   1  16
HETATM   16  N2  UNL     1      34.630  25.962  15.327  1.00  0.00    -0.137 N 
ATOM     17  H2  UNL     1      35.107  25.113  15.025  1.00  0.00     0.205 HD
BRANCH  16  18
HETATM   18  N1  UNL     1      34.294  26.121  16.561  1.00  0.00    -0.331 N 
ATOM     19  H12 UNL     1      33.311  26.248  16.804  1.00  0.00     0.177 HD
ATOM     20  H11 UNL     1      35.023  26.117  17.274  1.00  0.00     0.177 HD
ENDBRANCH  16  18
ENDBRANCH   1  16
BRANCH  10  21
HETATM   21  N6  UNL     1      33.573  31.260  11.752  1.00  0.00    -0.383 N 
ATOM     22  H62 UNL     1      33.326  31.690  12.644  1.00  0.00     0.157 HD
ATOM     23  H61 UNL     1      33.987  31.832  11.017  1.00  0.00     0.157 HD
ENDBRANCH  10  21
TORSDOF 3
ENDMDL
MODEL 4
REMARK VINA RESULT: -3.372894906     11.835     13.278
REMARK  3 active torsions:
REMARK  status: ('A' for Active; 'I' for Inactive)
REMARK    1  A    between atoms: N1_1  and  N2_4 
REMARK    2  A    between atoms: N2_4  and  C1_6 
REMARK    3  A    between atoms: C4_15  and  N6_16 
ROOT
HETATM    1  C1  UNL     1      33.500  35.812   3.923  1.00  0.00     0.712 A 
HETATM    2  N3  UNL     1      34.384  34.914   4.189  1.00  0.00    -0.172 N 
ATOM      3  H3  UNL     1      34.055  34.013   4.537  1.00  0.00     0.186 HD
HETATM    4  C2  UNL     1      35.786  35.089   4.033  1.00  0.00     0.154 A 
HETATM    5  N4  UNL     1      36.676  34.128   4.322  1.00  0.00    -0.336 N 
ATOM      6  H4  UNL     1      36.334  33.232   4.669  1.00  0.00     0.168 HD
HETATM    7  C3  UNL     1      37.999  34.298   4.174  1.00  0.00     0.183 A 
HETATM    8  N5  UNL     1      38.520  35.448   3.724  1.00  0.00    -0.337 N 
ATOM      9  H5  UNL     1      39.529  35.557   3.617  1.00  0.00     0.168 HD
HETATM   10  C4  UNL     1      37.665  36.476   3.409  1.00  0.00     0.132 A 
HETATM   11  C5  UNL     1      36.306  36.300   3.562  1.00  0.00     0.137 A 
HETATM   12  N7  UNL     1      35.331  37.289   3.269  1.00  0.00    -0.280 N 
ATOM     13  H7  UNL     1      35.640  38.197   2.921  1.00  0.00     0.188 HD
HETATM   14  N8  UNL     1      33.950  37.064   3.440  1.00  0.00    -0.130 N 
ATOM     15  H8  UNL     1      33.280  37.799   3.218  1.00  0.00     0.205 HD
ENDROOT
BRANCH   1  16
HETATM   16  N2  UNL     1      32.094  35.558   4.106  1.00  0.00    -0.137 N 
ATOM     17  H2  UNL     1      31.674  35.606   5.035  1.00  0.00     0.205 HD
BRANCH  16  18
HETATM   18  N1  UNL     1      31.374  35.270   3.076  1.00  0.00    -0.331 N 
ATOM     19  H12 UNL     1      31.021  34.321   2.958  1.00  0.00     0.177 HD
ATOM     20  H11 UNL     1      31.173  36.004   2.397  1.00  0.00     0.177 HD
ENDBRANCH  16  18
ENDBRANCH   1  16
BRANCH  10  21
HETATM   21  N6  UNL     1      38.145  37.578   2.979  1.00  0.00    -0.383 N 
ATOM     22  H62 UNL     1      38.692  38.188   3.586  1.00  0.00     0.157 HD
ATOM     23  H61 UNL     1      37.979  37.851   2.011  1.00  0.00     0.157 HD
ENDBRANCH  10  21
TORSDOF 3
ENDMDL
MODEL 5
REMARK VINA RESULT: -2.714887502      1.201      5.025
REMARK  3 active torsions:
REMARK  status: ('A' for Active; 'I' for Inactive)
REMARK    1  A    between atoms: N1_1  and  N2_4 
REMARK    2  A    between atoms: N2_4  and  C1_6 
REMARK    3  A    between atoms: C4_15  and  N6_16 
ROOT
HETATM    1  C1  UNL     1      33.058  29.549  11.642  1.00  0.00     0.712 A 
HETATM    2  N3  UNL     1      32.809  28.287  11.694  1.00  0.00    -0.172 N 
ATOM      3  H3  UNL     1      32.202  27.893  10.975  1.00  0.00     0.186 HD
HETATM    4  C2  UNL     1      33.322  27.402  12.682  1.00  0.00     0.154 A 
HETATM    5  N4  UNL     1      33.039  26.092  12.702  1.00  0.00    -0.336 N 
ATOM      6  H4  UNL     1      32.430  25.711  11.979  1.00  0.00     0.168 HD
HETATM    7  C3  UNL     1      33.525  25.260  13.638  1.00  0.00     0.183 A 
HETATM    8  N5  UNL     1      34.331  25.690  14.619  1.00  0.00    -0.337 N 
ATOM      9  H5  UNL     1      34.691  25.043  15.320  1.00  0.00     0.168 HD
HETATM   10  C4  UNL     1      34.662  27.023  14.658  1.00  0.00     0.132 A 
HETATM   11  C5  UNL     1      34.161  27.875  13.697  1.00  0.00     0.137 A 
HETATM   12  N7  UNL     1      34.435  29.268  13.639  1.00  0.00    -0.280 N 
ATOM     13  H7  UNL     1      35.041  29.680  14.349  1.00  0.00     0.188 HD
HETATM   14  N8  UNL     1      33.902  30.101  12.636  1.00  0.00    -0.130 N 
ATOM     15  H8  UNL     1      34.122  31.097  12.626  1.00  0.00     0.205 HD
ENDROOT
BRANCH   1  16
HETATM   16  N2  UNL     1      32.501  30.382  10.606  1.00  0.00    -0.137 N 
ATOM     17  H2  UNL     1      32.087  31.286  10.834  1.00  0.00     0.205 HD
BRANCH  16  18
HETATM   18  N1  UNL     1      32.535  29.964   9.387  1.00  0.00    -0.331 N 
ATOM     19  H12 UNL     1      32.706  30.627   8.632  1.00  0.00     0.177 HD
ATOM     20  H11 UNL     1      32.388  28.972   9.203  1.00  0.00     0.177 HD
ENDBRANCH  16  18
ENDBRANCH   1  16
BRANCH  10  21
HETATM   21  N6  UNL     1      35.428  27.449  15.586  1.00  0.00    -0.383 N 
ATOM     22  H62 UNL     1      36.433  27.273  15.564  1.00  0.00     0.157 HD
ATOM     23  H61 UNL     1      35.028  27.975  16.362  1.00  0.00     0.157 HD
ENDBRANCH  10  21
TORSDOF 3
ENDMDL
