MODEL 1
REMARK VINA RESULT: -5.602979051      0.000      0.000
REMARK  2 active torsions:
REMARK  status: ('A' for Active; 'I' for Inactive)
REMARK    1  A    between atoms: N1_1  and  N2_4 
REMARK    2  A    between atoms: N2_4  and  C1_6 
ROOT
HETATM    1  C1  UNL     1      34.351  26.989  14.431  1.00  0.00     0.121 A 
HETATM    2  C2  UNL     1      34.728  27.160  13.113  1.00  0.00     0.067 A 
HETATM    3  C3  UNL     1      34.034  28.229  12.570  1.00  0.00     0.045 A 
HETATM    4  C4  UNL     1      33.972  28.868  11.358  1.00  0.00     0.117 A 
HETATM    5  N3  UNL     1      34.697  28.582  10.142  1.00  0.00    -0.092 NA
HETATM    6  S1  UNL     1      32.815  30.097  11.645  1.00  0.00     0.003 SA
HETATM    7  N4  UNL     1      32.470  29.753  13.252  1.00  0.00    -0.310 N 
ATOM      8  H4  UNL     1      31.815  30.236  13.868  1.00  0.00     0.176 HD
HETATM    9  C5  UNL     1      33.247  28.702  13.543  1.00  0.00     0.126 A 
HETATM   10  N5  UNL     1      33.442  27.950  14.665  1.00  0.00    -0.326 N 
ATOM     11  H5  UNL     1      32.965  28.097  15.555  1.00  0.00     0.169 HD
ENDROOT
BRANCH   1  12
HETATM   12  N2  UNL     1      34.828  25.995  15.358  1.00  0.00    -0.292 N 
ATOM     13  H2  UNL     1      35.464  25.263  15.042  1.00  0.00     0.188 HD
BRANCH  12  14
HETATM   14  N1  UNL     1      34.414  26.040  16.698  1.00  0.00    -0.344 N 
ATOM     15  H12 UNL     1      33.795  26.791  17.003  1.00  0.00     0.176 HD
ATOM     16  H11 UNL     1      34.735  25.323  17.349  1.00  0.00     0.176 HD
ENDBRANCH  12  14
ENDBRANCH   1  12
TORSDOF 2
ENDMDL
MODEL 2
REMARK VINA RESULT: -5.430049917      1.127      2.177
REMARK  2 active torsions:
REMARK  status: ('A' for Active; 'I' for Inactive)
REMARK    1  A    between atoms: N1_1  and  N2_4 
REMARK    2  A    between atoms: N2_4  and  C1_6 
ROOT
HETATM    1  C1  UNL     1      34.521  26.843  14.261  1.00  0.00     0.121 A 
HETATM    2  C2  UNL     1      33.597  27.858  14.417  1.00  0.00     0.067 A 
HETATM    3  C3  UNL     1      33.304  28.409  13.180  1.00  0.00     0.045 A 
HETATM    4  C4  UNL     1      32.497  29.406  12.695  1.00  0.00     0.117 A 
HETATM    5  N3  UNL     1      31.606  30.284  13.418  1.00  0.00    -0.092 NA
HETATM    6  S1  UNL     1      32.808  29.352  11.013  1.00  0.00     0.003 SA
HETATM    7  N4  UNL     1      33.923  28.096  10.999  1.00  0.00    -0.310 N 
ATOM      8  H4  UNL     1      34.405  27.697  10.194  1.00  0.00     0.176 HD
HETATM    9  C5  UNL     1      34.039  27.738  12.285  1.00  0.00     0.126 A 
HETATM   10  N5  UNL     1      34.771  26.793  12.943  1.00  0.00    -0.326 N 
ATOM     11  H5  UNL     1      35.418  26.142  12.497  1.00  0.00     0.169 HD
ENDROOT
BRANCH   1  12
HETATM   12  N2  UNL     1      35.093  26.013  15.290  1.00  0.00    -0.292 N 
ATOM     13  H2  UNL     1      35.914  25.441  15.090  1.00  0.00     0.188 HD
BRANCH  12  14
HETATM   14  N1  UNL     1      34.517  25.995  16.569  1.00  0.00    -0.344 N 
ATOM     15  H12 UNL     1      34.887  26.615  17.290  1.00  0.00     0.176 HD
ATOM     16  H11 UNL     1      33.738  25.366  16.763  1.00  0.00     0.176 HD
ENDBRANCH  12  14
ENDBRANCH   1  12
TORSDOF 2
ENDMDL
MODEL 3
REMARK VINA RESULT: -4.658444221      1.646      2.018
REMARK  2 active torsions:
REMARK  status: ('A' for Active; 'I' for Inactive)
REMARK    1  A    between atoms: N1_1  and  N2_4 
REMARK    2  A    between atoms: N2_4  and  C1_6 
ROOT
HETATM    1  C1  UNL     1      34.923  26.472  15.262  1.00  0.00     0.121 A 
HETATM    2  C2  UNL     1      34.991  27.733  14.702  1.00  0.00     0.067 A 
HETATM    3  C3  UNL     1      34.139  27.800  13.611  1.00  0.00     0.045 A 
HETATM    4  C4  UNL     1      33.776  28.740  12.682  1.00  0.00     0.117 A 
HETATM    5  N3  UNL     1      34.230  30.105  12.547  1.00  0.00    -0.092 NA
HETATM    6  S1  UNL     1      32.646  27.893  11.716  1.00  0.00     0.003 SA
HETATM    7  N4  UNL     1      32.683  26.416  12.515  1.00  0.00    -0.310 N 
ATOM      8  H4  UNL     1      32.156  25.572  12.292  1.00  0.00     0.176 HD
HETATM    9  C5  UNL     1      33.561  26.597  13.510  1.00  0.00     0.126 A 
HETATM   10  N5  UNL     1      34.038  25.799  14.510  1.00  0.00    -0.326 N 
ATOM     11  H5  UNL     1      33.761  24.829  14.663  1.00  0.00     0.169 HD
ENDROOT
BRANCH   1  12
HETATM   12  N2  UNL     1      35.645  25.982  16.408  1.00  0.00    -0.292 N 
ATOM     13  H2  UNL     1      36.663  26.031  16.432  1.00  0.00     0.188 HD
BRANCH  12  14
HETATM   14  N1  UNL     1      34.940  25.437  17.492  1.00  0.00    -0.344 N 
ATOM     15  H12 UNL     1      34.972  24.430  17.650  1.00  0.00     0.176 HD
ATOM     16  H11 UNL     1      34.405  26.051  18.106  1.00  0.00     0.176 HD
ENDBRANCH  12  14
ENDBRANCH   1  12
TORSDOF 2
ENDMDL
MODEL 4
REMARK VINA RESULT: -4.210730780      1.510      2.452
REMARK  2 active torsions:
REMARK  status: ('A' for Active; 'I' for Inactive)
REMARK    1  A    between atoms: N1_1  and  N2_4 
REMARK    2  A    between atoms: N2_4  and  C1_6 
ROOT
HETATM    1  C1  UNL     1      34.263  26.348  15.527  1.00  0.00     0.121 A 
HETATM    2  C2  UNL     1      33.483  27.460  15.272  1.00  0.00     0.067 A 
HETATM    3  C3  UNL     1      33.516  27.745  13.916  1.00  0.00     0.045 A 
HETATM    4  C4  UNL     1      32.969  28.683  13.079  1.00  0.00     0.117 A 
HETATM    5  N3  UNL     1      32.092  29.785  13.399  1.00  0.00    -0.092 NA
HETATM    6  S1  UNL     1      33.586  28.222  11.550  1.00  0.00     0.003 SA
HETATM    7  N4  UNL     1      34.490  26.891  12.030  1.00  0.00    -0.310 N 
ATOM      8  H4  UNL     1      35.054  26.275  11.445  1.00  0.00     0.176 HD
HETATM    9  C5  UNL     1      34.304  26.820  13.355  1.00  0.00     0.126 A 
HETATM   10  N5  UNL     1      34.752  25.979  14.332  1.00  0.00    -0.326 N 
ATOM     11  H5  UNL     1      35.372  25.183  14.176  1.00  0.00     0.169 HD
ENDROOT
BRANCH   1  12
HETATM   12  N2  UNL     1      34.502  25.718  16.799  1.00  0.00    -0.292 N 
ATOM     13  H2  UNL     1      33.720  25.357  17.347  1.00  0.00     0.188 HD
BRANCH  12  14
HETATM   14  N1  UNL     1      35.814  25.602  17.281  1.00  0.00    -0.344 N 
ATOM     15  H12 UNL     1      36.023  25.904  18.233  1.00  0.00     0.176 HD
ATOM     16  H11 UNL     1      36.542  25.218  16.678  1.00  0.00     0.176 HD
ENDBRANCH  12  14
ENDBRANCH   1  12
TORSDOF 2
ENDMDL
MODEL 5
REMARK VINA RESULT: -3.629132436      2.294      4.402
REMARK  2 active torsions:
REMARK  status: ('A' for Active; 'I' for Inactive)
REMARK    1  A    between atoms: N1_1  and  N2_4 
REMARK    2  A    between atoms: N2_4  and  C1_6 
ROOT
HETATM    1  C1  UNL     1      33.051  29.408  11.761  1.00  0.00     0.121 A 
HETATM    2  C2  UNL     1      32.971  28.036  11.900  1.00  0.00     0.067 A 
HETATM    3  C3  UNL     1      33.613  27.653  13.067  1.00  0.00     0.045 A 
HETATM    4  C4  UNL     1      33.864  26.479  13.730  1.00  0.00     0.117 A 
HETATM    5  N3  UNL     1      33.490  25.132  13.365  1.00  0.00    -0.092 NA
HETATM    6  S1  UNL     1      34.735  27.007  15.105  1.00  0.00     0.003 SA
HETATM    7  N4  UNL     1      34.742  28.656  14.785  1.00  0.00    -0.310 N 
ATOM      8  H4  UNL     1      35.160  29.399  15.345  1.00  0.00     0.176 HD
HETATM    9  C5  UNL     1      34.076  28.774  13.629  1.00  0.00     0.126 A 
HETATM   10  N5  UNL     1      33.734  29.832  12.837  1.00  0.00    -0.326 N 
ATOM     11  H5  UNL     1      33.965  30.806  13.034  1.00  0.00     0.169 HD
ENDROOT
BRANCH   1  12
HETATM   12  N2  UNL     1      32.517  30.214  10.694  1.00  0.00    -0.292 N 
ATOM     13  H2  UNL     1      32.077  31.111  10.899  1.00  0.00     0.188 HD
BRANCH  12  14
HETATM   14  N1  UNL     1      32.605  29.759   9.369  1.00  0.00    -0.344 N 
ATOM     15  H12 UNL     1      33.343  30.122   8.766  1.00  0.00     0.176 HD
ATOM     16  H11 UNL     1      31.932  29.073   9.026  1.00  0.00     0.176 HD
ENDBRANCH  12  14
ENDBRANCH   1  12
TORSDOF 2
ENDMDL
