MODEL 1
REMARK VINA RESULT: -4.859725697      0.000      0.000
REMARK  2 active torsions:
REMARK  status: ('A' for Active; 'I' for Inactive)
REMARK    1  A    between atoms: N2_4  and  C1_6 
REMARK    2  A    between atoms: C5_16  and  N6_17 
ROOT
HETATM    1  C1  UNL     1      34.204  27.253  13.670  1.00  0.00     0.698 A 
HETATM    2  N3  UNL     1      34.408  27.301  12.352  1.00  0.00    -0.186 N 
ATOM      3  H3  UNL     1      35.004  26.590  11.927  1.00  0.00     0.184 HD
HETATM    4  C2  UNL     1      33.863  28.244  11.553  1.00  0.00     0.098 A 
HETATM    5  C3  UNL     1      33.940  28.476  10.194  1.00  0.00     0.139 A 
HETATM    6  N4  UNL     1      33.184  29.571   9.948  1.00  0.00    -0.309 N 
ATOM      7  H4  UNL     1      33.040  29.995   9.031  1.00  0.00     0.186 HD
HETATM    8  N5  UNL     1      32.653  30.011  11.100  1.00  0.00    -0.295 N 
ATOM      9  H5  UNL     1      32.042  30.822  11.197  1.00  0.00     0.187 HD
HETATM   10  C4  UNL     1      33.053  29.214  12.104  1.00  0.00     0.121 A 
HETATM   11  C5  UNL     1      32.848  29.155  13.471  1.00  0.00     0.145 A 
HETATM   12  N7  UNL     1      33.416  28.192  14.224  1.00  0.00    -0.173 N 
ATOM     13  H7  UNL     1      33.245  28.176  15.229  1.00  0.00     0.186 HD
ENDROOT
BRANCH   1  14
HETATM   14  N2  UNL     1      34.805  26.229  14.485  1.00  0.00    -0.138 N 
HETATM   15  N1  UNL     1      34.528  26.158  15.728  1.00  0.00    -0.331 N 
ATOM     16  H12 UNL     1      33.878  26.834  16.129  1.00  0.00     0.177 HD
ATOM     17  H11 UNL     1      34.953  25.432  16.305  1.00  0.00     0.177 HD
ATOM     18  H2  UNL     1      35.453  25.560  14.068  1.00  0.00     0.205 HD
ENDBRANCH   1  14
BRANCH  11  19
HETATM   19  N6  UNL     1      32.087  30.071  13.970  1.00  0.00    -0.383 N 
ATOM     20  H62 UNL     1      31.072  30.054  13.876  1.00  0.00     0.157 HD
ATOM     21  H61 UNL     1      32.560  30.824  14.471  1.00  0.00     0.157 HD
ENDBRANCH  11  19
TORSDOF 2
ENDMDL
MODEL 2
REMARK VINA RESULT: -3.806051792      1.312      4.113
REMARK  2 active torsions:
REMARK  status: ('A' for Active; 'I' for Inactive)
REMARK    1  A    between atoms: N2_4  and  C1_6 
REMARK    2  A    between atoms: C5_16  and  N6_17 
ROOT
HETATM    1  C1  UNL     1      32.995  29.164  11.819  1.00  0.00     0.698 A 
HETATM    2  N3  UNL     1      32.848  27.837  11.853  1.00  0.00    -0.186 N 
ATOM      3  H3  UNL     1      32.334  27.387  11.095  1.00  0.00     0.184 HD
HETATM    4  C2  UNL     1      33.347  27.062  12.841  1.00  0.00     0.098 A 
HETATM    5  C3  UNL     1      33.313  25.701  13.069  1.00  0.00     0.139 A 
HETATM    6  N4  UNL     1      33.983  25.488  14.224  1.00  0.00    -0.309 N 
ATOM      7  H4  UNL     1      34.132  24.578  14.661  1.00  0.00     0.186 HD
HETATM    8  N5  UNL     1      34.422  26.662  14.706  1.00  0.00    -0.295 N 
ATOM      9  H5  UNL     1      34.957  26.786  15.565  1.00  0.00     0.187 HD
HETATM   10  C4  UNL     1      34.045  27.649  13.874  1.00  0.00     0.121 A 
HETATM   11  C5  UNL     1      34.192  29.023  13.830  1.00  0.00     0.145 A 
HETATM   12  N7  UNL     1      33.675  29.751  12.821  1.00  0.00    -0.173 N 
ATOM     13  H7  UNL     1      33.800  30.763  12.817  1.00  0.00     0.186 HD
ENDROOT
BRANCH   1  14
HETATM   14  N2  UNL     1      32.447  29.952  10.746  1.00  0.00    -0.138 N 
HETATM   15  N1  UNL     1      32.767  29.696   9.539  1.00  0.00    -0.331 N 
ATOM     16  H12 UNL     1      33.413  28.929   9.350  1.00  0.00     0.177 HD
ATOM     17  H11 UNL     1      32.378  30.254   8.779  1.00  0.00     0.177 HD
ATOM     18  H2  UNL     1      31.802  30.715  10.953  1.00  0.00     0.205 HD
ENDBRANCH   1  14
BRANCH  11  19
HETATM   19  N6  UNL     1      34.850  29.555  14.807  1.00  0.00    -0.383 N 
ATOM     20  H62 UNL     1      35.612  30.216  14.660  1.00  0.00     0.157 HD
ATOM     21  H61 UNL     1      34.563  29.276  15.745  1.00  0.00     0.157 HD
ENDBRANCH  11  19
TORSDOF 2
ENDMDL
MODEL 3
REMARK VINA RESULT: -3.760891478     11.583     11.723
REMARK  2 active torsions:
REMARK  status: ('A' for Active; 'I' for Inactive)
REMARK    1  A    between atoms: N2_4  and  C1_6 
REMARK    2  A    between atoms: C5_16  and  N6_17 
ROOT
HETATM    1  C1  UNL     1      36.693  35.442   3.832  1.00  0.00     0.698 A 
HETATM    2  N3  UNL     1      35.637  34.915   3.206  1.00  0.00    -0.186 N 
ATOM      3  H3  UNL     1      35.802  34.229   2.470  1.00  0.00     0.184 HD
HETATM    4  C2  UNL     1      34.361  35.248   3.502  1.00  0.00     0.098 A 
HETATM    5  C3  UNL     1      33.146  34.835   2.993  1.00  0.00     0.139 A 
HETATM    6  N4  UNL     1      32.194  35.510   3.676  1.00  0.00    -0.309 N 
ATOM      7  H4  UNL     1      31.187  35.422   3.530  1.00  0.00     0.186 HD
HETATM    8  N5  UNL     1      32.780  36.313   4.578  1.00  0.00    -0.295 N 
ATOM      9  H5  UNL     1      32.291  36.932   5.225  1.00  0.00     0.187 HD
HETATM   10  C4  UNL     1      34.114  36.172   4.494  1.00  0.00     0.121 A 
HETATM   11  C5  UNL     1      35.213  36.712   5.135  1.00  0.00     0.145 A 
HETATM   12  N7  UNL     1      36.468  36.346   4.802  1.00  0.00    -0.173 N 
ATOM     13  H7  UNL     1      37.258  36.762   5.294  1.00  0.00     0.186 HD
ENDROOT
BRANCH   1  14
HETATM   14  N2  UNL     1      38.037  35.060   3.485  1.00  0.00    -0.138 N 
HETATM   15  N1  UNL     1      38.301  33.845   3.201  1.00  0.00    -0.331 N 
ATOM     16  H12 UNL     1      37.549  33.157   3.223  1.00  0.00     0.177 HD
ATOM     17  H11 UNL     1      39.253  33.574   2.955  1.00  0.00     0.177 HD
ATOM     18  H2  UNL     1      38.777  35.761   3.467  1.00  0.00     0.205 HD
ENDBRANCH   1  14
BRANCH  11  19
HETATM   19  N6  UNL     1      34.963  37.577   6.062  1.00  0.00    -0.383 N 
ATOM     20  H62 UNL     1      34.023  37.742   6.419  1.00  0.00     0.157 HD
ATOM     21  H61 UNL     1      35.766  38.093   6.421  1.00  0.00     0.157 HD
ENDBRANCH  11  19
TORSDOF 2
ENDMDL
MODEL 4
REMARK VINA RESULT: -3.344434041      1.639      2.091
REMARK  2 active torsions:
REMARK  status: ('A' for Active; 'I' for Inactive)
REMARK    1  A    between atoms: N2_4  and  C1_6 
REMARK    2  A    between atoms: C5_16  and  N6_17 
ROOT
HETATM    1  C1  UNL     1      34.484  26.881  14.652  1.00  0.00     0.698 A 
HETATM    2  N3  UNL     1      34.776  28.103  14.199  1.00  0.00    -0.186 N 
ATOM      3  H3  UNL     1      35.567  28.597  14.611  1.00  0.00     0.184 HD
HETATM    4  C2  UNL     1      34.073  28.716  13.221  1.00  0.00     0.098 A 
HETATM    5  C3  UNL     1      34.198  29.949  12.614  1.00  0.00     0.139 A 
HETATM    6  N4  UNL     1      33.209  30.027  11.694  1.00  0.00    -0.309 N 
ATOM      7  H4  UNL     1      33.036  30.822  11.079  1.00  0.00     0.186 HD
HETATM    8  N5  UNL     1      32.491  28.893  11.718  1.00  0.00    -0.295 N 
ATOM      9  H5  UNL     1      31.687  28.689  11.125  1.00  0.00     0.187 HD
HETATM   10  C4  UNL     1      33.001  28.067  12.648  1.00  0.00     0.121 A 
HETATM   11  C5  UNL     1      32.707  26.803  13.124  1.00  0.00     0.145 A 
HETATM   12  N7  UNL     1      33.440  26.235  14.103  1.00  0.00    -0.173 N 
ATOM     13  H7  UNL     1      33.199  25.300  14.432  1.00  0.00     0.186 HD
ENDROOT
BRANCH   1  14
HETATM   14  N2  UNL     1      35.260  26.264  15.696  1.00  0.00    -0.138 N 
HETATM   15  N1  UNL     1      34.698  25.914  16.786  1.00  0.00    -0.331 N 
ATOM     16  H12 UNL     1      33.698  26.077  16.902  1.00  0.00     0.177 HD
ATOM     17  H11 UNL     1      35.247  25.476  17.525  1.00  0.00     0.177 HD
ATOM     18  H2  UNL     1      36.259  26.107  15.564  1.00  0.00     0.205 HD
ENDBRANCH   1  14
BRANCH  11  19
HETATM   19  N6  UNL     1      31.699  26.209  12.576  1.00  0.00    -0.383 N 
ATOM     20  H62 UNL     1      31.667  25.985  11.582  1.00  0.00     0.157 HD
ATOM     21  H61 UNL     1      30.925  25.975  13.198  1.00  0.00     0.157 HD
ENDBRANCH  11  19
TORSDOF 2
ENDMDL
MODEL 5
REMARK VINA RESULT: -3.314962127      1.107      1.107
REMARK  2 active torsions:
REMARK  status: ('A' for Active; 'I' for Inactive)
REMARK    1  A    between atoms: N2_4  and  C1_6 
REMARK    2  A    between atoms: C5_16  and  N6_17 
ROOT
HETATM    1  C1  UNL     1      33.888  26.865  13.659  1.00  0.00     0.698 A 
HETATM    2  N3  UNL     1      33.348  26.829  12.438  1.00  0.00    -0.186 N 
ATOM      3  H3  UNL     1      33.037  25.930  12.071  1.00  0.00     0.184 HD
HETATM    4  C2  UNL     1      33.193  27.927  11.666  1.00  0.00     0.098 A 
HETATM    5  C3  UNL     1      32.671  28.114  10.402  1.00  0.00     0.139 A 
HETATM    6  N4  UNL     1      32.774  29.436  10.135  1.00  0.00    -0.309 N 
ATOM      7  H4  UNL     1      32.472  29.890   9.272  1.00  0.00     0.186 HD
HETATM    8  N5  UNL     1      33.337  30.058  11.184  1.00  0.00    -0.295 N 
ATOM      9  H5  UNL     1      33.530  31.057  11.244  1.00  0.00     0.187 HD
HETATM   10  C4  UNL     1      33.605  29.154  12.141  1.00  0.00     0.121 A 
HETATM   11  C5  UNL     1      34.162  29.180  13.406  1.00  0.00     0.145 A 
HETATM   12  N7  UNL     1      34.295  28.055  14.137  1.00  0.00    -0.173 N 
ATOM     13  H7  UNL     1      34.710  28.107  15.067  1.00  0.00     0.186 HD
ENDROOT
BRANCH   1  14
HETATM   14  N2  UNL     1      34.035  25.670  14.449  1.00  0.00    -0.138 N 
HETATM   15  N1  UNL     1      34.454  25.748  15.651  1.00  0.00    -0.331 N 
ATOM     16  H12 UNL     1      34.680  26.664  16.038  1.00  0.00     0.177 HD
ATOM     17  H11 UNL     1      34.557  24.902  16.211  1.00  0.00     0.177 HD
ATOM     18  H2  UNL     1      33.803  24.762  14.047  1.00  0.00     0.205 HD
ENDBRANCH   1  14
BRANCH  11  19
HETATM   19  N6  UNL     1      34.543  30.338  13.835  1.00  0.00    -0.383 N 
ATOM     20  H62 UNL     1      33.975  31.178  13.725  1.00  0.00     0.157 HD
ATOM     21  H61 UNL     1      35.452  30.368  14.295  1.00  0.00     0.157 HD
ENDBRANCH  11  19
TORSDOF 2
ENDMDL
