MODEL 1
REMARK VINA RESULT: -4.033913260      0.000      0.000
REMARK  2 active torsions:
REMARK  status: ('A' for Active; 'I' for Inactive)
REMARK    1  A    between atoms: C3_4  and  N2_5 
REMARK    2  A    between atoms: N2_5  and  O1_7 
ROOT
HETATM    1  N1  UNL     1      34.990  28.966  10.036  1.00  0.00    -0.100 NA
HETATM    2  C1  UNL     1      34.255  28.597  11.203  1.00  0.00     0.074 A 
HETATM    3  C2  UNL     1      34.515  27.351  11.767  1.00  0.00     0.062 A 
HETATM    4  C3  UNL     1      33.817  26.977  12.890  1.00  0.00     0.082 A 
HETATM    5  C4  UNL     1      32.885  27.824  13.439  1.00  0.00     0.101 A 
HETATM    6  N3  UNL     1      32.185  27.414  14.592  1.00  0.00    -0.098 NA
HETATM    7  C5  UNL     1      32.597  29.077  12.905  1.00  0.00     0.099 A 
HETATM    8  N4  UNL     1      31.628  29.928  13.494  1.00  0.00    -0.098 NA
HETATM    9  C6  UNL     1      33.313  29.427  11.775  1.00  0.00     0.096 A 
HETATM   10  N5  UNL     1      33.067  30.703  11.174  1.00  0.00    -0.098 NA
ENDROOT
BRANCH   4  11
HETATM   11  N2  UNL     1      34.102  25.687  13.455  1.00  0.00    -0.267 N 
ATOM     12  H2  UNL     1      33.949  24.822  12.938  1.00  0.00     0.194 HD
BRANCH  11  13
HETATM   13  O1  UNL     1      34.552  25.695  14.631  1.00  0.00    -0.289 OA
ATOM     14  H1  UNL     1      35.006  24.907  14.902  1.00  0.00     0.244 HD
ENDBRANCH  11  13
ENDBRANCH   4  11
TORSDOF 2
ENDMDL
MODEL 2
REMARK VINA RESULT: -3.019384231      2.179      3.746
REMARK  2 active torsions:
REMARK  status: ('A' for Active; 'I' for Inactive)
REMARK    1  A    between atoms: C3_4  and  N2_5 
REMARK    2  A    between atoms: N2_5  and  O1_7 
ROOT
HETATM    1  N1  UNL     1      33.910  25.324  13.083  1.00  0.00    -0.100 NA
HETATM    2  C1  UNL     1      33.708  26.721  12.870  1.00  0.00     0.074 A 
HETATM    3  C2  UNL     1      33.758  27.192  11.561  1.00  0.00     0.062 A 
HETATM    4  C3  UNL     1      33.567  28.533  11.335  1.00  0.00     0.082 A 
HETATM    5  C4  UNL     1      33.330  29.385  12.387  1.00  0.00     0.101 A 
HETATM    6  N3  UNL     1      33.137  30.756  12.125  1.00  0.00    -0.098 NA
HETATM    7  C5  UNL     1      33.273  28.953  13.710  1.00  0.00     0.099 A 
HETATM    8  N4  UNL     1      33.027  29.857  14.774  1.00  0.00    -0.098 NA
HETATM    9  C6  UNL     1      33.469  27.599  13.908  1.00  0.00     0.096 A 
HETATM   10  N5  UNL     1      33.423  27.086  15.244  1.00  0.00    -0.098 NA
ENDROOT
BRANCH   4  11
HETATM   11  N2  UNL     1      33.622  28.997   9.976  1.00  0.00    -0.267 N 
ATOM     12  H2  UNL     1      34.409  28.787   9.362  1.00  0.00     0.194 HD
BRANCH  11  13
HETATM   13  O1  UNL     1      32.636  29.680   9.594  1.00  0.00    -0.289 OA
ATOM     14  H1  UNL     1      32.475  29.680   8.658  1.00  0.00     0.244 HD
ENDBRANCH  11  13
ENDBRANCH   4  11
TORSDOF 2
ENDMDL
MODEL 3
REMARK VINA RESULT: -1.955977839      0.782      2.764
REMARK  2 active torsions:
REMARK  status: ('A' for Active; 'I' for Inactive)
REMARK    1  A    between atoms: C3_4  and  N2_5 
REMARK    2  A    between atoms: N2_5  and  O1_7 
ROOT
HETATM    1  N1  UNL     1      31.523  30.209  13.621  1.00  0.00    -0.100 NA
HETATM    2  C1  UNL     1      32.483  29.274  13.129  1.00  0.00     0.074 A 
HETATM    3  C2  UNL     1      32.713  28.124  13.879  1.00  0.00     0.062 A 
HETATM    4  C3  UNL     1      33.633  27.213  13.423  1.00  0.00     0.082 A 
HETATM    5  C4  UNL     1      34.309  27.439  12.248  1.00  0.00     0.101 A 
HETATM    6  N3  UNL     1      35.247  26.486  11.804  1.00  0.00    -0.098 NA
HETATM    7  C5  UNL     1      34.107  28.577  11.470  1.00  0.00     0.099 A 
HETATM    8  N4  UNL     1      34.820  28.783  10.262  1.00  0.00    -0.098 NA
HETATM    9  C6  UNL     1      33.176  29.478  11.953  1.00  0.00     0.096 A 
HETATM   10  N5  UNL     1      32.919  30.669  11.202  1.00  0.00    -0.098 NA
ENDROOT
BRANCH   4  11
HETATM   11  N2  UNL     1      33.854  26.033  14.213  1.00  0.00    -0.267 N 
ATOM     12  H2  UNL     1      33.172  25.277  14.264  1.00  0.00     0.194 HD
BRANCH  11  13
HETATM   13  O1  UNL     1      34.946  25.994  14.840  1.00  0.00    -0.289 OA
ATOM     14  H1  UNL     1      34.920  25.557  15.682  1.00  0.00     0.244 HD
ENDBRANCH  11  13
ENDBRANCH   4  11
TORSDOF 2
ENDMDL
MODEL 4
REMARK VINA RESULT: -1.839806575      1.645      2.427
REMARK  2 active torsions:
REMARK  status: ('A' for Active; 'I' for Inactive)
REMARK    1  A    between atoms: C3_4  and  N2_5 
REMARK    2  A    between atoms: N2_5  and  O1_7 
ROOT
HETATM    1  N1  UNL     1      33.544  31.479  11.948  1.00  0.00    -0.100 NA
HETATM    2  C1  UNL     1      33.527  30.060  12.108  1.00  0.00     0.074 A 
HETATM    3  C2  UNL     1      33.963  29.538  13.324  1.00  0.00     0.062 A 
HETATM    4  C3  UNL     1      33.955  28.176  13.496  1.00  0.00     0.082 A 
HETATM    5  C4  UNL     1      33.523  27.352  12.486  1.00  0.00     0.101 A 
HETATM    6  N3  UNL     1      33.526  25.958  12.692  1.00  0.00    -0.098 NA
HETATM    7  C5  UNL     1      33.080  27.835  11.256  1.00  0.00     0.099 A 
HETATM    8  N4  UNL     1      32.641  26.959  10.232  1.00  0.00    -0.098 NA
HETATM    9  C6  UNL     1      33.099  29.210  11.109  1.00  0.00     0.096 A 
HETATM   10  N5  UNL     1      32.656  29.774   9.870  1.00  0.00    -0.098 NA
ENDROOT
BRANCH   4  11
HETATM   11  N2  UNL     1      34.410  27.660  14.759  1.00  0.00    -0.267 N 
ATOM     12  H2  UNL     1      35.314  27.914  15.156  1.00  0.00     0.194 HD
BRANCH  11  13
HETATM   13  O1  UNL     1      33.617  26.874  15.342  1.00  0.00    -0.289 OA
ATOM     14  H1  UNL     1      33.926  26.516  16.165  1.00  0.00     0.244 HD
ENDBRANCH  11  13
ENDBRANCH   4  11
TORSDOF 2
ENDMDL
MODEL 5
REMARK VINA RESULT: -1.758631887      2.051      4.196
REMARK  2 active torsions:
REMARK  status: ('A' for Active; 'I' for Inactive)
REMARK    1  A    between atoms: C3_4  and  N2_5 
REMARK    2  A    between atoms: N2_5  and  O1_7 
ROOT
HETATM    1  N1  UNL     1      33.629  26.582  15.035  1.00  0.00    -0.100 NA
HETATM    2  C1  UNL     1      33.355  27.459  13.943  1.00  0.00     0.074 A 
HETATM    3  C2  UNL     1      32.772  28.691  14.230  1.00  0.00     0.062 A 
HETATM    4  C3  UNL     1      32.499  29.548  13.193  1.00  0.00     0.082 A 
HETATM    5  C4  UNL     1      32.800  29.190  11.901  1.00  0.00     0.101 A 
HETATM    6  N3  UNL     1      32.510  30.091  10.857  1.00  0.00    -0.098 NA
HETATM    7  C5  UNL     1      33.383  27.968  11.573  1.00  0.00     0.099 A 
HETATM    8  N4  UNL     1      33.681  27.627  10.230  1.00  0.00    -0.098 NA
HETATM    9  C6  UNL     1      33.646  27.124  12.636  1.00  0.00     0.096 A 
HETATM   10  N5  UNL     1      34.246  25.852  12.371  1.00  0.00    -0.098 NA
ENDROOT
BRANCH   4  11
HETATM   11  N2  UNL     1      31.897  30.814  13.512  1.00  0.00    -0.267 N 
ATOM     12  H2  UNL     1      31.810  31.563  12.826  1.00  0.00     0.194 HD
BRANCH  11  13
HETATM   13  O1  UNL     1      31.486  30.937  14.696  1.00  0.00    -0.289 OA
ATOM     14  H1  UNL     1      31.980  30.462  15.353  1.00  0.00     0.244 HD
ENDBRANCH  11  13
ENDBRANCH   4  11
TORSDOF 2
ENDMDL
