MODEL 1
REMARK VINA RESULT: -7.776570336      0.000      0.000
REMARK  5 active torsions:
REMARK  status: ('A' for Active; 'I' for Inactive)
REMARK    1  A    between atoms: C2_2  and  O1_3 
REMARK    2  A    between atoms: O1_3  and  C3_4 
REMARK    3  A    between atoms: C3_4  and  C4_5 
REMARK    4  A    between atoms: C4_5  and  N1_6 
REMARK    5  A    between atoms: C6_11  and  N3_12 
ROOT
HETATM    1  N1  UNL     1       5.502  36.451  19.316  1.00  0.00    -0.353 N 
ATOM      2  H1  UNL     1       4.888  37.264  19.355  1.00  0.00     0.166 HD
HETATM    3  C5  UNL     1       4.842  35.448  19.603  1.00  0.00     0.139 C 
HETATM    4  N2  UNL     1       5.386  34.193  19.636  1.00  0.00    -0.176 N 
ATOM      5  H2  UNL     1       6.036  33.978  18.879  1.00  0.00     0.186 HD
HETATM    6  C6  UNL     1       5.188  33.206  20.520  1.00  0.00     0.680 C 
HETATM    7  N4  UNL     1       4.052  32.995  21.245  1.00  0.00    -0.154 N 
ATOM      8  H4  UNL     1       4.070  32.184  21.862  1.00  0.00     0.187 HD
HETATM    9  C7  UNL     1       2.907  33.711  21.260  1.00  0.00     0.287 C 
HETATM   10  O2  UNL     1       1.952  33.236  21.899  1.00  0.00    -0.265 OA
HETATM   11  C8  UNL     1       2.630  34.938  20.649  1.00  0.00     0.125 A 
HETATM   12  N5  UNL     1       1.356  35.358  20.842  1.00  0.00    -0.303 N 
ATOM     13  H5  UNL     1       0.721  34.781  21.392  1.00  0.00     0.171 HD
HETATM   14  C9  UNL     1       0.901  36.532  20.320  1.00  0.00     0.327 A 
HETATM   15  O3  UNL     1      -0.304  36.896  20.521  1.00  0.00    -0.247 OA
HETATM   16  N6  UNL     1       1.740  37.286  19.599  1.00  0.00    -0.275 N 
ATOM     17  H6  UNL     1       1.409  38.167  19.205  1.00  0.00     0.173 HD
HETATM   18  C10 UNL     1       3.031  36.898  19.383  1.00  0.00     0.265 A 
HETATM   19  O4  UNL     1       3.813  37.609  18.706  1.00  0.00    -0.267 OA
HETATM   20  C11 UNL     1       3.490  35.713  19.909  1.00  0.00     0.109 A 
ENDROOT
BRANCH   1  21
HETATM   21  C4  UNL     1       6.775  36.878  18.959  1.00  0.00     0.088 C 
BRANCH  21  22
HETATM   22  C3  UNL     1       7.101  38.332  18.967  1.00  0.00     0.212 C 
BRANCH  22  23
HETATM   23  O1  UNL     1       6.716  38.931  20.147  1.00  0.00    -0.387 OA
BRANCH  23  24
HETATM   24  C2  UNL     1       5.948  40.054  20.056  1.00  0.00     0.163 C 
HETATM   25  C1  UNL     1       5.854  40.558  18.622  1.00  0.00     0.033 C 
ENDBRANCH  23  24
ENDBRANCH  22  23
ENDBRANCH  21  22
ENDBRANCH   1  21
BRANCH   6  26
HETATM   26  N3  UNL     1       6.158  32.366  20.716  1.00  0.00    -0.234 N 
ATOM     27  H32 UNL     1       6.187  31.557  20.096  1.00  0.00     0.174 HD
ATOM     28  H31 UNL     1       6.817  32.568  21.468  1.00  0.00     0.174 HD
ENDBRANCH   6  26
TORSDOF 5
ENDMDL
MODEL 2
REMARK VINA RESULT: -7.546823069      1.314      1.851
REMARK  5 active torsions:
REMARK  status: ('A' for Active; 'I' for Inactive)
REMARK    1  A    between atoms: C2_2  and  O1_3 
REMARK    2  A    between atoms: O1_3  and  C3_4 
REMARK    3  A    between atoms: C3_4  and  C4_5 
REMARK    4  A    between atoms: C4_5  and  N1_6 
REMARK    5  A    between atoms: C6_11  and  N3_12 
ROOT
HETATM    1  N1  UNL     1       5.442  36.723  19.346  1.00  0.00    -0.353 N 
ATOM      2  H1  UNL     1       4.835  37.534  19.461  1.00  0.00     0.166 HD
HETATM    3  C5  UNL     1       4.780  35.705  19.569  1.00  0.00     0.139 C 
HETATM    4  N2  UNL     1       5.314  34.447  19.493  1.00  0.00    -0.176 N 
ATOM      5  H2  UNL     1       5.946  34.287  18.708  1.00  0.00     0.186 HD
HETATM    6  C6  UNL     1       5.126  33.396  20.303  1.00  0.00     0.680 C 
HETATM    7  N4  UNL     1       4.005  33.137  21.033  1.00  0.00    -0.154 N 
ATOM      8  H4  UNL     1       4.029  32.280  21.585  1.00  0.00     0.187 HD
HETATM    9  C7  UNL     1       2.866  33.857  21.129  1.00  0.00     0.287 C 
HETATM   10  O2  UNL     1       1.921  33.341  21.750  1.00  0.00    -0.265 OA
HETATM   11  C8  UNL     1       2.586  35.130  20.621  1.00  0.00     0.125 A 
HETATM   12  N5  UNL     1       1.320  35.542  20.873  1.00  0.00    -0.303 N 
ATOM     13  H5  UNL     1       0.692  34.927  21.392  1.00  0.00     0.171 HD
HETATM   14  C9  UNL     1       0.864  36.755  20.454  1.00  0.00     0.327 A 
HETATM   15  O3  UNL     1      -0.333  37.111  20.709  1.00  0.00    -0.247 OA
HETATM   16  N6  UNL     1       1.693  37.558  19.776  1.00  0.00    -0.275 N 
ATOM     17  H6  UNL     1       1.361  38.469  19.458  1.00  0.00     0.173 HD
HETATM   18  C10 UNL     1       2.976  37.180  19.502  1.00  0.00     0.265 A 
HETATM   19  O4  UNL     1       3.750  37.935  18.865  1.00  0.00    -0.267 OA
HETATM   20  C11 UNL     1       3.437  35.954  19.924  1.00  0.00     0.109 A 
ENDROOT
BRANCH   1  21
HETATM   21  C4  UNL     1       6.710  37.168  18.996  1.00  0.00     0.088 C 
BRANCH  21  22
HETATM   22  C3  UNL     1       6.978  37.631  17.605  1.00  0.00     0.212 C 
BRANCH  22  23
HETATM   23  O1  UNL     1       5.808  37.905  16.929  1.00  0.00    -0.387 OA
BRANCH  23  24
HETATM   24  C2  UNL     1       5.603  37.256  15.748  1.00  0.00     0.163 C 
HETATM   25  C1  UNL     1       4.883  35.930  15.951  1.00  0.00     0.033 C 
ENDBRANCH  23  24
ENDBRANCH  22  23
ENDBRANCH  21  22
ENDBRANCH   1  21
BRANCH   6  26
HETATM   26  N3  UNL     1       6.094  32.537  20.412  1.00  0.00    -0.234 N 
ATOM     27  H32 UNL     1       6.178  31.854  19.659  1.00  0.00     0.174 HD
ATOM     28  H31 UNL     1       6.696  32.601  21.232  1.00  0.00     0.174 HD
ENDBRANCH   6  26
TORSDOF 5
ENDMDL
MODEL 3
REMARK VINA RESULT: -7.233530711      1.813      3.935
REMARK  5 active torsions:
REMARK  status: ('A' for Active; 'I' for Inactive)
REMARK    1  A    between atoms: C2_2  and  O1_3 
REMARK    2  A    between atoms: O1_3  and  C3_4 
REMARK    3  A    between atoms: C3_4  and  C4_5 
REMARK    4  A    between atoms: C4_5  and  N1_6 
REMARK    5  A    between atoms: C6_11  and  N3_12 
ROOT
HETATM    1  N1  UNL     1       4.987  36.252  18.498  1.00  0.00    -0.353 N 
ATOM      2  H1  UNL     1       5.770  35.607  18.397  1.00  0.00     0.166 HD
HETATM    3  C5  UNL     1       4.305  35.891  19.462  1.00  0.00     0.139 C 
HETATM    4  N2  UNL     1       3.178  36.559  19.858  1.00  0.00    -0.176 N 
ATOM      5  H2  UNL     1       3.243  37.577  19.839  1.00  0.00     0.186 HD
HETATM    6  C6  UNL     1       2.001  36.066  20.268  1.00  0.00     0.680 C 
HETATM    7  N4  UNL     1       1.807  34.872  20.897  1.00  0.00    -0.154 N 
ATOM      8  H4  UNL     1       0.842  34.663  21.152  1.00  0.00     0.187 HD
HETATM    9  C7  UNL     1       2.714  33.927  21.228  1.00  0.00     0.287 C 
HETATM   10  O2  UNL     1       2.314  32.982  21.930  1.00  0.00    -0.265 OA
HETATM   11  C8  UNL     1       4.068  33.852  20.888  1.00  0.00     0.125 A 
HETATM   12  N5  UNL     1       4.696  32.777  21.423  1.00  0.00    -0.303 N 
ATOM     13  H5  UNL     1       4.164  32.130  22.004  1.00  0.00     0.171 HD
HETATM   14  C9  UNL     1       6.020  32.537  21.204  1.00  0.00     0.327 A 
HETATM   15  O3  UNL     1       6.579  31.516  21.723  1.00  0.00    -0.247 OA
HETATM   16  N6  UNL     1       6.712  33.390  20.439  1.00  0.00    -0.275 N 
ATOM     17  H6  UNL     1       7.703  33.219  20.269  1.00  0.00     0.173 HD
HETATM   18  C10 UNL     1       6.116  34.485  19.882  1.00  0.00     0.265 A 
HETATM   19  O4  UNL     1       6.770  35.281  19.165  1.00  0.00    -0.267 OA
HETATM   20  C11 UNL     1       4.780  34.727  20.103  1.00  0.00     0.109 A 
ENDROOT
BRANCH   1  21
HETATM   21  C4  UNL     1       5.078  37.214  17.501  1.00  0.00     0.088 C 
BRANCH  21  22
HETATM   22  C3  UNL     1       5.444  38.615  17.850  1.00  0.00     0.212 C 
BRANCH  22  23
HETATM   23  O1  UNL     1       4.435  39.243  18.548  1.00  0.00    -0.387 OA
BRANCH  23  24
HETATM   24  C2  UNL     1       4.776  39.874  19.708  1.00  0.00     0.163 C 
HETATM   25  C1  UNL     1       6.018  39.259  20.340  1.00  0.00     0.033 C 
ENDBRANCH  23  24
ENDBRANCH  22  23
ENDBRANCH  21  22
ENDBRANCH   1  21
BRANCH   6  26
HETATM   26  N3  UNL     1       0.939  36.782  20.053  1.00  0.00    -0.234 N 
ATOM     27  H32 UNL     1       0.679  37.438  20.790  1.00  0.00     0.174 HD
ATOM     28  H31 UNL     1       0.442  36.640  19.174  1.00  0.00     0.174 HD
ENDBRANCH   6  26
TORSDOF 5
ENDMDL
MODEL 4
REMARK VINA RESULT: -7.224722924      3.275      5.209
REMARK  5 active torsions:
REMARK  status: ('A' for Active; 'I' for Inactive)
REMARK    1  A    between atoms: C2_2  and  O1_3 
REMARK    2  A    between atoms: O1_3  and  C3_4 
REMARK    3  A    between atoms: C3_4  and  C4_5 
REMARK    4  A    between atoms: C4_5  and  N1_6 
REMARK    5  A    between atoms: C6_11  and  N3_12 
ROOT
HETATM    1  N1  UNL     1       4.853  35.639  20.752  1.00  0.00    -0.353 N 
ATOM      2  H1  UNL     1       4.539  34.775  20.312  1.00  0.00     0.166 HD
HETATM    3  C5  UNL     1       5.822  35.380  21.473  1.00  0.00     0.139 C 
HETATM    4  N2  UNL     1       6.475  36.337  22.201  1.00  0.00    -0.176 N 
ATOM      5  H2  UNL     1       6.625  37.225  21.721  1.00  0.00     0.186 HD
HETATM    6  C6  UNL     1       6.945  36.275  23.454  1.00  0.00     0.680 C 
HETATM    7  N4  UNL     1       7.376  35.150  24.094  1.00  0.00    -0.154 N 
ATOM      8  H4  UNL     1       7.717  35.290  25.045  1.00  0.00     0.187 HD
HETATM    9  C7  UNL     1       7.413  33.877  23.645  1.00  0.00     0.287 C 
HETATM   10  O2  UNL     1       7.987  33.041  24.364  1.00  0.00    -0.265 OA
HETATM   11  C8  UNL     1       6.889  33.347  22.461  1.00  0.00     0.125 A 
HETATM   12  N5  UNL     1       7.140  32.025  22.309  1.00  0.00    -0.303 N 
ATOM     13  H5  UNL     1       7.665  31.532  23.031  1.00  0.00     0.171 HD
HETATM   14  C9  UNL     1       6.709  31.334  21.216  1.00  0.00     0.327 A 
HETATM   15  O3  UNL     1       6.962  30.090  21.104  1.00  0.00    -0.247 OA
HETATM   16  N6  UNL     1       6.019  31.986  20.272  1.00  0.00    -0.275 N 
ATOM     17  H6  UNL     1       5.691  31.478  19.450  1.00  0.00     0.173 HD
HETATM   18  C10 UNL     1       5.745  33.318  20.388  1.00  0.00     0.265 A 
HETATM   19  O4  UNL     1       5.098  33.925  19.500  1.00  0.00    -0.267 OA
HETATM   20  C11 UNL     1       6.181  34.016  21.492  1.00  0.00     0.109 A 
ENDROOT
BRANCH   1  21
HETATM   21  C4  UNL     1       4.036  36.676  20.321  1.00  0.00     0.088 C 
BRANCH  21  22
HETATM   22  C3  UNL     1       4.417  37.473  19.121  1.00  0.00     0.212 C 
BRANCH  22  23
HETATM   23  O1  UNL     1       4.180  36.777  17.955  1.00  0.00    -0.387 OA
BRANCH  23  24
HETATM   24  C2  UNL     1       5.231  36.612  17.102  1.00  0.00     0.163 C 
HETATM   25  C1  UNL     1       6.566  36.673  17.833  1.00  0.00     0.033 C 
ENDBRANCH  23  24
ENDBRANCH  22  23
ENDBRANCH  21  22
ENDBRANCH   1  21
BRANCH   6  26
HETATM   26  N3  UNL     1       7.001  37.380  24.134  1.00  0.00    -0.234 N 
ATOM     27  H32 UNL     1       6.776  38.235  23.626  1.00  0.00     0.174 HD
ATOM     28  H31 UNL     1       7.265  37.319  25.117  1.00  0.00     0.174 HD
ENDBRANCH   6  26
TORSDOF 5
ENDMDL
MODEL 5
REMARK VINA RESULT: -7.167030286      2.190      4.557
REMARK  5 active torsions:
REMARK  status: ('A' for Active; 'I' for Inactive)
REMARK    1  A    between atoms: C2_2  and  O1_3 
REMARK    2  A    between atoms: O1_3  and  C3_4 
REMARK    3  A    between atoms: C3_4  and  C4_5 
REMARK    4  A    between atoms: C4_5  and  N1_6 
REMARK    5  A    between atoms: C6_11  and  N3_12 
ROOT
HETATM    1  N1  UNL     1       6.046  33.962  19.959  1.00  0.00    -0.353 N 
ATOM      2  H1  UNL     1       6.624  34.744  19.651  1.00  0.00     0.166 HD
HETATM    3  C5  UNL     1       4.868  34.332  19.983  1.00  0.00     0.139 C 
HETATM    4  N2  UNL     1       3.844  33.504  20.355  1.00  0.00    -0.176 N 
ATOM      5  H2  UNL     1       3.902  32.549  20.000  1.00  0.00     0.186 HD
HETATM    6  C6  UNL     1       2.775  33.768  21.119  1.00  0.00     0.680 C 
HETATM    7  N4  UNL     1       2.166  34.980  21.252  1.00  0.00    -0.154 N 
ATOM      8  H4  UNL     1       1.351  34.996  21.866  1.00  0.00     0.187 HD
HETATM    9  C7  UNL     1       2.489  36.163  20.686  1.00  0.00     0.287 C 
HETATM   10  O2  UNL     1       1.692  37.104  20.847  1.00  0.00    -0.265 OA
HETATM   11  C8  UNL     1       3.617  36.494  19.928  1.00  0.00     0.125 A 
HETATM   12  N5  UNL     1       3.606  37.774  19.482  1.00  0.00    -0.303 N 
ATOM     13  H5  UNL     1       2.817  38.376  19.720  1.00  0.00     0.171 HD
HETATM   14  C9  UNL     1       4.620  38.278  18.724  1.00  0.00     0.327 A 
HETATM   15  O3  UNL     1       4.577  39.487  18.321  1.00  0.00    -0.247 OA
HETATM   16  N6  UNL     1       5.653  37.484  18.417  1.00  0.00    -0.275 N 
ATOM     17  H6  UNL     1       6.417  37.853  17.852  1.00  0.00     0.173 HD
HETATM   18  C10 UNL     1       5.701  36.189  18.848  1.00  0.00     0.265 A 
HETATM   19  O4  UNL     1       6.672  35.448  18.557  1.00  0.00    -0.267 OA
HETATM   20  C11 UNL     1       4.677  35.680  19.612  1.00  0.00     0.109 A 
ENDROOT
BRANCH   1  21
HETATM   21  C4  UNL     1       6.873  32.872  20.198  1.00  0.00     0.088 C 
BRANCH  21  22
HETATM   22  C3  UNL     1       6.781  32.138  21.491  1.00  0.00     0.212 C 
BRANCH  22  23
HETATM   23  O1  UNL     1       6.133  32.885  22.452  1.00  0.00    -0.387 OA
BRANCH  23  24
HETATM   24  C2  UNL     1       6.904  33.481  23.405  1.00  0.00     0.163 C 
HETATM   25  C1  UNL     1       7.619  32.454  24.274  1.00  0.00     0.033 C 
ENDBRANCH  23  24
ENDBRANCH  22  23
ENDBRANCH  21  22
ENDBRANCH   1  21
BRANCH   6  26
HETATM   26  N3  UNL     1       2.263  32.789  21.800  1.00  0.00    -0.234 N 
ATOM     27  H32 UNL     1       2.679  31.869  21.652  1.00  0.00     0.174 HD
ATOM     28  H31 UNL     1       1.488  33.002  22.427  1.00  0.00     0.174 HD
ENDBRANCH   6  26
TORSDOF 5
ENDMDL
