MODEL 1
REMARK VINA RESULT: -9.310444661      0.000      0.000
REMARK  16 active torsions:
REMARK  status: ('A' for Active; 'I' for Inactive)
REMARK    1  A    between atoms: C2_2  and  C3_3 
REMARK    2  A    between atoms: C3_3  and  C4_4 
REMARK    3  A    between atoms: C4_4  and  N1_5 
REMARK    4  A    between atoms: C4_4  and  C24_32 
REMARK       I    between atoms: N1_5  and  C5_7 
REMARK    5  A    between atoms: C5_7  and  C6_9 
REMARK       I    between atoms: N2_13  and  C10_14 
REMARK    6  A    between atoms: C10_14  and  C11_16 
REMARK    7  A    between atoms: C11_16  and  C12_17 
REMARK    8  A    between atoms: C11_16  and  N3_20 
REMARK    9  A    between atoms: C12_17  and  C13_18 
REMARK       I    between atoms: N3_20  and  C15_22 
REMARK   10  A    between atoms: C15_22  and  C16_24 
REMARK   11  A    between atoms: C24_32  and  C25_34 
REMARK       I    between atoms: C25_34  and  N4_36 
REMARK   12  A    between atoms: N4_36  and  C26_38 
REMARK   13  A    between atoms: C26_38  and  C27_39 
REMARK       I    between atoms: N5_42  and  C30_43 
REMARK   14  A    between atoms: C30_43  and  O7_45 
REMARK   15  A    between atoms: O7_45  and  C31_46 
REMARK   16  A    between atoms: C31_46  and  C32_47 
ROOT
HETATM    1  N1  UNL     1      -9.302  -0.034  31.644  1.00  0.00    -0.347 N 
ATOM      2  H1  UNL     1      -9.526   0.572  32.433  1.00  0.00     0.163 HD
HETATM    3  C5  UNL     1     -10.206  -1.035  31.294  1.00  0.00     0.241 C 
HETATM    4  O1  UNL     1      -9.854  -1.772  30.287  1.00  0.00    -0.271 OA
ENDROOT
BRANCH   1   5
HETATM    5  C4  UNL     1      -8.054   0.182  30.935  1.00  0.00     0.164 C 
BRANCH   5   6
HETATM    6  C3  UNL     1      -8.037   1.437  30.122  1.00  0.00     0.033 C 
BRANCH   6   7
HETATM    7  C2  UNL     1      -8.850   2.547  30.774  1.00  0.00    -0.002 C 
HETATM    8  C1  UNL     1      -7.917   3.742  30.918  1.00  0.00     0.005 C 
ENDBRANCH   6   7
ENDBRANCH   5   6
BRANCH   5   9
HETATM    9  C24 UNL     1      -6.856   0.054  31.805  1.00  0.00     0.239 C 
HETATM   10  O4  UNL     1      -6.072   0.985  32.008  1.00  0.00    -0.285 OA
BRANCH   9  11
HETATM   11  C25 UNL     1      -6.586  -1.242  32.464  1.00  0.00     0.293 C 
HETATM   12  O5  UNL     1      -7.603  -1.917  32.723  1.00  0.00    -0.264 OA
HETATM   13  N4  UNL     1      -5.309  -1.700  32.791  1.00  0.00    -0.334 N 
ATOM     14  H4  UNL     1      -4.542  -1.077  32.541  1.00  0.00     0.168 HD
BRANCH  13  15
HETATM   15  C26 UNL     1      -4.931  -2.907  33.419  1.00  0.00     0.070 C 
BRANCH  15  16
HETATM   16  C27 UNL     1      -4.899  -4.190  32.704  1.00  0.00     0.044 C 
HETATM   17  C28 UNL     1      -4.421  -5.415  33.378  1.00  0.00     0.031 C 
HETATM   18  C29 UNL     1      -4.106  -6.337  32.174  1.00  0.00     0.129 C 
HETATM   19  N5  UNL     1      -3.279  -5.387  31.433  1.00  0.00    -0.327 N 
HETATM   20  C30 UNL     1      -2.081  -5.710  30.790  1.00  0.00     0.362 C 
HETATM   21  C35 UNL     1      -3.910  -4.087  31.519  1.00  0.00     0.138 C 
HETATM   22  O6  UNL     1      -1.383  -4.879  30.156  1.00  0.00    -0.238 OA
BRANCH  20  23
HETATM   23  O7  UNL     1      -1.576  -7.023  30.824  1.00  0.00    -0.304 OA
BRANCH  23  24
HETATM   24  C31 UNL     1      -0.316  -7.337  31.346  1.00  0.00     0.185 C 
BRANCH  24  25
HETATM   25  C32 UNL     1      -0.312  -7.475  32.840  1.00  0.00     0.010 A 
HETATM   26  C33 UNL     1       0.567  -6.582  33.641  1.00  0.00     0.007 A 
HETATM   27  C34 UNL     1       1.015  -7.960  33.422  1.00  0.00     0.007 A 
ENDBRANCH  24  25
ENDBRANCH  23  24
ENDBRANCH  20  23
ENDBRANCH  15  16
ENDBRANCH  13  15
ENDBRANCH   9  11
ENDBRANCH   5   9
ENDBRANCH   1   5
BRANCH   3  28
HETATM   28  C6  UNL     1     -11.495  -1.418  31.856  1.00  0.00     0.184 C 
HETATM   29  C7  UNL     1     -11.303  -2.672  32.617  1.00  0.00     0.032 A 
HETATM   30  C8  UNL     1     -12.814  -3.059  32.677  1.00  0.00     0.019 A 
HETATM   31  C21 UNL     1     -11.906  -3.301  33.709  1.00  0.00    -0.036 A 
HETATM   32  C9  UNL     1     -12.854  -3.213  31.184  1.00  0.00     0.132 C 
HETATM   33  N2  UNL     1     -12.539  -1.761  30.917  1.00  0.00    -0.336 N 
HETATM   34  C10 UNL     1     -13.267  -1.053  29.959  1.00  0.00     0.243 C 
HETATM   35  O2  UNL     1     -14.126  -1.744  29.279  1.00  0.00    -0.271 OA
HETATM   36  C22 UNL     1     -11.975  -2.477  35.010  1.00  0.00     0.016 C 
HETATM   37  C23 UNL     1     -11.573  -4.749  34.055  1.00  0.00     0.016 C 
BRANCH  34  38
HETATM   38  C11 UNL     1     -13.222   0.359  29.599  1.00  0.00     0.176 C 
BRANCH  38  39
HETATM   39  C12 UNL     1     -11.867   0.873  29.199  1.00  0.00     0.034 C 
BRANCH  39  40
HETATM   40  C13 UNL     1     -11.651   0.853  27.705  1.00  0.00    -0.002 C 
HETATM   41  C14 UNL     1     -10.316   0.233  27.347  1.00  0.00     0.005 C 
ENDBRANCH  39  40
ENDBRANCH  38  39
BRANCH  38  42
HETATM   42  N3  UNL     1     -13.673   1.157  30.733  1.00  0.00    -0.347 N 
HETATM   43  C15 UNL     1     -14.776   2.013  30.596  1.00  0.00     0.222 C 
HETATM   44  O3  UNL     1     -15.361   2.082  29.483  1.00  0.00    -0.273 OA
ATOM     45  H3  UNL     1     -13.186   1.093  31.627  1.00  0.00     0.163 HD
BRANCH  43  46
HETATM   46  C16 UNL     1     -15.280   2.848  31.735  1.00  0.00     0.078 C 
HETATM   47  C17 UNL     1     -16.660   3.367  31.464  1.00  0.00     0.014 C 
HETATM   48  C18 UNL     1     -17.443   3.152  32.749  1.00  0.00     0.001 C 
HETATM   49  C19 UNL     1     -16.771   1.994  33.460  1.00  0.00     0.001 C 
HETATM   50  C20 UNL     1     -15.349   2.030  33.008  1.00  0.00     0.014 C 
ENDBRANCH  43  46
ENDBRANCH  38  42
ENDBRANCH  34  38
ENDBRANCH   3  28
TORSDOF 16
ENDMDL
MODEL 2
REMARK VINA RESULT: -8.957589119      1.438      3.674
REMARK  16 active torsions:
REMARK  status: ('A' for Active; 'I' for Inactive)
REMARK    1  A    between atoms: C2_2  and  C3_3 
REMARK    2  A    between atoms: C3_3  and  C4_4 
REMARK    3  A    between atoms: C4_4  and  N1_5 
REMARK    4  A    between atoms: C4_4  and  C24_32 
REMARK       I    between atoms: N1_5  and  C5_7 
REMARK    5  A    between atoms: C5_7  and  C6_9 
REMARK       I    between atoms: N2_13  and  C10_14 
REMARK    6  A    between atoms: C10_14  and  C11_16 
REMARK    7  A    between atoms: C11_16  and  C12_17 
REMARK    8  A    between atoms: C11_16  and  N3_20 
REMARK    9  A    between atoms: C12_17  and  C13_18 
REMARK       I    between atoms: N3_20  and  C15_22 
REMARK   10  A    between atoms: C15_22  and  C16_24 
REMARK   11  A    between atoms: C24_32  and  C25_34 
REMARK       I    between atoms: C25_34  and  N4_36 
REMARK   12  A    between atoms: N4_36  and  C26_38 
REMARK   13  A    between atoms: C26_38  and  C27_39 
REMARK       I    between atoms: N5_42  and  C30_43 
REMARK   14  A    between atoms: C30_43  and  O7_45 
REMARK   15  A    between atoms: O7_45  and  C31_46 
REMARK   16  A    between atoms: C31_46  and  C32_47 
ROOT
HETATM    1  N1  UNL     1      -9.460  -0.285  31.830  1.00  0.00    -0.347 N 
ATOM      2  H1  UNL     1     -10.007   0.549  32.043  1.00  0.00     0.163 HD
HETATM    3  C5  UNL     1     -10.063  -1.533  31.975  1.00  0.00     0.241 C 
HETATM    4  O1  UNL     1      -9.307  -2.548  31.693  1.00  0.00    -0.271 OA
ENDROOT
BRANCH   1   5
HETATM    5  C4  UNL     1      -8.087  -0.119  31.388  1.00  0.00     0.164 C 
BRANCH   5   6
HETATM    6  C3  UNL     1      -7.869   1.105  30.558  1.00  0.00     0.033 C 
BRANCH   6   7
HETATM    7  C2  UNL     1      -8.823   2.228  30.940  1.00  0.00    -0.002 C 
HETATM    8  C1  UNL     1      -7.993   3.504  30.995  1.00  0.00     0.005 C 
ENDBRANCH   6   7
ENDBRANCH   5   6
BRANCH   5   9
HETATM    9  C24 UNL     1      -7.098  -0.241  32.491  1.00  0.00     0.239 C 
HETATM   10  O4  UNL     1      -7.118   0.481  33.491  1.00  0.00    -0.285 OA
BRANCH   9  11
HETATM   11  C25 UNL     1      -6.044  -1.273  32.395  1.00  0.00     0.293 C 
HETATM   12  O5  UNL     1      -5.605  -1.465  31.243  1.00  0.00    -0.264 OA
HETATM   13  N4  UNL     1      -5.561  -1.998  33.486  1.00  0.00    -0.334 N 
ATOM     14  H4  UNL     1      -5.983  -1.770  34.385  1.00  0.00     0.168 HD
BRANCH  13  15
HETATM   15  C26 UNL     1      -4.569  -3.002  33.517  1.00  0.00     0.070 C 
BRANCH  15  16
HETATM   16  C27 UNL     1      -4.815  -4.367  33.033  1.00  0.00     0.044 C 
HETATM   17  C28 UNL     1      -4.396  -5.535  33.834  1.00  0.00     0.031 C 
HETATM   18  C29 UNL     1      -4.395  -6.664  32.773  1.00  0.00     0.129 C 
HETATM   19  N5  UNL     1      -3.582  -5.971  31.776  1.00  0.00    -0.327 N 
HETATM   20  C30 UNL     1      -2.552  -6.563  31.040  1.00  0.00     0.362 C 
HETATM   21  C35 UNL     1      -4.021  -4.592  31.725  1.00  0.00     0.138 C 
HETATM   22  O6  UNL     1      -1.863  -5.952  30.185  1.00  0.00    -0.238 OA
BRANCH  20  23
HETATM   23  O7  UNL     1      -2.219  -7.918  31.228  1.00  0.00    -0.304 OA
BRANCH  23  24
HETATM   24  C31 UNL     1      -0.990  -8.331  31.754  1.00  0.00     0.185 C 
BRANCH  24  25
HETATM   25  C32 UNL     1      -0.480  -7.433  32.842  1.00  0.00     0.010 A 
HETATM   26  C33 UNL     1       0.716  -6.590  32.576  1.00  0.00     0.007 A 
HETATM   27  C34 UNL     1       0.904  -7.807  33.369  1.00  0.00     0.007 A 
ENDBRANCH  24  25
ENDBRANCH  23  24
ENDBRANCH  20  23
ENDBRANCH  15  16
ENDBRANCH  13  15
ENDBRANCH   9  11
ENDBRANCH   5   9
ENDBRANCH   1   5
BRANCH   3  28
HETATM   28  C6  UNL     1     -11.404  -1.920  32.393  1.00  0.00     0.184 C 
HETATM   29  C7  UNL     1     -11.292  -3.172  33.173  1.00  0.00     0.032 A 
HETATM   30  C8  UNL     1     -12.799  -3.565  33.067  1.00  0.00     0.019 A 
HETATM   31  C21 UNL     1     -12.009  -3.802  34.193  1.00  0.00    -0.036 A 
HETATM   32  C9  UNL     1     -12.673  -3.722  31.579  1.00  0.00     0.132 C 
HETATM   33  N2  UNL     1     -12.336  -2.270  31.346  1.00  0.00    -0.336 N 
HETATM   34  C10 UNL     1     -12.957  -1.566  30.311  1.00  0.00     0.243 C 
HETATM   35  O2  UNL     1     -13.733  -2.262  29.542  1.00  0.00    -0.271 OA
HETATM   36  C22 UNL     1     -12.224  -2.976  35.477  1.00  0.00     0.016 C 
HETATM   37  C23 UNL     1     -11.710  -5.247  34.577  1.00  0.00     0.016 C 
BRANCH  34  38
HETATM   38  C11 UNL     1     -12.879  -0.155  29.955  1.00  0.00     0.176 C 
BRANCH  38  39
HETATM   39  C12 UNL     1     -14.098   0.657  30.292  1.00  0.00     0.034 C 
BRANCH  39  40
HETATM   40  C13 UNL     1     -13.925   2.126  29.994  1.00  0.00    -0.002 C 
HETATM   41  C14 UNL     1     -14.537   2.987  31.079  1.00  0.00     0.005 C 
ENDBRANCH  39  40
ENDBRANCH  38  39
BRANCH  38  42
HETATM   42  N3  UNL     1     -12.657  -0.034  28.519  1.00  0.00    -0.347 N 
HETATM   43  C15 UNL     1     -11.364  -0.163  27.993  1.00  0.00     0.222 C 
HETATM   44  O3  UNL     1     -10.404  -0.380  28.779  1.00  0.00    -0.273 OA
ATOM     45  H3  UNL     1     -13.445   0.145  27.895  1.00  0.00     0.163 HD
BRANCH  43  46
HETATM   46  C16 UNL     1     -11.088  -0.053  26.523  1.00  0.00     0.078 C 
HETATM   47  C17 UNL     1      -9.656   0.301  26.260  1.00  0.00     0.014 C 
HETATM   48  C18 UNL     1      -9.204  -0.614  25.134  1.00  0.00     0.001 C 
HETATM   49  C19 UNL     1     -10.087  -1.844  25.214  1.00  0.00     0.001 C 
HETATM   50  C20 UNL     1     -11.362  -1.371  25.828  1.00  0.00     0.014 C 
ENDBRANCH  43  46
ENDBRANCH  38  42
ENDBRANCH  34  38
ENDBRANCH   3  28
TORSDOF 16
ENDMDL
MODEL 3
REMARK VINA RESULT: -8.839542592      4.570     14.475
REMARK  16 active torsions:
REMARK  status: ('A' for Active; 'I' for Inactive)
REMARK    1  A    between atoms: C2_2  and  C3_3 
REMARK    2  A    between atoms: C3_3  and  C4_4 
REMARK    3  A    between atoms: C4_4  and  N1_5 
REMARK    4  A    between atoms: C4_4  and  C24_32 
REMARK       I    between atoms: N1_5  and  C5_7 
REMARK    5  A    between atoms: C5_7  and  C6_9 
REMARK       I    between atoms: N2_13  and  C10_14 
REMARK    6  A    between atoms: C10_14  and  C11_16 
REMARK    7  A    between atoms: C11_16  and  C12_17 
REMARK    8  A    between atoms: C11_16  and  N3_20 
REMARK    9  A    between atoms: C12_17  and  C13_18 
REMARK       I    between atoms: N3_20  and  C15_22 
REMARK   10  A    between atoms: C15_22  and  C16_24 
REMARK   11  A    between atoms: C24_32  and  C25_34 
REMARK       I    between atoms: C25_34  and  N4_36 
REMARK   12  A    between atoms: N4_36  and  C26_38 
REMARK   13  A    between atoms: C26_38  and  C27_39 
REMARK       I    between atoms: N5_42  and  C30_43 
REMARK   14  A    between atoms: C30_43  and  O7_45 
REMARK   15  A    between atoms: O7_45  and  C31_46 
REMARK   16  A    between atoms: C31_46  and  C32_47 
ROOT
HETATM    1  N1  UNL     1      -0.370  -3.965  29.120  1.00  0.00    -0.347 N 
ATOM      2  H1  UNL     1      -0.913  -4.548  28.485  1.00  0.00     0.163 HD
HETATM    3  C5  UNL     1       0.327  -4.579  30.159  1.00  0.00     0.241 C 
HETATM    4  O1  UNL     1       0.990  -3.777  30.931  1.00  0.00    -0.271 OA
ENDROOT
BRANCH   1   5
HETATM    5  C4  UNL     1      -0.355  -2.530  28.903  1.00  0.00     0.164 C 
BRANCH   5   6
HETATM    6  C3  UNL     1       0.440  -2.113  27.707  1.00  0.00     0.033 C 
BRANCH   6   7
HETATM    7  C2  UNL     1       1.711  -1.374  28.099  1.00  0.00    -0.002 C 
HETATM    8  C1  UNL     1       2.833  -1.955  27.248  1.00  0.00     0.005 C 
ENDBRANCH   6   7
ENDBRANCH   5   6
BRANCH   5   9
HETATM    9  C24 UNL     1      -1.710  -1.920  28.923  1.00  0.00     0.239 C 
HETATM   10  O4  UNL     1      -1.974  -0.855  28.359  1.00  0.00    -0.285 OA
BRANCH   9  11
HETATM   11  C25 UNL     1      -2.797  -2.617  29.644  1.00  0.00     0.293 C 
HETATM   12  O5  UNL     1      -3.822  -2.830  28.965  1.00  0.00    -0.264 OA
HETATM   13  N4  UNL     1      -2.717  -3.013  30.980  1.00  0.00    -0.334 N 
ATOM     14  H4  UNL     1      -1.840  -2.794  31.451  1.00  0.00     0.168 HD
BRANCH  13  15
HETATM   15  C26 UNL     1      -3.681  -3.676  31.770  1.00  0.00     0.070 C 
BRANCH  15  16
HETATM   16  C27 UNL     1      -4.637  -2.951  32.618  1.00  0.00     0.044 C 
HETATM   17  C28 UNL     1      -5.607  -3.686  33.456  1.00  0.00     0.031 C 
HETATM   18  C29 UNL     1      -6.664  -2.592  33.752  1.00  0.00     0.129 C 
HETATM   19  N5  UNL     1      -6.873  -2.167  32.369  1.00  0.00    -0.327 N 
HETATM   20  C30 UNL     1      -8.121  -1.893  31.803  1.00  0.00     0.362 C 
HETATM   21  C35 UNL     1      -5.580  -2.115  31.720  1.00  0.00     0.138 C 
HETATM   22  O6  UNL     1      -8.281  -1.527  30.611  1.00  0.00    -0.238 OA
BRANCH  20  23
HETATM   23  O7  UNL     1      -9.300  -2.021  32.560  1.00  0.00    -0.304 OA
BRANCH  23  24
HETATM   24  C31 UNL     1     -10.299  -2.951  32.255  1.00  0.00     0.185 C 
BRANCH  24  25
HETATM   25  C32 UNL     1     -11.587  -2.697  32.982  1.00  0.00     0.010 A 
HETATM   26  C33 UNL     1     -11.534  -2.240  34.397  1.00  0.00     0.007 A 
HETATM   27  C34 UNL     1     -11.848  -3.649  34.148  1.00  0.00     0.007 A 
ENDBRANCH  24  25
ENDBRANCH  23  24
ENDBRANCH  20  23
ENDBRANCH  15  16
ENDBRANCH  13  15
ENDBRANCH   9  11
ENDBRANCH   5   9
ENDBRANCH   1   5
BRANCH   3  28
HETATM   28  C6  UNL     1       0.451  -5.977  30.550  1.00  0.00     0.184 C 
HETATM   29  C7  UNL     1      -0.590  -6.259  31.563  1.00  0.00     0.032 A 
HETATM   30  C8  UNL     1       0.057  -7.574  32.100  1.00  0.00     0.019 A 
HETATM   31  C21 UNL     1      -1.319  -7.371  31.990  1.00  0.00    -0.036 A 
HETATM   32  C9  UNL     1       1.248  -6.807  32.599  1.00  0.00     0.132 C 
HETATM   33  N2  UNL     1       1.672  -6.360  31.221  1.00  0.00    -0.336 N 
HETATM   34  C10 UNL     1       3.015  -6.438  30.844  1.00  0.00     0.243 C 
HETATM   35  O2  UNL     1       3.840  -6.814  31.769  1.00  0.00    -0.271 OA
HETATM   36  C22 UNL     1      -2.125  -8.108  30.901  1.00  0.00     0.016 C 
HETATM   37  C23 UNL     1      -2.148  -7.316  33.269  1.00  0.00     0.016 C 
BRANCH  34  38
HETATM   38  C11 UNL     1       3.646  -6.169  29.558  1.00  0.00     0.176 C 
BRANCH  38  39
HETATM   39  C12 UNL     1       3.316  -7.149  28.468  1.00  0.00     0.034 C 
BRANCH  39  40
HETATM   40  C13 UNL     1       4.364  -8.224  28.309  1.00  0.00    -0.002 C 
HETATM   41  C14 UNL     1       3.934  -9.272  27.303  1.00  0.00     0.005 C 
ENDBRANCH  39  40
ENDBRANCH  38  39
BRANCH  38  42
HETATM   42  N3  UNL     1       5.095  -6.175  29.725  1.00  0.00    -0.347 N 
HETATM   43  C15 UNL     1       5.886  -5.243  29.037  1.00  0.00     0.222 C 
HETATM   44  O3  UNL     1       5.326  -4.410  28.276  1.00  0.00    -0.273 OA
ATOM     45  H3  UNL     1       5.534  -6.858  30.342  1.00  0.00     0.163 HD
BRANCH  43  46
HETATM   46  C16 UNL     1       7.378  -5.206  29.181  1.00  0.00     0.078 C 
HETATM   47  C17 UNL     1       7.815  -5.767  30.501  1.00  0.00     0.014 C 
HETATM   48  C18 UNL     1       8.991  -6.679  30.194  1.00  0.00     0.001 C 
HETATM   49  C19 UNL     1       8.808  -7.131  28.758  1.00  0.00     0.001 C 
HETATM   50  C20 UNL     1       8.039  -6.035  28.099  1.00  0.00     0.014 C 
ENDBRANCH  43  46
ENDBRANCH  38  42
ENDBRANCH  34  38
ENDBRANCH   3  28
TORSDOF 16
ENDMDL
MODEL 4
REMARK VINA RESULT: -8.784974345      2.028      4.313
REMARK  16 active torsions:
REMARK  status: ('A' for Active; 'I' for Inactive)
REMARK    1  A    between atoms: C2_2  and  C3_3 
REMARK    2  A    between atoms: C3_3  and  C4_4 
REMARK    3  A    between atoms: C4_4  and  N1_5 
REMARK    4  A    between atoms: C4_4  and  C24_32 
REMARK       I    between atoms: N1_5  and  C5_7 
REMARK    5  A    between atoms: C5_7  and  C6_9 
REMARK       I    between atoms: N2_13  and  C10_14 
REMARK    6  A    between atoms: C10_14  and  C11_16 
REMARK    7  A    between atoms: C11_16  and  C12_17 
REMARK    8  A    between atoms: C11_16  and  N3_20 
REMARK    9  A    between atoms: C12_17  and  C13_18 
REMARK       I    between atoms: N3_20  and  C15_22 
REMARK   10  A    between atoms: C15_22  and  C16_24 
REMARK   11  A    between atoms: C24_32  and  C25_34 
REMARK       I    between atoms: C25_34  and  N4_36 
REMARK   12  A    between atoms: N4_36  and  C26_38 
REMARK   13  A    between atoms: C26_38  and  C27_39 
REMARK       I    between atoms: N5_42  and  C30_43 
REMARK   14  A    between atoms: C30_43  and  O7_45 
REMARK   15  A    between atoms: O7_45  and  C31_46 
REMARK   16  A    between atoms: C31_46  and  C32_47 
ROOT
HETATM    1  N1  UNL     1     -11.216  -2.355  30.751  1.00  0.00    -0.347 N 
ATOM      2  H1  UNL     1     -10.633  -2.930  30.143  1.00  0.00     0.163 HD
HETATM    3  C5  UNL     1     -11.930  -1.300  30.186  1.00  0.00     0.241 C 
HETATM    4  O1  UNL     1     -12.645  -0.608  31.018  1.00  0.00    -0.271 OA
ENDROOT
BRANCH   1   5
HETATM    5  C4  UNL     1     -11.267  -2.673  32.166  1.00  0.00     0.164 C 
BRANCH   5   6
HETATM    6  C3  UNL     1     -11.255  -4.141  32.452  1.00  0.00     0.033 C 
BRANCH   6   7
HETATM    7  C2  UNL     1     -12.509  -4.585  33.190  1.00  0.00    -0.002 C 
HETATM    8  C1  UNL     1     -12.102  -4.811  34.641  1.00  0.00     0.005 C 
ENDBRANCH   6   7
ENDBRANCH   5   6
BRANCH   5   9
HETATM    9  C24 UNL     1     -10.261  -1.931  32.969  1.00  0.00     0.239 C 
HETATM   10  O4  UNL     1     -10.560  -1.245  33.951  1.00  0.00    -0.285 OA
BRANCH   9  11
HETATM   11  C25 UNL     1      -8.835  -2.017  32.585  1.00  0.00     0.293 C 
HETATM   12  O5  UNL     1      -8.620  -1.944  31.358  1.00  0.00    -0.264 OA
HETATM   13  N4  UNL     1      -7.790  -2.173  33.497  1.00  0.00    -0.334 N 
ATOM     14  H4  UNL     1      -8.067  -2.224  34.478  1.00  0.00     0.168 HD
BRANCH  13  15
HETATM   15  C26 UNL     1      -6.403  -2.270  33.252  1.00  0.00     0.070 C 
BRANCH  15  16
HETATM   16  C27 UNL     1      -5.796  -3.449  32.621  1.00  0.00     0.044 C 
HETATM   17  C28 UNL     1      -4.753  -4.225  33.323  1.00  0.00     0.031 C 
HETATM   18  C29 UNL     1      -4.097  -5.004  32.156  1.00  0.00     0.129 C 
HETATM   19  N5  UNL     1      -3.870  -3.856  31.281  1.00  0.00    -0.327 N 
HETATM   20  C30 UNL     1      -2.700  -3.634  30.549  1.00  0.00     0.362 C 
HETATM   21  C35 UNL     1      -5.043  -3.010  31.343  1.00  0.00     0.138 C 
HETATM   22  O6  UNL     1      -2.522  -2.641  29.800  1.00  0.00    -0.238 OA
BRANCH  20  23
HETATM   23  O7  UNL     1      -1.624  -4.540  30.618  1.00  0.00    -0.304 OA
BRANCH  23  24
HETATM   24  C31 UNL     1      -1.795  -5.926  30.540  1.00  0.00     0.185 C 
BRANCH  24  25
HETATM   25  C32 UNL     1      -0.751  -6.695  31.295  1.00  0.00     0.010 A 
HETATM   26  C33 UNL     1      -0.891  -8.171  31.413  1.00  0.00     0.007 A 
HETATM   27  C34 UNL     1      -1.261  -7.358  32.573  1.00  0.00     0.007 A 
ENDBRANCH  24  25
ENDBRANCH  23  24
ENDBRANCH  20  23
ENDBRANCH  15  16
ENDBRANCH  13  15
ENDBRANCH   9  11
ENDBRANCH   5   9
ENDBRANCH   1   5
BRANCH   3  28
HETATM   28  C6  UNL     1     -12.026  -0.817  28.815  1.00  0.00     0.184 C 
HETATM   29  C7  UNL     1     -12.248  -1.987  27.937  1.00  0.00     0.032 A 
HETATM   30  C8  UNL     1     -11.847  -1.272  26.609  1.00  0.00     0.019 A 
HETATM   31  C21 UNL     1     -12.857  -2.232  26.704  1.00  0.00    -0.036 A 
HETATM   32  C9  UNL     1     -10.440  -1.099  27.104  1.00  0.00     0.132 C 
HETATM   33  N2  UNL     1     -10.840  -0.209  28.255  1.00  0.00    -0.336 N 
HETATM   34  C10 UNL     1     -10.117   0.956  28.522  1.00  0.00     0.243 C 
HETATM   35  O2  UNL     1      -9.063   1.145  27.793  1.00  0.00    -0.271 OA
HETATM   36  C22 UNL     1     -14.335  -1.813  26.585  1.00  0.00     0.016 C 
HETATM   37  C23 UNL     1     -12.659  -3.564  25.988  1.00  0.00     0.016 C 
BRANCH  34  38
HETATM   38  C11 UNL     1     -10.364   2.013  29.494  1.00  0.00     0.176 C 
BRANCH  38  39
HETATM   39  C12 UNL     1      -9.559   1.916  30.760  1.00  0.00     0.034 C 
BRANCH  39  40
HETATM   40  C13 UNL     1      -8.421   2.907  30.808  1.00  0.00    -0.002 C 
HETATM   41  C14 UNL     1      -7.083   2.222  30.618  1.00  0.00     0.005 C 
ENDBRANCH  39  40
ENDBRANCH  38  39
BRANCH  38  42
HETATM   42  N3  UNL     1     -11.773   1.998  29.871  1.00  0.00    -0.347 N 
HETATM   43  C15 UNL     1     -12.644   2.980  29.378  1.00  0.00     0.222 C 
HETATM   44  O3  UNL     1     -12.189   3.871  28.612  1.00  0.00    -0.273 OA
ATOM     45  H3  UNL     1     -12.125   1.272  30.495  1.00  0.00     0.163 HD
BRANCH  43  46
HETATM   46  C16 UNL     1     -14.100   3.003  29.732  1.00  0.00     0.078 C 
HETATM   47  C17 UNL     1     -14.675   1.619  29.773  1.00  0.00     0.014 C 
HETATM   48  C18 UNL     1     -15.521   1.559  31.034  1.00  0.00     0.001 C 
HETATM   49  C19 UNL     1     -14.933   2.586  31.982  1.00  0.00     0.001 C 
HETATM   50  C20 UNL     1     -14.307   3.616  31.102  1.00  0.00     0.014 C 
ENDBRANCH  43  46
ENDBRANCH  38  42
ENDBRANCH  34  38
ENDBRANCH   3  28
TORSDOF 16
ENDMDL
MODEL 5
REMARK VINA RESULT: -8.772118851      2.684      4.837
REMARK  16 active torsions:
REMARK  status: ('A' for Active; 'I' for Inactive)
REMARK    1  A    between atoms: C2_2  and  C3_3 
REMARK    2  A    between atoms: C3_3  and  C4_4 
REMARK    3  A    between atoms: C4_4  and  N1_5 
REMARK    4  A    between atoms: C4_4  and  C24_32 
REMARK       I    between atoms: N1_5  and  C5_7 
REMARK    5  A    between atoms: C5_7  and  C6_9 
REMARK       I    between atoms: N2_13  and  C10_14 
REMARK    6  A    between atoms: C10_14  and  C11_16 
REMARK    7  A    between atoms: C11_16  and  C12_17 
REMARK    8  A    between atoms: C11_16  and  N3_20 
REMARK    9  A    between atoms: C12_17  and  C13_18 
REMARK       I    between atoms: N3_20  and  C15_22 
REMARK   10  A    between atoms: C15_22  and  C16_24 
REMARK   11  A    between atoms: C24_32  and  C25_34 
REMARK       I    between atoms: C25_34  and  N4_36 
REMARK   12  A    between atoms: N4_36  and  C26_38 
REMARK   13  A    between atoms: C26_38  and  C27_39 
REMARK       I    between atoms: N5_42  and  C30_43 
REMARK   14  A    between atoms: C30_43  and  O7_45 
REMARK   15  A    between atoms: O7_45  and  C31_46 
REMARK   16  A    between atoms: C31_46  and  C32_47 
ROOT
HETATM    1  N1  UNL     1     -10.985  -2.371  30.766  1.00  0.00    -0.347 N 
ATOM      2  H1  UNL     1     -10.336  -2.892  30.177  1.00  0.00     0.163 HD
HETATM    3  C5  UNL     1     -11.760  -1.371  30.180  1.00  0.00     0.241 C 
HETATM    4  O1  UNL     1     -12.558  -0.745  30.988  1.00  0.00    -0.271 OA
ENDROOT
BRANCH   1   5
HETATM    5  C4  UNL     1     -11.061  -2.702  32.177  1.00  0.00     0.164 C 
BRANCH   5   6
HETATM    6  C3  UNL     1     -11.004  -4.170  32.452  1.00  0.00     0.033 C 
BRANCH   6   7
HETATM    7  C2  UNL     1     -12.302  -4.685  33.058  1.00  0.00    -0.002 C 
HETATM    8  C1  UNL     1     -12.150  -4.573  34.569  1.00  0.00     0.005 C 
ENDBRANCH   6   7
ENDBRANCH   5   6
BRANCH   5   9
HETATM    9  C24 UNL     1     -10.103  -1.931  33.012  1.00  0.00     0.239 C 
HETATM   10  O4  UNL     1     -10.431  -1.364  34.058  1.00  0.00    -0.285 OA
BRANCH   9  11
HETATM   11  C25 UNL     1      -8.691  -1.839  32.580  1.00  0.00     0.293 C 
HETATM   12  O5  UNL     1      -8.518  -1.275  31.481  1.00  0.00    -0.264 OA
HETATM   13  N4  UNL     1      -7.617  -2.339  33.318  1.00  0.00    -0.334 N 
ATOM     14  H4  UNL     1      -7.861  -2.784  34.202  1.00  0.00     0.168 HD
BRANCH  13  15
HETATM   15  C26 UNL     1      -6.239  -2.314  33.010  1.00  0.00     0.070 C 
BRANCH  15  16
HETATM   16  C27 UNL     1      -5.663  -3.106  31.915  1.00  0.00     0.044 C 
HETATM   17  C28 UNL     1      -4.472  -3.949  32.143  1.00  0.00     0.031 C 
HETATM   18  C29 UNL     1      -3.960  -4.173  30.698  1.00  0.00     0.129 C 
HETATM   19  N5  UNL     1      -3.952  -2.768  30.293  1.00  0.00    -0.327 N 
HETATM   20  C30 UNL     1      -2.931  -2.160  29.557  1.00  0.00     0.362 C 
HETATM   21  C35 UNL     1      -5.155  -2.150  30.810  1.00  0.00     0.138 C 
HETATM   22  O6  UNL     1      -2.943  -0.951  29.216  1.00  0.00    -0.238 OA
BRANCH  20  23
HETATM   23  O7  UNL     1      -1.800  -2.893  29.151  1.00  0.00    -0.304 OA
BRANCH  23  24
HETATM   24  C31 UNL     1      -0.891  -2.417  28.200  1.00  0.00     0.185 C 
BRANCH  24  25
HETATM   25  C32 UNL     1       0.498  -2.248  28.743  1.00  0.00     0.010 A 
HETATM   26  C33 UNL     1       1.306  -1.081  28.296  1.00  0.00     0.007 A 
HETATM   27  C34 UNL     1       1.602  -2.384  27.696  1.00  0.00     0.007 A 
ENDBRANCH  24  25
ENDBRANCH  23  24
ENDBRANCH  20  23
ENDBRANCH  15  16
ENDBRANCH  13  15
ENDBRANCH   9  11
ENDBRANCH   5   9
ENDBRANCH   1   5
BRANCH   3  28
HETATM   28  C6  UNL     1     -11.844  -0.887  28.809  1.00  0.00     0.184 C 
HETATM   29  C7  UNL     1     -11.996  -2.062  27.922  1.00  0.00     0.032 A 
HETATM   30  C8  UNL     1     -11.596  -1.326  26.606  1.00  0.00     0.019 A 
HETATM   31  C21 UNL     1     -12.565  -2.328  26.674  1.00  0.00    -0.036 A 
HETATM   32  C9  UNL     1     -10.209  -1.095  27.134  1.00  0.00     0.132 C 
HETATM   33  N2  UNL     1     -10.673  -0.227  28.278  1.00  0.00    -0.336 N 
HETATM   34  C10 UNL     1     -10.007   0.967  28.565  1.00  0.00     0.243 C 
HETATM   35  O2  UNL     1      -8.945   1.203  27.862  1.00  0.00    -0.271 OA
HETATM   36  C22 UNL     1     -14.057  -1.972  26.523  1.00  0.00     0.016 C 
HETATM   37  C23 UNL     1     -12.294  -3.647  25.959  1.00  0.00     0.016 C 
BRANCH  34  38
HETATM   38  C11 UNL     1     -10.321   2.008  29.535  1.00  0.00     0.176 C 
BRANCH  38  39
HETATM   39  C12 UNL     1      -9.544   1.939  30.820  1.00  0.00     0.034 C 
BRANCH  39  40
HETATM   40  C13 UNL     1      -8.401   2.924  30.866  1.00  0.00    -0.002 C 
HETATM   41  C14 UNL     1      -7.066   2.231  30.693  1.00  0.00     0.005 C 
ENDBRANCH  39  40
ENDBRANCH  38  39
BRANCH  38  42
HETATM   42  N3  UNL     1     -11.737   1.933  29.878  1.00  0.00    -0.347 N 
HETATM   43  C15 UNL     1     -12.631   2.897  29.389  1.00  0.00     0.222 C 
HETATM   44  O3  UNL     1     -12.191   3.824  28.658  1.00  0.00    -0.273 OA
ATOM     45  H3  UNL     1     -12.077   1.179  30.474  1.00  0.00     0.163 HD
BRANCH  43  46
HETATM   46  C16 UNL     1     -14.095   2.858  29.709  1.00  0.00     0.078 C 
HETATM   47  C17 UNL     1     -14.619   1.453  29.707  1.00  0.00     0.014 C 
HETATM   48  C18 UNL     1     -15.491   1.336  30.947  1.00  0.00     0.001 C 
HETATM   49  C19 UNL     1     -14.964   2.364  31.929  1.00  0.00     0.001 C 
HETATM   50  C20 UNL     1     -14.356   3.434  31.085  1.00  0.00     0.014 C 
ENDBRANCH  43  46
ENDBRANCH  38  42
ENDBRANCH  34  38
ENDBRANCH   3  28
TORSDOF 16
ENDMDL
