MODEL 1
REMARK VINA RESULT: -9.426199451      0.000      0.000
REMARK  17 active torsions:
REMARK  status: ('A' for Active; 'I' for Inactive)
REMARK    1  A    between atoms: C2_2  and  C3_3 
REMARK    2  A    between atoms: C6_6  and  C7_7 
REMARK    3  A    between atoms: C7_7  and  N1_8 
REMARK    4  A    between atoms: C8_10  and  O1_11 
REMARK    5  A    between atoms: C8_10  and  C9_13 
REMARK    6  A    between atoms: C9_13  and  C10_14 
REMARK    7  A    between atoms: C9_13  and  N6_46 
REMARK    8  A    between atoms: C10_14  and  C11_15 
REMARK       I    between atoms: C11_15  and  N2_17 
REMARK    9  A    between atoms: C18_24  and  C19_25 
REMARK       I    between atoms: C19_25  and  N3_27 
REMARK   10  A    between atoms: N3_27  and  C20_28 
REMARK   11  A    between atoms: C20_28  and  C21_29 
REMARK   12  A    between atoms: C20_28  and  C28_36 
REMARK   13  A    between atoms: C21_29  and  C22_30 
REMARK   14  A    between atoms: C28_36  and  N4_37 
REMARK   15  A    between atoms: C31_40  and  C32_41 
REMARK   16  A    between atoms: C32_41  and  N5_42 
REMARK       I    between atoms: N6_46  and  C33_48 
REMARK   17  A    between atoms: C33_48  and  C34_50 
ROOT
HETATM    1  C11 UNL     1      -7.859  -2.086  31.858  1.00  0.00     0.223 C 
HETATM    2  O2  UNL     1      -7.636  -1.874  30.616  1.00  0.00    -0.273 OA
HETATM    3  N2  UNL     1      -9.158  -1.881  32.315  1.00  0.00    -0.337 N 
HETATM    4  C12 UNL     1      -9.598  -1.971  33.731  1.00  0.00     0.132 C 
HETATM    5  C13 UNL     1     -10.772  -2.934  33.588  1.00  0.00     0.010 C 
HETATM    6  C14 UNL     1     -11.994  -2.331  34.225  1.00  0.00     0.007 C 
HETATM    7  C15 UNL     1     -13.150  -2.824  33.429  1.00  0.00     0.001 C 
HETATM    8  C16 UNL     1     -12.632  -2.801  32.040  1.00  0.00     0.007 C 
HETATM    9  C17 UNL     1     -11.137  -2.936  32.125  1.00  0.00     0.025 C 
HETATM   10  C18 UNL     1     -10.427  -1.635  31.708  1.00  0.00     0.198 C 
ENDROOT
BRANCH   1  11
HETATM   11  C10 UNL     1      -6.686  -2.514  32.603  1.00  0.00     0.136 C 
BRANCH  11  12
HETATM   12  C9  UNL     1      -5.612  -3.090  31.780  1.00  0.00     0.167 C 
BRANCH  12  13
HETATM   13  C8  UNL     1      -4.808  -4.095  32.485  1.00  0.00     0.135 C 
HETATM   14  N1  UNL     1      -4.581  -5.430  32.449  1.00  0.00    -0.372 N 
ATOM     15  H1  UNL     1      -5.035  -6.009  31.741  1.00  0.00     0.161 HD
BRANCH  14  16
HETATM   16  C7  UNL     1      -3.665  -6.049  33.450  1.00  0.00     0.126 C 
BRANCH  16  17
HETATM   17  C6  UNL     1      -2.760  -7.061  32.878  1.00  0.00     0.004 C 
HETATM   18  C5  UNL     1      -1.498  -7.347  33.661  1.00  0.00     0.006 C 
HETATM   19  C4  UNL     1      -0.327  -7.193  32.728  1.00  0.00     0.005 C 
HETATM   20  C3  UNL     1      -0.943  -7.257  31.337  1.00  0.00    -0.014 C 
HETATM   21  C37 UNL     1      -2.205  -6.447  31.570  1.00  0.00     0.011 C 
BRANCH  20  22
HETATM   22  C2  UNL     1      -1.295  -8.717  31.031  1.00  0.00     0.000 C 
HETATM   23  C1  UNL     1      -2.282  -8.789  29.894  1.00  0.00     0.005 C 
ENDBRANCH  20  22
ENDBRANCH  16  17
ENDBRANCH  14  16
BRANCH  13  24
HETATM   24  O1  UNL     1      -4.088  -3.530  33.495  1.00  0.00    -0.348 OA
ATOM     25  H1  UNL     1      -3.430  -2.947  33.135  1.00  0.00     0.219 HD
ENDBRANCH  13  24
ENDBRANCH  12  13
BRANCH  12  26
HETATM   26  N6  UNL     1      -4.648  -2.141  31.197  1.00  0.00    -0.348 N 
HETATM   27  C33 UNL     1      -3.965  -2.421  30.015  1.00  0.00     0.222 C 
HETATM   28  O4  UNL     1      -4.264  -3.524  29.414  1.00  0.00    -0.273 OA
ATOM     29  H6  UNL     1      -4.474  -1.255  31.672  1.00  0.00     0.163 HD
BRANCH  27  30
HETATM   30  C34 UNL     1      -2.896  -1.591  29.382  1.00  0.00     0.078 A 
HETATM   31  C35 UNL     1      -2.337  -2.042  28.040  1.00  0.00     0.015 A 
HETATM   32  C36 UNL     1      -1.581  -2.379  29.252  1.00  0.00     0.015 A 
ENDBRANCH  27  30
ENDBRANCH  12  26
ENDBRANCH  11  12
ENDBRANCH   1  11
BRANCH  10  33
HETATM   33  C19 UNL     1     -10.459  -1.449  30.218  1.00  0.00     0.310 C 
HETATM   34  O3  UNL     1     -10.838  -2.371  29.501  1.00  0.00    -0.255 OA
HETATM   35  N3  UNL     1     -10.024  -0.207  29.832  1.00  0.00    -0.406 NA
BRANCH  35  36
HETATM   36  C20 UNL     1      -9.587   1.037  29.437  1.00  0.00     0.195 C 
BRANCH  36  37
HETATM   37  C21 UNL     1      -9.860   2.253  30.253  1.00  0.00     0.046 C 
BRANCH  37  38
HETATM   38  C22 UNL     1      -8.847   2.558  31.320  1.00  0.00    -0.012 C 
HETATM   39  C23 UNL     1      -7.698   3.270  30.638  1.00  0.00     0.005 C 
HETATM   40  C24 UNL     1      -6.780   2.300  29.942  1.00  0.00     0.000 C 
HETATM   41  C25 UNL     1      -6.045   1.361  30.912  1.00  0.00     0.000 C 
HETATM   42  C26 UNL     1      -6.803   1.419  32.212  1.00  0.00     0.000 C 
HETATM   43  C27 UNL     1      -8.311   1.283  31.939  1.00  0.00     0.005 C 
ENDBRANCH  37  38
ENDBRANCH  36  37
BRANCH  36  44
HETATM   44  C28 UNL     1      -9.881   1.190  27.948  1.00  0.00     0.312 C 
BRANCH  44  45
HETATM   45  N4  UNL     1     -10.874   0.385  27.372  1.00  0.00     0.098 N 
HETATM   46  C29 UNL     1     -12.113   1.052  26.995  1.00  0.00     0.275 C 
HETATM   47  C30 UNL     1     -12.011   0.330  25.671  1.00  0.00     0.068 C 
HETATM   48  C31 UNL     1     -10.572   0.319  25.910  1.00  0.00     0.250 C 
BRANCH  48  49
HETATM   49  C32 UNL     1      -9.777  -0.880  25.530  1.00  0.00     0.265 C 
BRANCH  49  50
HETATM   50  N5  UNL     1      -8.628  -0.389  24.755  1.00  0.00    -0.077 N 
ATOM     51  H53 UNL     1      -8.523   0.625  24.788  1.00  0.00     0.274 HD
ATOM     52  H52 UNL     1      -7.728  -0.623  25.175  1.00  0.00     0.274 HD
ATOM     53  H51 UNL     1      -8.741  -0.753  23.810  1.00  0.00     0.274 HD
ENDBRANCH  49  50
ENDBRANCH  48  49
ENDBRANCH  44  45
ENDBRANCH  36  44
ENDBRANCH  35  36
ENDBRANCH  10  33
TORSDOF 17
ENDMDL
MODEL 2
REMARK VINA RESULT: -9.344332945      2.784      6.037
REMARK  17 active torsions:
REMARK  status: ('A' for Active; 'I' for Inactive)
REMARK    1  A    between atoms: C2_2  and  C3_3 
REMARK    2  A    between atoms: C6_6  and  C7_7 
REMARK    3  A    between atoms: C7_7  and  N1_8 
REMARK    4  A    between atoms: C8_10  and  O1_11 
REMARK    5  A    between atoms: C8_10  and  C9_13 
REMARK    6  A    between atoms: C9_13  and  C10_14 
REMARK    7  A    between atoms: C9_13  and  N6_46 
REMARK    8  A    between atoms: C10_14  and  C11_15 
REMARK       I    between atoms: C11_15  and  N2_17 
REMARK    9  A    between atoms: C18_24  and  C19_25 
REMARK       I    between atoms: C19_25  and  N3_27 
REMARK   10  A    between atoms: N3_27  and  C20_28 
REMARK   11  A    between atoms: C20_28  and  C21_29 
REMARK   12  A    between atoms: C20_28  and  C28_36 
REMARK   13  A    between atoms: C21_29  and  C22_30 
REMARK   14  A    between atoms: C28_36  and  N4_37 
REMARK   15  A    between atoms: C31_40  and  C32_41 
REMARK   16  A    between atoms: C32_41  and  N5_42 
REMARK       I    between atoms: N6_46  and  C33_48 
REMARK   17  A    between atoms: C33_48  and  C34_50 
ROOT
HETATM    1  C11 UNL     1     -10.279  -1.393  30.715  1.00  0.00     0.223 C 
HETATM    2  O2  UNL     1     -10.615  -0.641  31.694  1.00  0.00    -0.273 OA
HETATM    3  N2  UNL     1     -11.059  -1.326  29.565  1.00  0.00    -0.337 N 
HETATM    4  C12 UNL     1     -10.900  -2.186  28.364  1.00  0.00     0.132 C 
HETATM    5  C13 UNL     1     -10.821  -1.118  27.277  1.00  0.00     0.010 C 
HETATM    6  C14 UNL     1     -11.834  -1.422  26.206  1.00  0.00     0.007 C 
HETATM    7  C15 UNL     1     -12.274  -0.101  25.679  1.00  0.00     0.001 C 
HETATM    8  C16 UNL     1     -12.330   0.740  26.899  1.00  0.00     0.007 C 
HETATM    9  C17 UNL     1     -11.368   0.145  27.890  1.00  0.00     0.025 C 
HETATM   10  C18 UNL     1     -12.105  -0.479  29.088  1.00  0.00     0.198 C 
ENDROOT
BRANCH   1  11
HETATM   11  C10 UNL     1      -9.108  -2.215  30.978  1.00  0.00     0.136 C 
BRANCH  11  12
HETATM   12  C9  UNL     1      -7.851  -1.465  31.116  1.00  0.00     0.167 C 
BRANCH  12  13
HETATM   13  C8  UNL     1      -6.923  -2.051  32.091  1.00  0.00     0.135 C 
HETATM   14  N1  UNL     1      -5.649  -2.508  32.142  1.00  0.00    -0.372 N 
ATOM     15  H1  UNL     1      -5.051  -2.454  31.317  1.00  0.00     0.161 HD
BRANCH  14  16
HETATM   16  C7  UNL     1      -5.126  -3.091  33.412  1.00  0.00     0.126 C 
BRANCH  16  17
HETATM   17  C6  UNL     1      -4.218  -4.234  33.209  1.00  0.00     0.004 C 
HETATM   18  C5  UNL     1      -3.894  -4.583  31.774  1.00  0.00     0.006 C 
HETATM   19  C4  UNL     1      -4.195  -6.044  31.572  1.00  0.00     0.005 C 
HETATM   20  C3  UNL     1      -4.262  -6.613  32.983  1.00  0.00    -0.014 C 
HETATM   21  C37 UNL     1      -4.994  -5.486  33.687  1.00  0.00     0.011 C 
BRANCH  20  22
HETATM   22  C2  UNL     1      -2.833  -6.741  33.521  1.00  0.00     0.000 C 
HETATM   23  C1  UNL     1      -2.217  -8.039  33.064  1.00  0.00     0.005 C 
ENDBRANCH  20  22
ENDBRANCH  16  17
ENDBRANCH  14  16
BRANCH  13  24
HETATM   24  O1  UNL     1      -7.521  -2.209  33.306  1.00  0.00    -0.348 OA
ATOM     25  H1  UNL     1      -7.167  -1.579  33.924  1.00  0.00     0.219 HD
ENDBRANCH  13  24
ENDBRANCH  12  13
BRANCH  12  26
HETATM   26  N6  UNL     1      -7.967  -0.042  31.478  1.00  0.00    -0.348 N 
HETATM   27  C33 UNL     1      -6.956   0.874  31.193  1.00  0.00     0.222 C 
HETATM   28  O4  UNL     1      -5.936   0.432  30.535  1.00  0.00    -0.273 OA
ATOM     29  H6  UNL     1      -8.811   0.282  31.951  1.00  0.00     0.163 HD
BRANCH  27  30
HETATM   30  C34 UNL     1      -6.912   2.311  31.596  1.00  0.00     0.078 A 
HETATM   31  C35 UNL     1      -8.233   3.030  31.835  1.00  0.00     0.015 A 
HETATM   32  C36 UNL     1      -7.573   3.209  30.537  1.00  0.00     0.015 A 
ENDBRANCH  27  30
ENDBRANCH  12  26
ENDBRANCH  11  12
ENDBRANCH   1  11
BRANCH  10  33
HETATM   33  C19 UNL     1     -12.622   0.577  30.023  1.00  0.00     0.310 C 
HETATM   34  O3  UNL     1     -12.204   1.728  29.925  1.00  0.00    -0.255 OA
HETATM   35  N3  UNL     1     -13.536   0.087  30.920  1.00  0.00    -0.406 NA
BRANCH  35  36
HETATM   36  C20 UNL     1     -14.453  -0.398  31.825  1.00  0.00     0.195 C 
BRANCH  36  37
HETATM   37  C21 UNL     1     -14.259  -1.711  32.502  1.00  0.00     0.046 C 
BRANCH  37  38
HETATM   38  C22 UNL     1     -12.831  -2.144  32.677  1.00  0.00    -0.012 C 
HETATM   39  C23 UNL     1     -12.759  -3.593  32.241  1.00  0.00     0.005 C 
HETATM   40  C24 UNL     1     -13.249  -4.520  33.321  1.00  0.00     0.000 C 
HETATM   41  C25 UNL     1     -12.355  -4.517  34.572  1.00  0.00     0.000 C 
HETATM   42  C26 UNL     1     -11.520  -3.266  34.490  1.00  0.00     0.000 C 
HETATM   43  C27 UNL     1     -12.415  -2.067  34.131  1.00  0.00     0.005 C 
ENDBRANCH  37  38
ENDBRANCH  36  37
BRANCH  36  44
HETATM   44  C28 UNL     1     -15.847  -0.178  31.248  1.00  0.00     0.312 C 
BRANCH  44  45
HETATM   45  N4  UNL     1     -16.713   0.712  31.899  1.00  0.00     0.098 N 
HETATM   46  C29 UNL     1     -17.101   0.364  33.259  1.00  0.00     0.275 C 
HETATM   47  C30 UNL     1     -16.784   1.793  33.635  1.00  0.00     0.068 C 
HETATM   48  C31 UNL     1     -15.853   1.769  32.511  1.00  0.00     0.250 C 
BRANCH  48  49
HETATM   49  C32 UNL     1     -15.710   2.977  31.655  1.00  0.00     0.265 C 
BRANCH  49  50
HETATM   50  N5  UNL     1     -14.268   3.252  31.561  1.00  0.00    -0.077 N 
ATOM     51  H53 UNL     1     -13.833   3.439  32.464  1.00  0.00     0.274 HD
ATOM     52  H52 UNL     1     -13.715   2.430  31.322  1.00  0.00     0.274 HD
ATOM     53  H51 UNL     1     -14.164   4.018  30.896  1.00  0.00     0.274 HD
ENDBRANCH  49  50
ENDBRANCH  48  49
ENDBRANCH  44  45
ENDBRANCH  36  44
ENDBRANCH  35  36
ENDBRANCH  10  33
TORSDOF 17
ENDMDL
MODEL 3
REMARK VINA RESULT: -9.293492760      1.685      2.513
REMARK  17 active torsions:
REMARK  status: ('A' for Active; 'I' for Inactive)
REMARK    1  A    between atoms: C2_2  and  C3_3 
REMARK    2  A    between atoms: C6_6  and  C7_7 
REMARK    3  A    between atoms: C7_7  and  N1_8 
REMARK    4  A    between atoms: C8_10  and  O1_11 
REMARK    5  A    between atoms: C8_10  and  C9_13 
REMARK    6  A    between atoms: C9_13  and  C10_14 
REMARK    7  A    between atoms: C9_13  and  N6_46 
REMARK    8  A    between atoms: C10_14  and  C11_15 
REMARK       I    between atoms: C11_15  and  N2_17 
REMARK    9  A    between atoms: C18_24  and  C19_25 
REMARK       I    between atoms: C19_25  and  N3_27 
REMARK   10  A    between atoms: N3_27  and  C20_28 
REMARK   11  A    between atoms: C20_28  and  C21_29 
REMARK   12  A    between atoms: C20_28  and  C28_36 
REMARK   13  A    between atoms: C21_29  and  C22_30 
REMARK   14  A    between atoms: C28_36  and  N4_37 
REMARK   15  A    between atoms: C31_40  and  C32_41 
REMARK   16  A    between atoms: C32_41  and  N5_42 
REMARK       I    between atoms: N6_46  and  C33_48 
REMARK   17  A    between atoms: C33_48  and  C34_50 
ROOT
HETATM    1  C11 UNL     1      -8.144  -1.799  31.697  1.00  0.00     0.223 C 
HETATM    2  O2  UNL     1      -7.931  -1.565  30.458  1.00  0.00    -0.273 OA
HETATM    3  N2  UNL     1      -9.455  -1.688  32.150  1.00  0.00    -0.337 N 
HETATM    4  C12 UNL     1      -9.893  -1.817  33.562  1.00  0.00     0.132 C 
HETATM    5  C13 UNL     1     -10.996  -2.860  33.409  1.00  0.00     0.010 C 
HETATM    6  C14 UNL     1     -12.260  -2.348  34.044  1.00  0.00     0.007 C 
HETATM    7  C15 UNL     1     -13.376  -2.916  33.240  1.00  0.00     0.001 C 
HETATM    8  C16 UNL     1     -12.855  -2.848  31.854  1.00  0.00     0.007 C 
HETATM    9  C17 UNL     1     -11.354  -2.879  31.945  1.00  0.00     0.025 C 
HETATM   10  C18 UNL     1     -10.736  -1.529  31.538  1.00  0.00     0.198 C 
ENDROOT
BRANCH   1  11
HETATM   11  C10 UNL     1      -6.947  -2.148  32.445  1.00  0.00     0.136 C 
BRANCH  11  12
HETATM   12  C9  UNL     1      -5.893  -2.797  31.650  1.00  0.00     0.167 C 
BRANCH  12  13
HETATM   13  C8  UNL     1      -5.177  -3.853  32.376  1.00  0.00     0.135 C 
HETATM   14  N1  UNL     1      -4.481  -4.984  32.110  1.00  0.00    -0.372 N 
ATOM     15  H1  UNL     1      -4.322  -5.273  31.144  1.00  0.00     0.161 HD
BRANCH  14  16
HETATM   16  C7  UNL     1      -3.949  -5.804  33.236  1.00  0.00     0.126 C 
BRANCH  16  17
HETATM   17  C6  UNL     1      -3.156  -6.966  32.799  1.00  0.00     0.004 C 
HETATM   18  C5  UNL     1      -2.129  -7.483  33.783  1.00  0.00     0.006 C 
HETATM   19  C4  UNL     1      -0.801  -7.547  33.077  1.00  0.00     0.005 C 
HETATM   20  C3  UNL     1      -1.158  -7.495  31.598  1.00  0.00    -0.014 C 
HETATM   21  C37 UNL     1      -2.271  -6.465  31.631  1.00  0.00     0.011 C 
BRANCH  20  22
HETATM   22  C2  UNL     1      -1.709  -8.864  31.185  1.00  0.00     0.000 C 
HETATM   23  C1  UNL     1      -2.407  -8.765  29.852  1.00  0.00     0.005 C 
ENDBRANCH  20  22
ENDBRANCH  16  17
ENDBRANCH  14  16
BRANCH  13  24
HETATM   24  O1  UNL     1      -5.248  -3.659  33.724  1.00  0.00    -0.348 OA
ATOM     25  H1  UNL     1      -4.807  -2.850  33.957  1.00  0.00     0.219 HD
ENDBRANCH  13  24
ENDBRANCH  12  13
BRANCH  12  26
HETATM   26  N6  UNL     1      -4.852  -1.917  31.091  1.00  0.00    -0.348 N 
HETATM   27  C33 UNL     1      -4.067  -2.305  30.007  1.00  0.00     0.222 C 
HETATM   28  O4  UNL     1      -4.337  -3.446  29.468  1.00  0.00    -0.273 OA
ATOM     29  H6  UNL     1      -4.701  -0.999  31.510  1.00  0.00     0.163 HD
BRANCH  27  30
HETATM   30  C34 UNL     1      -2.920  -1.550  29.419  1.00  0.00     0.078 A 
HETATM   31  C35 UNL     1      -2.344  -2.035  28.096  1.00  0.00     0.015 A 
HETATM   32  C36 UNL     1      -1.660  -2.426  29.333  1.00  0.00     0.015 A 
ENDBRANCH  27  30
ENDBRANCH  12  26
ENDBRANCH  11  12
ENDBRANCH   1  11
BRANCH  10  33
HETATM   33  C19 UNL     1     -10.775  -1.336  30.049  1.00  0.00     0.310 C 
HETATM   34  O3  UNL     1     -10.672  -2.312  29.310  1.00  0.00    -0.255 OA
HETATM   35  N3  UNL     1     -10.916  -0.020  29.691  1.00  0.00    -0.406 NA
BRANCH  35  36
HETATM   36  C20 UNL     1     -11.055   1.299  29.323  1.00  0.00     0.195 C 
BRANCH  36  37
HETATM   37  C21 UNL     1     -10.194   2.365  29.906  1.00  0.00     0.046 C 
BRANCH  37  38
HETATM   38  C22 UNL     1      -9.079   1.884  30.791  1.00  0.00    -0.012 C 
HETATM   39  C23 UNL     1      -8.721   3.037  31.706  1.00  0.00     0.005 C 
HETATM   40  C24 UNL     1      -7.836   4.038  31.013  1.00  0.00     0.000 C 
HETATM   41  C25 UNL     1      -6.452   3.475  30.651  1.00  0.00     0.000 C 
HETATM   42  C26 UNL     1      -6.578   1.975  30.714  1.00  0.00     0.000 C 
HETATM   43  C27 UNL     1      -7.852   1.531  29.975  1.00  0.00     0.005 C 
ENDBRANCH  37  38
ENDBRANCH  36  37
BRANCH  36  44
HETATM   44  C28 UNL     1     -12.544   1.627  29.296  1.00  0.00     0.312 C 
BRANCH  44  45
HETATM   45  N4  UNL     1     -12.938   2.959  29.105  1.00  0.00     0.098 N 
HETATM   46  C29 UNL     1     -13.649   3.254  27.868  1.00  0.00     0.275 C 
HETATM   47  C30 UNL     1     -14.647   4.014  28.712  1.00  0.00     0.068 C 
HETATM   48  C31 UNL     1     -14.254   3.117  29.793  1.00  0.00     0.250 C 
BRANCH  48  49
HETATM   49  C32 UNL     1     -14.131   3.649  31.177  1.00  0.00     0.265 C 
BRANCH  49  50
HETATM   50  N5  UNL     1     -14.701   2.626  32.068  1.00  0.00    -0.077 N 
ATOM     51  H53 UNL     1     -13.996   2.035  32.508  1.00  0.00     0.274 HD
ATOM     52  H52 UNL     1     -15.096   3.012  32.925  1.00  0.00     0.274 HD
ATOM     53  H51 UNL     1     -15.377   2.103  31.511  1.00  0.00     0.274 HD
ENDBRANCH  49  50
ENDBRANCH  48  49
ENDBRANCH  44  45
ENDBRANCH  36  44
ENDBRANCH  35  36
ENDBRANCH  10  33
TORSDOF 17
ENDMDL
MODEL 4
REMARK VINA RESULT: -9.277855144      2.183      3.713
REMARK  17 active torsions:
REMARK  status: ('A' for Active; 'I' for Inactive)
REMARK    1  A    between atoms: C2_2  and  C3_3 
REMARK    2  A    between atoms: C6_6  and  C7_7 
REMARK    3  A    between atoms: C7_7  and  N1_8 
REMARK    4  A    between atoms: C8_10  and  O1_11 
REMARK    5  A    between atoms: C8_10  and  C9_13 
REMARK    6  A    between atoms: C9_13  and  C10_14 
REMARK    7  A    between atoms: C9_13  and  N6_46 
REMARK    8  A    between atoms: C10_14  and  C11_15 
REMARK       I    between atoms: C11_15  and  N2_17 
REMARK    9  A    between atoms: C18_24  and  C19_25 
REMARK       I    between atoms: C19_25  and  N3_27 
REMARK   10  A    between atoms: N3_27  and  C20_28 
REMARK   11  A    between atoms: C20_28  and  C21_29 
REMARK   12  A    between atoms: C20_28  and  C28_36 
REMARK   13  A    between atoms: C21_29  and  C22_30 
REMARK   14  A    between atoms: C28_36  and  N4_37 
REMARK   15  A    between atoms: C31_40  and  C32_41 
REMARK   16  A    between atoms: C32_41  and  N5_42 
REMARK       I    between atoms: N6_46  and  C33_48 
REMARK   17  A    between atoms: C33_48  and  C34_50 
ROOT
HETATM    1  C11 UNL     1      -8.213  -1.694  31.887  1.00  0.00     0.223 C 
HETATM    2  O2  UNL     1      -8.120  -1.277  30.682  1.00  0.00    -0.273 OA
HETATM    3  N2  UNL     1      -9.494  -1.874  32.401  1.00  0.00    -0.337 N 
HETATM    4  C12 UNL     1      -9.816  -2.250  33.801  1.00  0.00     0.132 C 
HETATM    5  C13 UNL     1     -10.731  -3.446  33.556  1.00  0.00     0.010 C 
HETATM    6  C14 UNL     1     -12.023  -3.247  34.302  1.00  0.00     0.007 C 
HETATM    7  C15 UNL     1     -13.072  -3.903  33.475  1.00  0.00     0.001 C 
HETATM    8  C16 UNL     1     -12.656  -3.576  32.090  1.00  0.00     0.007 C 
HETATM    9  C17 UNL     1     -11.170  -3.349  32.117  1.00  0.00     0.025 C 
HETATM   10  C18 UNL     1     -10.818  -1.872  31.867  1.00  0.00     0.198 C 
ENDROOT
BRANCH   1  11
HETATM   11  C10 UNL     1      -6.930  -1.913  32.536  1.00  0.00     0.136 C 
BRANCH  11  12
HETATM   12  C9  UNL     1      -5.946  -2.640  31.721  1.00  0.00     0.167 C 
BRANCH  12  13
HETATM   13  C8  UNL     1      -5.274  -3.726  32.443  1.00  0.00     0.135 C 
HETATM   14  N1  UNL     1      -4.491  -4.799  32.177  1.00  0.00    -0.372 N 
ATOM     15  H1  UNL     1      -4.195  -4.993  31.220  1.00  0.00     0.161 HD
BRANCH  14  16
HETATM   16  C7  UNL     1      -4.064  -5.695  33.291  1.00  0.00     0.126 C 
BRANCH  16  17
HETATM   17  C6  UNL     1      -3.301  -6.873  32.844  1.00  0.00     0.004 C 
HETATM   18  C5  UNL     1      -2.267  -7.406  33.810  1.00  0.00     0.006 C 
HETATM   19  C4  UNL     1      -0.953  -7.497  33.081  1.00  0.00     0.005 C 
HETATM   20  C3  UNL     1      -1.335  -7.443  31.608  1.00  0.00    -0.014 C 
HETATM   21  C37 UNL     1      -2.428  -6.392  31.658  1.00  0.00     0.011 C 
BRANCH  20  22
HETATM   22  C2  UNL     1      -1.919  -8.802  31.210  1.00  0.00     0.000 C 
HETATM   23  C1  UNL     1      -2.533  -8.724  29.835  1.00  0.00     0.005 C 
ENDBRANCH  20  22
ENDBRANCH  16  17
ENDBRANCH  14  16
BRANCH  13  24
HETATM   24  O1  UNL     1      -5.526  -3.658  33.781  1.00  0.00    -0.348 OA
ATOM     25  H1  UNL     1      -6.434  -3.884  33.950  1.00  0.00     0.219 HD
ENDBRANCH  13  24
ENDBRANCH  12  13
BRANCH  12  26
HETATM   26  N6  UNL     1      -4.871  -1.837  31.112  1.00  0.00    -0.348 N 
HETATM   27  C33 UNL     1      -4.121  -2.308  30.037  1.00  0.00     0.222 C 
HETATM   28  O4  UNL     1      -4.452  -3.457  29.552  1.00  0.00    -0.273 OA
ATOM     29  H6  UNL     1      -4.671  -0.910  31.489  1.00  0.00     0.163 HD
BRANCH  27  30
HETATM   30  C34 UNL     1      -2.946  -1.636  29.404  1.00  0.00     0.078 A 
HETATM   31  C35 UNL     1      -2.352  -2.261  28.150  1.00  0.00     0.015 A 
HETATM   32  C36 UNL     1      -1.702  -2.539  29.436  1.00  0.00     0.015 A 
ENDBRANCH  27  30
ENDBRANCH  12  26
ENDBRANCH  11  12
ENDBRANCH   1  11
BRANCH  10  33
HETATM   33  C19 UNL     1     -10.981  -1.510  30.418  1.00  0.00     0.310 C 
HETATM   34  O3  UNL     1     -10.166  -1.922  29.596  1.00  0.00    -0.255 OA
HETATM   35  N3  UNL     1     -12.073  -0.711  30.193  1.00  0.00    -0.406 NA
BRANCH  35  36
HETATM   36  C20 UNL     1     -13.166   0.093  29.959  1.00  0.00     0.195 C 
BRANCH  36  37
HETATM   37  C21 UNL     1     -14.475  -0.162  30.623  1.00  0.00     0.046 C 
BRANCH  37  38
HETATM   38  C22 UNL     1     -14.695   0.565  31.919  1.00  0.00    -0.012 C 
HETATM   39  C23 UNL     1     -14.527  -0.456  33.025  1.00  0.00     0.005 C 
HETATM   40  C24 UNL     1     -15.767  -1.292  33.199  1.00  0.00     0.000 C 
HETATM   41  C25 UNL     1     -16.978  -0.483  33.692  1.00  0.00     0.000 C 
HETATM   42  C26 UNL     1     -16.654   0.964  33.426  1.00  0.00     0.000 C 
HETATM   43  C27 UNL     1     -16.103   1.119  31.998  1.00  0.00     0.005 C 
ENDBRANCH  37  38
ENDBRANCH  36  37
BRANCH  36  44
HETATM   44  C28 UNL     1     -13.252   0.348  28.458  1.00  0.00     0.312 C 
BRANCH  44  45
HETATM   45  N4  UNL     1     -14.165  -0.398  27.699  1.00  0.00     0.098 N 
HETATM   46  C29 UNL     1     -14.643   0.218  26.468  1.00  0.00     0.275 C 
HETATM   47  C30 UNL     1     -14.361  -1.101  25.787  1.00  0.00     0.068 C 
HETATM   48  C31 UNL     1     -13.356  -1.301  26.827  1.00  0.00     0.250 C 
BRANCH  48  49
HETATM   49  C32 UNL     1     -13.163  -2.657  27.406  1.00  0.00     0.265 C 
BRANCH  49  50
HETATM   50  N5  UNL     1     -11.749  -3.002  27.197  1.00  0.00    -0.077 N 
ATOM     51  H53 UNL     1     -11.602  -3.653  26.426  1.00  0.00     0.274 HD
ATOM     52  H52 UNL     1     -11.197  -2.232  26.819  1.00  0.00     0.274 HD
ATOM     53  H51 UNL     1     -11.401  -3.349  28.091  1.00  0.00     0.274 HD
ENDBRANCH  49  50
ENDBRANCH  48  49
ENDBRANCH  44  45
ENDBRANCH  36  44
ENDBRANCH  35  36
ENDBRANCH  10  33
TORSDOF 17
ENDMDL
MODEL 5
REMARK VINA RESULT: -9.233274242      1.729      4.658
REMARK  17 active torsions:
REMARK  status: ('A' for Active; 'I' for Inactive)
REMARK    1  A    between atoms: C2_2  and  C3_3 
REMARK    2  A    between atoms: C6_6  and  C7_7 
REMARK    3  A    between atoms: C7_7  and  N1_8 
REMARK    4  A    between atoms: C8_10  and  O1_11 
REMARK    5  A    between atoms: C8_10  and  C9_13 
REMARK    6  A    between atoms: C9_13  and  C10_14 
REMARK    7  A    between atoms: C9_13  and  N6_46 
REMARK    8  A    between atoms: C10_14  and  C11_15 
REMARK       I    between atoms: C11_15  and  N2_17 
REMARK    9  A    between atoms: C18_24  and  C19_25 
REMARK       I    between atoms: C19_25  and  N3_27 
REMARK   10  A    between atoms: N3_27  and  C20_28 
REMARK   11  A    between atoms: C20_28  and  C21_29 
REMARK   12  A    between atoms: C20_28  and  C28_36 
REMARK   13  A    between atoms: C21_29  and  C22_30 
REMARK   14  A    between atoms: C28_36  and  N4_37 
REMARK   15  A    between atoms: C31_40  and  C32_41 
REMARK   16  A    between atoms: C32_41  and  N5_42 
REMARK       I    between atoms: N6_46  and  C33_48 
REMARK   17  A    between atoms: C33_48  and  C34_50 
ROOT
HETATM    1  C11 UNL     1      -7.019  -2.160  32.812  1.00  0.00     0.223 C 
HETATM    2  O2  UNL     1      -8.050  -2.772  33.257  1.00  0.00    -0.273 OA
HETATM    3  N2  UNL     1      -7.236  -1.094  31.944  1.00  0.00    -0.337 N 
HETATM    4  C12 UNL     1      -6.177  -0.325  31.241  1.00  0.00     0.132 C 
HETATM    5  C13 UNL     1      -6.571   1.096  31.633  1.00  0.00     0.010 C 
HETATM    6  C14 UNL     1      -6.697   1.938  30.393  1.00  0.00     0.007 C 
HETATM    7  C15 UNL     1      -7.765   2.932  30.686  1.00  0.00     0.001 C 
HETATM    8  C16 UNL     1      -8.750   2.141  31.463  1.00  0.00     0.007 C 
HETATM    9  C17 UNL     1      -7.996   1.017  32.118  1.00  0.00     0.025 C 
HETATM   10  C18 UNL     1      -8.372  -0.346  31.510  1.00  0.00     0.198 C 
ENDROOT
BRANCH   1  11
HETATM   11  C10 UNL     1      -5.759  -2.699  33.298  1.00  0.00     0.136 C 
BRANCH  11  12
HETATM   12  C9  UNL     1      -4.988  -3.456  32.300  1.00  0.00     0.167 C 
BRANCH  12  13
HETATM   13  C8  UNL     1      -4.529  -4.764  32.782  1.00  0.00     0.135 C 
HETATM   14  N1  UNL     1      -4.586  -6.066  32.412  1.00  0.00    -0.372 N 
ATOM     15  H1  UNL     1      -5.039  -6.332  31.538  1.00  0.00     0.161 HD
BRANCH  14  16
HETATM   16  C7  UNL     1      -3.982  -7.108  33.292  1.00  0.00     0.126 C 
BRANCH  16  17
HETATM   17  C6  UNL     1      -2.864  -7.837  32.666  1.00  0.00     0.004 C 
HETATM   18  C5  UNL     1      -1.657  -8.090  33.542  1.00  0.00     0.006 C 
HETATM   19  C4  UNL     1      -0.442  -7.576  32.817  1.00  0.00     0.005 C 
HETATM   20  C3  UNL     1      -0.894  -7.441  31.370  1.00  0.00    -0.014 C 
HETATM   21  C37 UNL     1      -2.292  -6.890  31.581  1.00  0.00     0.011 C 
BRANCH  20  22
HETATM   22  C2  UNL     1      -0.960  -8.841  30.751  1.00  0.00     0.000 C 
HETATM   23  C1  UNL     1      -1.973  -8.872  29.636  1.00  0.00     0.005 C 
ENDBRANCH  20  22
ENDBRANCH  16  17
ENDBRANCH  14  16
BRANCH  13  24
HETATM   24  O1  UNL     1      -3.866  -4.647  33.967  1.00  0.00    -0.348 OA
ATOM     25  H1  UNL     1      -2.974  -4.961  33.870  1.00  0.00     0.219 HD
ENDBRANCH  13  24
ENDBRANCH  12  13
BRANCH  12  26
HETATM   26  N6  UNL     1      -3.797  -2.792  31.744  1.00  0.00    -0.348 N 
HETATM   27  C33 UNL     1      -3.498  -2.835  30.384  1.00  0.00     0.222 C 
HETATM   28  O4  UNL     1      -4.350  -3.429  29.617  1.00  0.00    -0.273 OA
ATOM     29  H6  UNL     1      -3.172  -2.286  32.373  1.00  0.00     0.163 HD
BRANCH  27  30
HETATM   30  C34 UNL     1      -2.275  -2.292  29.719  1.00  0.00     0.078 A 
HETATM   31  C35 UNL     1      -1.724  -3.038  28.512  1.00  0.00     0.015 A 
HETATM   32  C36 UNL     1      -1.101  -3.280  29.818  1.00  0.00     0.015 A 
ENDBRANCH  27  30
ENDBRANCH  12  26
ENDBRANCH  11  12
ENDBRANCH   1  11
BRANCH  10  33
HETATM   33  C19 UNL     1      -9.723  -0.800  31.983  1.00  0.00     0.310 C 
HETATM   34  O3  UNL     1      -9.973  -0.804  33.186  1.00  0.00    -0.255 OA
HETATM   35  N3  UNL     1     -10.542  -1.184  30.952  1.00  0.00    -0.406 NA
BRANCH  35  36
HETATM   36  C20 UNL     1     -11.369  -1.573  29.922  1.00  0.00     0.195 C 
BRANCH  36  37
HETATM   37  C21 UNL     1     -11.421  -0.817  28.639  1.00  0.00     0.046 C 
BRANCH  37  38
HETATM   38  C22 UNL     1     -10.339  -1.145  27.651  1.00  0.00    -0.012 C 
HETATM   39  C23 UNL     1     -10.051   0.128  26.883  1.00  0.00     0.005 C 
HETATM   40  C24 UNL     1     -11.069   0.363  25.800  1.00  0.00     0.000 C 
HETATM   41  C25 UNL     1     -11.026  -0.697  24.688  1.00  0.00     0.000 C 
HETATM   42  C26 UNL     1     -10.275  -1.873  25.256  1.00  0.00     0.000 C 
HETATM   43  C27 UNL     1     -10.805  -2.196  26.664  1.00  0.00     0.005 C 
ENDBRANCH  37  38
ENDBRANCH  36  37
BRANCH  36  44
HETATM   44  C28 UNL     1     -12.731  -1.917  30.515  1.00  0.00     0.312 C 
BRANCH  44  45
HETATM   45  N4  UNL     1     -13.156  -1.238  31.666  1.00  0.00     0.098 N 
HETATM   46  C29 UNL     1     -14.489  -0.653  31.621  1.00  0.00     0.275 C 
HETATM   47  C30 UNL     1     -14.726  -1.273  32.979  1.00  0.00     0.068 C 
HETATM   48  C31 UNL     1     -13.738  -2.269  32.577  1.00  0.00     0.250 C 
BRANCH  48  49
HETATM   49  C32 UNL     1     -12.766  -2.781  33.581  1.00  0.00     0.265 C 
BRANCH  49  50
HETATM   50  N5  UNL     1     -13.158  -4.169  33.869  1.00  0.00    -0.077 N 
ATOM     51  H53 UNL     1     -13.937  -4.241  34.524  1.00  0.00     0.274 HD
ATOM     52  H52 UNL     1     -13.611  -4.633  33.082  1.00  0.00     0.274 HD
ATOM     53  H51 UNL     1     -12.315  -4.645  34.189  1.00  0.00     0.274 HD
ENDBRANCH  49  50
ENDBRANCH  48  49
ENDBRANCH  44  45
ENDBRANCH  36  44
ENDBRANCH  35  36
ENDBRANCH  10  33
TORSDOF 17
ENDMDL
