MODEL 1
REMARK VINA RESULT: -9.012719036      0.000      0.000
REMARK  16 active torsions:
REMARK  status: ('A' for Active; 'I' for Inactive)
REMARK    1  A    between atoms: C2_2  and  C3_3 
REMARK    2  A    between atoms: C3_3  and  C4_4 
REMARK    3  A    between atoms: C3_3  and  C11_11 
REMARK    4  A    between atoms: C4_4  and  C5_5 
REMARK       I    between atoms: C11_11  and  N1_13 
REMARK    5  A    between atoms: N1_13  and  C12_15 
REMARK    6  A    between atoms: C12_15  and  C14_17 
REMARK       I    between atoms: C14_17  and  N2_19 
REMARK    7  A    between atoms: N2_19  and  C15_21 
REMARK    8  A    between atoms: C15_21  and  C16_22 
REMARK    9  A    between atoms: C15_21  and  C35_51 
REMARK       I    between atoms: C16_22  and  N3_24 
REMARK   10  A    between atoms: C17_25  and  C18_26 
REMARK       I    between atoms: C18_26  and  N4_28 
REMARK   11  A    between atoms: N4_28  and  C19_30 
REMARK   12  A    between atoms: C19_30  and  C20_31 
REMARK   13  A    between atoms: C19_30  and  C24_40 
REMARK   14  A    between atoms: C20_31  and  O5_32 
REMARK   15  A    between atoms: C20_31  and  C21_34 
REMARK       I    between atoms: C21_34  and  N5_36 
REMARK   16  A    between atoms: N5_36  and  C22_38 
ROOT
HETATM    1  C16 UNL     1     -10.695   0.412  28.827  1.00  0.00     0.244 C 
HETATM    2  O3  UNL     1      -9.713   0.715  28.037  1.00  0.00    -0.271 OA
HETATM    3  N3  UNL     1     -11.983   0.508  28.309  1.00  0.00    -0.327 N 
HETATM    4  C17 UNL     1     -13.333   0.438  28.795  1.00  0.00     0.185 C 
HETATM    5  C27 UNL     1     -13.764  -0.859  28.156  1.00  0.00     0.033 A 
HETATM    6  C28 UNL     1     -13.139  -0.665  26.723  1.00  0.00     0.029 A 
HETATM    7  C29 UNL     1     -14.542  -0.888  26.895  1.00  0.00    -0.035 A 
HETATM    8  C30 UNL     1     -15.005  -2.333  26.557  1.00  0.00     0.016 C 
HETATM    9  C31 UNL     1     -15.675   0.048  26.649  1.00  0.00     0.016 C 
HETATM   10  C32 UNL     1     -12.302   0.571  26.846  1.00  0.00     0.034 C 
HETATM   11  C33 UNL     1     -12.888   1.864  26.442  1.00  0.00     0.039 C 
HETATM   12  C34 UNL     1     -11.078   0.381  25.976  1.00  0.00     0.039 C 
ENDROOT
BRANCH   1  13
HETATM   13  C15 UNL     1     -10.252  -0.011  30.186  1.00  0.00     0.180 C 
BRANCH  13  14
HETATM   14  N2  UNL     1      -8.794  -0.095  30.233  1.00  0.00    -0.346 N 
HETATM   15  C14 UNL     1      -7.943   0.567  31.098  1.00  0.00     0.240 C 
HETATM   16  O2  UNL     1      -8.385   1.353  31.969  1.00  0.00    -0.271 OA
ATOM     17  H2  UNL     1      -8.354  -0.712  29.550  1.00  0.00     0.163 HD
BRANCH  15  18
HETATM   18  C12 UNL     1      -6.453   0.390  31.043  1.00  0.00     0.172 C 
HETATM   19  C13 UNL     1      -5.703   1.661  31.349  1.00  0.00     0.042 C 
BRANCH  18  20
HETATM   20  N1  UNL     1      -5.987  -0.644  31.901  1.00  0.00    -0.348 N 
HETATM   21  C11 UNL     1      -5.404  -1.833  31.425  1.00  0.00     0.226 C 
HETATM   22  O1  UNL     1      -5.294  -1.996  30.187  1.00  0.00    -0.273 OA
ATOM     23  H1  UNL     1      -6.079  -0.518  32.910  1.00  0.00     0.163 HD
BRANCH  21  24
HETATM   24  C3  UNL     1      -4.922  -2.874  32.420  1.00  0.00     0.100 C 
BRANCH  24  25
HETATM   25  C2  UNL     1      -5.555  -2.677  33.712  1.00  0.00    -0.023 C 
HETATM   26  C1  UNL     1      -6.815  -3.057  33.927  1.00  0.00     0.008 C 
ENDBRANCH  24  25
BRANCH  24  27
HETATM   27  C4  UNL     1      -4.857  -4.211  31.818  1.00  0.00     0.022 C 
BRANCH  27  28
HETATM   28  C5  UNL     1      -3.682  -5.098  32.099  1.00  0.00    -0.013 C 
HETATM   29  C6  UNL     1      -2.861  -5.335  30.905  1.00  0.00     0.005 C 
HETATM   30  C7  UNL     1      -2.239  -6.708  30.770  1.00  0.00     0.000 C 
HETATM   31  C8  UNL     1      -3.069  -7.827  31.310  1.00  0.00     0.000 C 
HETATM   32  C9  UNL     1      -3.297  -7.478  32.788  1.00  0.00     0.000 C 
HETATM   33  C10 UNL     1      -4.260  -6.330  32.772  1.00  0.00     0.005 C 
ENDBRANCH  27  28
ENDBRANCH  24  27
ENDBRANCH  21  24
ENDBRANCH  18  20
ENDBRANCH  15  18
ENDBRANCH  13  14
BRANCH  13  34
HETATM   34  C35 UNL     1     -10.747  -1.381  30.531  1.00  0.00     0.009 C 
HETATM   35  C36 UNL     1      -9.769  -2.017  31.496  1.00  0.00     0.012 C 
HETATM   36  C37 UNL     1     -10.823  -2.283  29.309  1.00  0.00     0.012 C 
ENDBRANCH  13  34
ENDBRANCH   1  13
BRANCH   4  37
HETATM   37  C18 UNL     1     -13.729   0.739  30.119  1.00  0.00     0.241 C 
HETATM   38  O4  UNL     1     -13.548   1.842  30.669  1.00  0.00    -0.271 OA
HETATM   39  N4  UNL     1     -14.377  -0.261  30.885  1.00  0.00    -0.348 N 
ATOM     40  H4  UNL     1     -14.511  -1.174  30.449  1.00  0.00     0.163 HD
BRANCH  39  41
HETATM   41  C19 UNL     1     -14.867  -0.089  32.247  1.00  0.00     0.150 C 
BRANCH  41  42
HETATM   42  C20 UNL     1     -14.620  -1.284  33.061  1.00  0.00     0.134 C 
BRANCH  42  43
HETATM   43  O5  UNL     1     -15.679  -1.916  33.497  1.00  0.00    -0.358 OA
ATOM     44  H5  UNL     1     -15.524  -2.612  34.124  1.00  0.00     0.217 HD
ENDBRANCH  42  43
BRANCH  42  45
HETATM   45  C21 UNL     1     -13.383  -1.873  33.454  1.00  0.00     0.272 C 
HETATM   46  O6  UNL     1     -12.386  -1.214  33.765  1.00  0.00    -0.266 OA
HETATM   47  N5  UNL     1     -13.215  -3.310  33.514  1.00  0.00    -0.356 N 
ATOM     48  H5  UNL     1     -14.002  -3.906  33.256  1.00  0.00     0.162 HD
BRANCH  47  49
HETATM   49  C22 UNL     1     -11.986  -3.927  33.920  1.00  0.00     0.118 C 
HETATM   50  C23 UNL     1     -12.260  -5.048  34.926  1.00  0.00     0.026 C 
ENDBRANCH  47  49
ENDBRANCH  42  45
ENDBRANCH  41  42
BRANCH  41  51
HETATM   51  C24 UNL     1     -16.273   0.375  32.282  1.00  0.00     0.007 C 
HETATM   52  C25 UNL     1     -16.318   1.847  32.778  1.00  0.00     0.012 C 
HETATM   53  C26 UNL     1     -16.987   0.273  30.969  1.00  0.00     0.012 C 
ENDBRANCH  41  51
ENDBRANCH  39  41
ENDBRANCH   4  37
TORSDOF 16
ENDMDL
MODEL 2
REMARK VINA RESULT: -8.597582777      9.410     17.315
REMARK  16 active torsions:
REMARK  status: ('A' for Active; 'I' for Inactive)
REMARK    1  A    between atoms: C2_2  and  C3_3 
REMARK    2  A    between atoms: C3_3  and  C4_4 
REMARK    3  A    between atoms: C3_3  and  C11_11 
REMARK    4  A    between atoms: C4_4  and  C5_5 
REMARK       I    between atoms: C11_11  and  N1_13 
REMARK    5  A    between atoms: N1_13  and  C12_15 
REMARK    6  A    between atoms: C12_15  and  C14_17 
REMARK       I    between atoms: C14_17  and  N2_19 
REMARK    7  A    between atoms: N2_19  and  C15_21 
REMARK    8  A    between atoms: C15_21  and  C16_22 
REMARK    9  A    between atoms: C15_21  and  C35_51 
REMARK       I    between atoms: C16_22  and  N3_24 
REMARK   10  A    between atoms: C17_25  and  C18_26 
REMARK       I    between atoms: C18_26  and  N4_28 
REMARK   11  A    between atoms: N4_28  and  C19_30 
REMARK   12  A    between atoms: C19_30  and  C20_31 
REMARK   13  A    between atoms: C19_30  and  C24_40 
REMARK   14  A    between atoms: C20_31  and  O5_32 
REMARK   15  A    between atoms: C20_31  and  C21_34 
REMARK       I    between atoms: C21_34  and  N5_36 
REMARK   16  A    between atoms: N5_36  and  C22_38 
ROOT
HETATM    1  C16 UNL     1       5.797  -5.582  29.005  1.00  0.00     0.244 C 
HETATM    2  O3  UNL     1       5.904  -5.465  30.292  1.00  0.00    -0.271 OA
HETATM    3  N3  UNL     1       6.959  -5.433  28.254  1.00  0.00    -0.327 N 
HETATM    4  C17 UNL     1       7.323  -5.323  26.868  1.00  0.00     0.185 C 
HETATM    5  C27 UNL     1       8.030  -6.643  26.687  1.00  0.00     0.033 A 
HETATM    6  C28 UNL     1       8.862  -6.680  28.025  1.00  0.00     0.029 A 
HETATM    7  C29 UNL     1       9.506  -6.754  26.749  1.00  0.00    -0.035 A 
HETATM    8  C30 UNL     1       9.978  -8.182  26.353  1.00  0.00     0.016 C 
HETATM    9  C31 UNL     1      10.397  -5.756  26.092  1.00  0.00     0.016 C 
HETATM   10  C32 UNL     1       8.345  -5.519  28.817  1.00  0.00     0.034 C 
HETATM   11  C33 UNL     1       9.072  -4.236  28.746  1.00  0.00     0.039 C 
HETATM   12  C34 UNL     1       8.356  -5.922  30.276  1.00  0.00     0.039 C 
ENDROOT
BRANCH   1  13
HETATM   13  C15 UNL     1       4.408  -5.877  28.551  1.00  0.00     0.180 C 
BRANCH  13  14
HETATM   14  N2  UNL     1       3.588  -6.291  29.686  1.00  0.00    -0.346 N 
HETATM   15  C14 UNL     1       2.330  -5.830  30.026  1.00  0.00     0.240 C 
HETATM   16  O2  UNL     1       1.755  -4.951  29.342  1.00  0.00    -0.271 OA
ATOM     17  H2  UNL     1       3.989  -7.002  30.298  1.00  0.00     0.163 HD
BRANCH  15  18
HETATM   18  C12 UNL     1       1.588  -6.344  31.225  1.00  0.00     0.172 C 
HETATM   19  C13 UNL     1       1.809  -5.499  32.454  1.00  0.00     0.042 C 
BRANCH  18  20
HETATM   20  N1  UNL     1       0.191  -6.476  30.996  1.00  0.00    -0.348 N 
HETATM   21  C11 UNL     1      -0.651  -7.254  31.813  1.00  0.00     0.226 C 
HETATM   22  O1  UNL     1      -0.150  -7.867  32.783  1.00  0.00    -0.273 OA
ATOM     23  H1  UNL     1      -0.221  -5.983  30.203  1.00  0.00     0.163 HD
BRANCH  21  24
HETATM   24  C3  UNL     1      -2.135  -7.323  31.497  1.00  0.00     0.100 C 
BRANCH  24  25
HETATM   25  C2  UNL     1      -2.469  -8.601  30.894  1.00  0.00    -0.023 C 
HETATM   26  C1  UNL     1      -2.614  -8.725  29.574  1.00  0.00     0.008 C 
ENDBRANCH  24  25
BRANCH  24  27
HETATM   27  C4  UNL     1      -2.949  -6.778  32.589  1.00  0.00     0.022 C 
BRANCH  27  28
HETATM   28  C5  UNL     1      -4.108  -5.880  32.278  1.00  0.00    -0.013 C 
HETATM   29  C6  UNL     1      -3.870  -5.049  31.092  1.00  0.00     0.005 C 
HETATM   30  C7  UNL     1      -4.441  -3.647  31.120  1.00  0.00     0.000 C 
HETATM   31  C8  UNL     1      -4.447  -3.001  32.467  1.00  0.00     0.000 C 
HETATM   32  C9  UNL     1      -5.272  -3.940  33.358  1.00  0.00     0.000 C 
HETATM   33  C10 UNL     1      -4.400  -5.140  33.571  1.00  0.00     0.005 C 
ENDBRANCH  27  28
ENDBRANCH  24  27
ENDBRANCH  21  24
ENDBRANCH  18  20
ENDBRANCH  15  18
ENDBRANCH  13  14
BRANCH  13  34
HETATM   34  C35 UNL     1       4.370  -7.020  27.585  1.00  0.00     0.009 C 
HETATM   35  C36 UNL     1       3.261  -6.768  26.585  1.00  0.00     0.012 C 
HETATM   36  C37 UNL     1       4.060  -8.339  28.276  1.00  0.00     0.012 C 
ENDBRANCH  13  34
ENDBRANCH   1  13
BRANCH   4  37
HETATM   37  C18 UNL     1       6.474  -4.831  25.850  1.00  0.00     0.241 C 
HETATM   38  O4  UNL     1       6.089  -5.504  24.875  1.00  0.00    -0.271 OA
HETATM   39  N4  UNL     1       6.018  -3.492  25.925  1.00  0.00    -0.348 N 
ATOM     40  H4  UNL     1       6.345  -2.927  26.710  1.00  0.00     0.163 HD
BRANCH  39  41
HETATM   41  C19 UNL     1       5.118  -2.857  24.970  1.00  0.00     0.150 C 
BRANCH  41  42
HETATM   42  C20 UNL     1       5.772  -1.744  24.275  1.00  0.00     0.134 C 
BRANCH  42  43
HETATM   43  O5  UNL     1       7.055  -1.871  24.059  1.00  0.00    -0.358 OA
ATOM     44  H5  UNL     1       7.627  -1.635  24.780  1.00  0.00     0.217 HD
ENDBRANCH  42  43
BRANCH  42  45
HETATM   45  C21 UNL     1       5.214  -0.524  23.790  1.00  0.00     0.272 C 
HETATM   46  O6  UNL     1       5.625   0.590  24.124  1.00  0.00    -0.266 OA
HETATM   47  N5  UNL     1       4.107  -0.519  22.858  1.00  0.00    -0.356 N 
ATOM     48  H5  UNL     1       3.717  -1.412  22.554  1.00  0.00     0.162 HD
BRANCH  47  49
HETATM   49  C22 UNL     1       3.537   0.692  22.343  1.00  0.00     0.118 C 
HETATM   50  C23 UNL     1       2.015   0.675  22.505  1.00  0.00     0.026 C 
ENDBRANCH  47  49
ENDBRANCH  42  45
ENDBRANCH  41  42
BRANCH  41  51
HETATM   51  C24 UNL     1       3.817  -2.496  25.581  1.00  0.00     0.007 C 
HETATM   52  C25 UNL     1       2.695  -3.373  24.961  1.00  0.00     0.012 C 
HETATM   53  C26 UNL     1       3.781  -2.627  27.073  1.00  0.00     0.012 C 
ENDBRANCH  41  51
ENDBRANCH  39  41
ENDBRANCH   4  37
TORSDOF 16
ENDMDL
MODEL 3
REMARK VINA RESULT: -8.590125696     10.106     13.942
REMARK  16 active torsions:
REMARK  status: ('A' for Active; 'I' for Inactive)
REMARK    1  A    between atoms: C2_2  and  C3_3 
REMARK    2  A    between atoms: C3_3  and  C4_4 
REMARK    3  A    between atoms: C3_3  and  C11_11 
REMARK    4  A    between atoms: C4_4  and  C5_5 
REMARK       I    between atoms: C11_11  and  N1_13 
REMARK    5  A    between atoms: N1_13  and  C12_15 
REMARK    6  A    between atoms: C12_15  and  C14_17 
REMARK       I    between atoms: C14_17  and  N2_19 
REMARK    7  A    between atoms: N2_19  and  C15_21 
REMARK    8  A    between atoms: C15_21  and  C16_22 
REMARK    9  A    between atoms: C15_21  and  C35_51 
REMARK       I    between atoms: C16_22  and  N3_24 
REMARK   10  A    between atoms: C17_25  and  C18_26 
REMARK       I    between atoms: C18_26  and  N4_28 
REMARK   11  A    between atoms: N4_28  and  C19_30 
REMARK   12  A    between atoms: C19_30  and  C20_31 
REMARK   13  A    between atoms: C19_30  and  C24_40 
REMARK   14  A    between atoms: C20_31  and  O5_32 
REMARK   15  A    between atoms: C20_31  and  C21_34 
REMARK       I    between atoms: C21_34  and  N5_36 
REMARK   16  A    between atoms: N5_36  and  C22_38 
ROOT
HETATM    1  C16 UNL     1      -0.763  -2.379  25.525  1.00  0.00     0.244 C 
HETATM    2  O3  UNL     1      -2.017  -2.428  25.851  1.00  0.00    -0.271 OA
HETATM    3  N3  UNL     1      -0.425  -2.774  24.234  1.00  0.00    -0.327 N 
HETATM    4  C17 UNL     1       0.769  -3.035  23.479  1.00  0.00     0.185 C 
HETATM    5  C27 UNL     1       0.722  -1.871  22.521  1.00  0.00     0.033 A 
HETATM    6  C28 UNL     1      -0.811  -1.890  22.160  1.00  0.00     0.029 A 
HETATM    7  C29 UNL     1       0.191  -2.011  21.145  1.00  0.00    -0.035 A 
HETATM    8  C30 UNL     1       0.424  -0.715  20.320  1.00  0.00     0.016 C 
HETATM    9  C31 UNL     1       0.520  -3.188  20.293  1.00  0.00     0.016 C 
HETATM   10  C32 UNL     1      -1.403  -2.891  23.104  1.00  0.00     0.034 C 
HETATM   11  C33 UNL     1      -1.578  -4.282  22.640  1.00  0.00     0.039 C 
HETATM   12  C34 UNL     1      -2.786  -2.402  23.479  1.00  0.00     0.039 C 
ENDROOT
BRANCH   1  13
HETATM   13  C15 UNL     1       0.115  -1.880  26.621  1.00  0.00     0.180 C 
BRANCH  13  14
HETATM   14  N2  UNL     1      -0.375  -2.358  27.911  1.00  0.00    -0.346 N 
HETATM   15  C14 UNL     1       0.303  -3.137  28.830  1.00  0.00     0.240 C 
HETATM   16  O2  UNL     1       1.473  -3.529  28.611  1.00  0.00    -0.271 OA
ATOM     17  H2  UNL     1      -1.326  -2.087  28.163  1.00  0.00     0.163 HD
BRANCH  15  18
HETATM   18  C12 UNL     1      -0.318  -3.562  30.129  1.00  0.00     0.172 C 
HETATM   19  C13 UNL     1      -1.822  -3.455  30.119  1.00  0.00     0.042 C 
BRANCH  18  20
HETATM   20  N1  UNL     1       0.053  -4.880  30.515  1.00  0.00    -0.348 N 
HETATM   21  C11 UNL     1       1.025  -5.147  31.496  1.00  0.00     0.226 C 
HETATM   22  O1  UNL     1       1.599  -4.184  32.054  1.00  0.00    -0.273 OA
ATOM     23  H1  UNL     1      -0.408  -5.668  30.059  1.00  0.00     0.163 HD
BRANCH  21  24
HETATM   24  C3  UNL     1       1.344  -6.589  31.851  1.00  0.00     0.100 C 
BRANCH  24  25
HETATM   25  C2  UNL     1       2.781  -6.801  31.885  1.00  0.00    -0.023 C 
HETATM   26  C1  UNL     1       3.514  -6.736  30.773  1.00  0.00     0.008 C 
ENDBRANCH  24  25
BRANCH  24  27
HETATM   27  C4  UNL     1       0.492  -7.082  32.939  1.00  0.00     0.022 C 
BRANCH  27  28
HETATM   28  C5  UNL     1      -0.754  -7.852  32.620  1.00  0.00    -0.013 C 
HETATM   29  C6  UNL     1      -0.853  -8.191  31.194  1.00  0.00     0.005 C 
HETATM   30  C7  UNL     1      -2.240  -8.178  30.589  1.00  0.00     0.000 C 
HETATM   31  C8  UNL     1      -3.159  -7.144  31.152  1.00  0.00     0.000 C 
HETATM   32  C9  UNL     1      -3.228  -7.444  32.655  1.00  0.00     0.000 C 
HETATM   33  C10 UNL     1      -1.892  -7.030  33.196  1.00  0.00     0.005 C 
ENDBRANCH  27  28
ENDBRANCH  24  27
ENDBRANCH  21  24
ENDBRANCH  18  20
ENDBRANCH  15  18
ENDBRANCH  13  14
BRANCH  13  34
HETATM   34  C35 UNL     1       0.098  -0.385  26.710  1.00  0.00     0.009 C 
HETATM   35  C36 UNL     1       0.780   0.178  25.482  1.00  0.00     0.012 C 
HETATM   36  C37 UNL     1       0.865   0.121  27.922  1.00  0.00     0.012 C 
ENDBRANCH  13  34
ENDBRANCH   1  13
BRANCH   4  37
HETATM   37  C18 UNL     1       2.003  -3.439  24.040  1.00  0.00     0.241 C 
HETATM   38  O4  UNL     1       2.332  -4.626  24.224  1.00  0.00    -0.271 OA
HETATM   39  N4  UNL     1       2.940  -2.448  24.421  1.00  0.00    -0.348 N 
ATOM     40  H4  UNL     1       2.671  -1.472  24.293  1.00  0.00     0.163 HD
BRANCH  39  41
HETATM   41  C19 UNL     1       4.260  -2.711  24.982  1.00  0.00     0.150 C 
BRANCH  41  42
HETATM   42  C20 UNL     1       4.182  -3.026  26.412  1.00  0.00     0.134 C 
BRANCH  42  43
HETATM   43  O5  UNL     1       3.759  -2.067  27.193  1.00  0.00    -0.358 OA
ATOM     44  H5  UNL     1       3.221  -2.331  27.929  1.00  0.00     0.217 HD
ENDBRANCH  42  43
BRANCH  42  45
HETATM   45  C21 UNL     1       4.500  -4.238  27.092  1.00  0.00     0.272 C 
HETATM   46  O6  UNL     1       5.038  -4.272  28.202  1.00  0.00    -0.266 OA
HETATM   47  N5  UNL     1       4.206  -5.530  26.509  1.00  0.00    -0.356 N 
ATOM     48  H5  UNL     1       3.772  -5.564  25.586  1.00  0.00     0.162 HD
BRANCH  47  49
HETATM   49  C22 UNL     1       4.503  -6.764  27.178  1.00  0.00     0.118 C 
HETATM   50  C23 UNL     1       3.297  -7.705  27.118  1.00  0.00     0.026 C 
ENDBRANCH  47  49
ENDBRANCH  42  45
ENDBRANCH  41  42
BRANCH  41  51
HETATM   51  C24 UNL     1       5.230  -1.639  24.661  1.00  0.00     0.007 C 
HETATM   52  C25 UNL     1       6.653  -2.249  24.538  1.00  0.00     0.012 C 
HETATM   53  C26 UNL     1       4.910  -0.874  23.412  1.00  0.00     0.012 C 
ENDBRANCH  41  51
ENDBRANCH  39  41
ENDBRANCH   4  37
TORSDOF 16
ENDMDL
MODEL 4
REMARK VINA RESULT: -8.506270551      9.328     16.469
REMARK  16 active torsions:
REMARK  status: ('A' for Active; 'I' for Inactive)
REMARK    1  A    between atoms: C2_2  and  C3_3 
REMARK    2  A    between atoms: C3_3  and  C4_4 
REMARK    3  A    between atoms: C3_3  and  C11_11 
REMARK    4  A    between atoms: C4_4  and  C5_5 
REMARK       I    between atoms: C11_11  and  N1_13 
REMARK    5  A    between atoms: N1_13  and  C12_15 
REMARK    6  A    between atoms: C12_15  and  C14_17 
REMARK       I    between atoms: C14_17  and  N2_19 
REMARK    7  A    between atoms: N2_19  and  C15_21 
REMARK    8  A    between atoms: C15_21  and  C16_22 
REMARK    9  A    between atoms: C15_21  and  C35_51 
REMARK       I    between atoms: C16_22  and  N3_24 
REMARK   10  A    between atoms: C17_25  and  C18_26 
REMARK       I    between atoms: C18_26  and  N4_28 
REMARK   11  A    between atoms: N4_28  and  C19_30 
REMARK   12  A    between atoms: C19_30  and  C20_31 
REMARK   13  A    between atoms: C19_30  and  C24_40 
REMARK   14  A    between atoms: C20_31  and  O5_32 
REMARK   15  A    between atoms: C20_31  and  C21_34 
REMARK       I    between atoms: C21_34  and  N5_36 
REMARK   16  A    between atoms: N5_36  and  C22_38 
ROOT
HETATM    1  C16 UNL     1       5.638  -5.701  29.290  1.00  0.00     0.244 C 
HETATM    2  O3  UNL     1       5.786  -5.945  30.554  1.00  0.00    -0.271 OA
HETATM    3  N3  UNL     1       6.733  -5.176  28.610  1.00  0.00    -0.327 N 
HETATM    4  C17 UNL     1       7.016  -4.620  27.316  1.00  0.00     0.185 C 
HETATM    5  C27 UNL     1       7.889  -5.715  26.756  1.00  0.00     0.033 A 
HETATM    6  C28 UNL     1       8.778  -6.015  28.021  1.00  0.00     0.029 A 
HETATM    7  C29 UNL     1       9.367  -5.625  26.777  1.00  0.00    -0.035 A 
HETATM    8  C30 UNL     1      10.012  -6.794  25.981  1.00  0.00     0.016 C 
HETATM    9  C31 UNL     1      10.082  -4.362  26.437  1.00  0.00     0.016 C 
HETATM   10  C32 UNL     1       8.143  -5.218  29.120  1.00  0.00     0.034 C 
HETATM   11  C33 UNL     1       8.682  -3.878  29.423  1.00  0.00     0.039 C 
HETATM   12  C34 UNL     1       8.275  -6.018  30.398  1.00  0.00     0.039 C 
ENDROOT
BRANCH   1  13
HETATM   13  C15 UNL     1       4.284  -6.050  28.774  1.00  0.00     0.180 C 
BRANCH  13  14
HETATM   14  N2  UNL     1       3.437  -6.516  29.869  1.00  0.00    -0.346 N 
HETATM   15  C14 UNL     1       2.226  -5.987  30.276  1.00  0.00     0.240 C 
HETATM   16  O2  UNL     1       1.727  -4.991  29.703  1.00  0.00    -0.271 OA
ATOM     17  H2  UNL     1       3.777  -7.323  30.392  1.00  0.00     0.163 HD
BRANCH  15  18
HETATM   18  C12 UNL     1       1.448  -6.565  31.423  1.00  0.00     0.172 C 
HETATM   19  C13 UNL     1       1.628  -5.787  32.701  1.00  0.00     0.042 C 
BRANCH  18  20
HETATM   20  N1  UNL     1       0.059  -6.687  31.144  1.00  0.00    -0.348 N 
HETATM   21  C11 UNL     1      -0.837  -7.369  31.987  1.00  0.00     0.226 C 
HETATM   22  O1  UNL     1      -0.395  -7.902  33.031  1.00  0.00    -0.273 OA
ATOM     23  H1  UNL     1      -0.305  -6.259  30.292  1.00  0.00     0.163 HD
BRANCH  21  24
HETATM   24  C3  UNL     1      -2.307  -7.433  31.611  1.00  0.00     0.100 C 
BRANCH  24  25
HETATM   25  C2  UNL     1      -2.604  -8.676  30.920  1.00  0.00    -0.023 C 
HETATM   26  C1  UNL     1      -2.592  -8.743  29.589  1.00  0.00     0.008 C 
ENDBRANCH  24  25
BRANCH  24  27
HETATM   27  C4  UNL     1      -3.168  -6.964  32.703  1.00  0.00     0.022 C 
BRANCH  27  28
HETATM   28  C5  UNL     1      -4.251  -5.966  32.422  1.00  0.00    -0.013 C 
HETATM   29  C6  UNL     1      -3.996  -5.192  31.201  1.00  0.00     0.005 C 
HETATM   30  C7  UNL     1      -4.429  -3.741  31.214  1.00  0.00     0.000 C 
HETATM   31  C8  UNL     1      -4.304  -3.064  32.540  1.00  0.00     0.000 C 
HETATM   32  C9  UNL     1      -5.168  -3.895  33.498  1.00  0.00     0.000 C 
HETATM   33  C10 UNL     1      -4.404  -5.168  33.705  1.00  0.00     0.005 C 
ENDBRANCH  27  28
ENDBRANCH  24  27
ENDBRANCH  21  24
ENDBRANCH  18  20
ENDBRANCH  15  18
ENDBRANCH  13  14
BRANCH  13  34
HETATM   34  C35 UNL     1       4.337  -7.181  27.794  1.00  0.00     0.009 C 
HETATM   35  C36 UNL     1       3.245  -6.977  26.765  1.00  0.00     0.012 C 
HETATM   36  C37 UNL     1       4.081  -8.524  28.461  1.00  0.00     0.012 C 
ENDBRANCH  13  34
ENDBRANCH   1  13
BRANCH   4  37
HETATM   37  C18 UNL     1       6.062  -3.984  26.488  1.00  0.00     0.241 C 
HETATM   38  O4  UNL     1       5.643  -4.456  25.413  1.00  0.00    -0.271 OA
HETATM   39  N4  UNL     1       5.532  -2.733  26.888  1.00  0.00    -0.348 N 
ATOM     40  H4  UNL     1       5.884  -2.329  27.757  1.00  0.00     0.163 HD
BRANCH  39  41
HETATM   41  C19 UNL     1       4.524  -1.975  26.157  1.00  0.00     0.150 C 
BRANCH  41  42
HETATM   42  C20 UNL     1       3.173  -2.476  26.432  1.00  0.00     0.134 C 
BRANCH  42  43
HETATM   43  O5  UNL     1       2.889  -3.662  25.960  1.00  0.00    -0.358 OA
ATOM     44  H5  UNL     1       3.330  -4.395  26.372  1.00  0.00     0.217 HD
ENDBRANCH  42  43
BRANCH  42  45
HETATM   45  C21 UNL     1       2.105  -1.859  27.147  1.00  0.00     0.272 C 
HETATM   46  O6  UNL     1       1.694  -0.721  26.902  1.00  0.00    -0.266 OA
HETATM   47  N5  UNL     1       1.425  -2.542  28.226  1.00  0.00    -0.356 N 
ATOM     48  H5  UNL     1       1.730  -3.481  28.481  1.00  0.00     0.162 HD
BRANCH  47  49
HETATM   49  C22 UNL     1       0.339  -1.949  28.952  1.00  0.00     0.118 C 
HETATM   50  C23 UNL     1      -0.906  -2.835  28.865  1.00  0.00     0.026 C 
ENDBRANCH  47  49
ENDBRANCH  42  45
ENDBRANCH  41  42
BRANCH  41  51
HETATM   51  C24 UNL     1       4.838  -1.871  24.713  1.00  0.00     0.007 C 
HETATM   52  C25 UNL     1       3.636  -1.229  23.968  1.00  0.00     0.012 C 
HETATM   53  C26 UNL     1       6.082  -1.092  24.409  1.00  0.00     0.012 C 
ENDBRANCH  41  51
ENDBRANCH  39  41
ENDBRANCH   4  37
TORSDOF 16
ENDMDL
MODEL 5
REMARK VINA RESULT: -8.440376898      9.420     16.630
REMARK  16 active torsions:
REMARK  status: ('A' for Active; 'I' for Inactive)
REMARK    1  A    between atoms: C2_2  and  C3_3 
REMARK    2  A    between atoms: C3_3  and  C4_4 
REMARK    3  A    between atoms: C3_3  and  C11_11 
REMARK    4  A    between atoms: C4_4  and  C5_5 
REMARK       I    between atoms: C11_11  and  N1_13 
REMARK    5  A    between atoms: N1_13  and  C12_15 
REMARK    6  A    between atoms: C12_15  and  C14_17 
REMARK       I    between atoms: C14_17  and  N2_19 
REMARK    7  A    between atoms: N2_19  and  C15_21 
REMARK    8  A    between atoms: C15_21  and  C16_22 
REMARK    9  A    between atoms: C15_21  and  C35_51 
REMARK       I    between atoms: C16_22  and  N3_24 
REMARK   10  A    between atoms: C17_25  and  C18_26 
REMARK       I    between atoms: C18_26  and  N4_28 
REMARK   11  A    between atoms: N4_28  and  C19_30 
REMARK   12  A    between atoms: C19_30  and  C20_31 
REMARK   13  A    between atoms: C19_30  and  C24_40 
REMARK   14  A    between atoms: C20_31  and  O5_32 
REMARK   15  A    between atoms: C20_31  and  C21_34 
REMARK       I    between atoms: C21_34  and  N5_36 
REMARK   16  A    between atoms: N5_36  and  C22_38 
ROOT
HETATM    1  C16 UNL     1       5.936  -5.952  29.594  1.00  0.00     0.244 C 
HETATM    2  O3  UNL     1       6.195  -6.412  30.778  1.00  0.00    -0.271 OA
HETATM    3  N3  UNL     1       6.947  -5.245  28.951  1.00  0.00    -0.327 N 
HETATM    4  C17 UNL     1       7.099  -4.447  27.766  1.00  0.00     0.185 C 
HETATM    5  C27 UNL     1       7.978  -5.366  26.954  1.00  0.00     0.033 A 
HETATM    6  C28 UNL     1       8.977  -5.834  28.077  1.00  0.00     0.029 A 
HETATM    7  C29 UNL     1       9.447  -5.189  26.890  1.00  0.00    -0.035 A 
HETATM    8  C30 UNL     1      10.083  -6.152  25.848  1.00  0.00     0.016 C 
HETATM    9  C31 UNL     1      10.070  -3.843  26.742  1.00  0.00     0.016 C 
HETATM   10  C32 UNL     1       8.393  -5.292  29.345  1.00  0.00     0.034 C 
HETATM   11  C33 UNL     1       8.889  -3.998  29.855  1.00  0.00     0.039 C 
HETATM   12  C34 UNL     1       8.664  -6.300  30.441  1.00  0.00     0.039 C 
ENDROOT
BRANCH   1  13
HETATM   13  C15 UNL     1       4.564  -6.286  29.116  1.00  0.00     0.180 C 
BRANCH  13  14
HETATM   14  N2  UNL     1       3.668  -6.466  30.256  1.00  0.00    -0.346 N 
HETATM   15  C14 UNL     1       2.401  -5.939  30.419  1.00  0.00     0.240 C 
HETATM   16  O2  UNL     1       1.885  -5.205  29.543  1.00  0.00    -0.271 OA
ATOM     17  H2  UNL     1       4.017  -7.048  31.018  1.00  0.00     0.163 HD
BRANCH  15  18
HETATM   18  C12 UNL     1       1.577  -6.205  31.646  1.00  0.00     0.172 C 
HETATM   19  C13 UNL     1       1.727  -5.132  32.693  1.00  0.00     0.042 C 
BRANCH  18  20
HETATM   20  N1  UNL     1       0.196  -6.384  31.356  1.00  0.00    -0.348 N 
HETATM   21  C11 UNL     1      -0.644  -7.223  32.111  1.00  0.00     0.226 C 
HETATM   22  O1  UNL     1      -0.156  -7.850  33.080  1.00  0.00    -0.273 OA
ATOM     23  H1  UNL     1      -0.204  -5.880  30.564  1.00  0.00     0.163 HD
BRANCH  21  24
HETATM   24  C3  UNL     1      -2.110  -7.340  31.734  1.00  0.00     0.100 C 
BRANCH  24  25
HETATM   25  C2  UNL     1      -2.374  -8.618  31.097  1.00  0.00    -0.023 C 
HETATM   26  C1  UNL     1      -2.547  -8.708  29.778  1.00  0.00     0.008 C 
ENDBRANCH  24  25
BRANCH  24  27
HETATM   27  C4  UNL     1      -2.987  -6.844  32.800  1.00  0.00     0.022 C 
BRANCH  27  28
HETATM   28  C5  UNL     1      -4.128  -5.931  32.464  1.00  0.00    -0.013 C 
HETATM   29  C6  UNL     1      -3.907  -5.197  31.212  1.00  0.00     0.005 C 
HETATM   30  C7  UNL     1      -4.431  -3.778  31.156  1.00  0.00     0.000 C 
HETATM   31  C8  UNL     1      -4.366  -3.035  32.451  1.00  0.00     0.000 C 
HETATM   32  C9  UNL     1      -5.188  -3.877  33.436  1.00  0.00     0.000 C 
HETATM   33  C10 UNL     1      -4.348  -5.089  33.708  1.00  0.00     0.005 C 
ENDBRANCH  27  28
ENDBRANCH  24  27
ENDBRANCH  21  24
ENDBRANCH  18  20
ENDBRANCH  15  18
ENDBRANCH  13  14
BRANCH  13  34
HETATM   34  C35 UNL     1       4.535  -7.582  28.369  1.00  0.00     0.009 C 
HETATM   35  C36 UNL     1       5.836  -7.727  27.608  1.00  0.00     0.012 C 
HETATM   36  C37 UNL     1       3.410  -7.625  27.347  1.00  0.00     0.012 C 
ENDBRANCH  13  34
ENDBRANCH   1  13
BRANCH   4  37
HETATM   37  C18 UNL     1       6.053  -3.732  27.138  1.00  0.00     0.241 C 
HETATM   38  O4  UNL     1       5.783  -2.538  27.373  1.00  0.00    -0.271 OA
HETATM   39  N4  UNL     1       5.253  -4.392  26.174  1.00  0.00    -0.348 N 
ATOM     40  H4  UNL     1       5.455  -5.375  25.989  1.00  0.00     0.163 HD
BRANCH  39  41
HETATM   41  C19 UNL     1       4.163  -3.779  25.425  1.00  0.00     0.150 C 
BRANCH  41  42
HETATM   42  C20 UNL     1       3.072  -3.361  26.310  1.00  0.00     0.134 C 
BRANCH  42  43
HETATM   43  O5  UNL     1       2.572  -4.285  27.089  1.00  0.00    -0.358 OA
ATOM     44  H5  UNL     1       1.757  -4.679  26.802  1.00  0.00     0.217 HD
ENDBRANCH  42  43
BRANCH  42  45
HETATM   45  C21 UNL     1       2.464  -2.079  26.456  1.00  0.00     0.272 C 
HETATM   46  O6  UNL     1       2.730  -1.116  25.731  1.00  0.00    -0.266 OA
HETATM   47  N5  UNL     1       1.479  -1.823  27.485  1.00  0.00    -0.356 N 
ATOM     48  H5  UNL     1       1.228  -2.580  28.122  1.00  0.00     0.162 HD
BRANCH  47  49
HETATM   49  C22 UNL     1       0.842  -0.548  27.644  1.00  0.00     0.118 C 
HETATM   50  C23 UNL     1      -0.677  -0.693  27.522  1.00  0.00     0.026 C 
ENDBRANCH  47  49
ENDBRANCH  42  45
ENDBRANCH  41  42
BRANCH  41  51
HETATM   51  C24 UNL     1       3.719  -4.622  24.291  1.00  0.00     0.007 C 
HETATM   52  C25 UNL     1       3.807  -3.804  22.973  1.00  0.00     0.012 C 
HETATM   53  C26 UNL     1       4.491  -5.898  24.133  1.00  0.00     0.012 C 
ENDBRANCH  41  51
ENDBRANCH  39  41
ENDBRANCH   4  37
TORSDOF 16
ENDMDL
