MODEL 1
REMARK VINA RESULT: -8.388150935      0.000      0.000
REMARK  19 active torsions:
REMARK  status: ('A' for Active; 'I' for Inactive)
REMARK    1  A    between atoms: C2_2  and  C3_3 
REMARK    2  A    between atoms: C3_3  and  C4_4 
REMARK    3  A    between atoms: C4_4  and  C5_5 
REMARK    4  A    between atoms: C5_5  and  C6_6 
REMARK    5  A    between atoms: C6_6  and  C7_7 
REMARK    6  A    between atoms: C7_7  and  C8_8 
REMARK    7  A    between atoms: C8_8  and  C9_9 
REMARK    8  A    between atoms: C9_9  and  N1_10 
REMARK    9  A    between atoms: N2_14  and  C13_15 
REMARK   10  A    between atoms: C13_15  and  O1_16 
REMARK   11  A    between atoms: C13_15  and  C14_18 
REMARK   12  A    between atoms: C14_18  and  C15_19 
REMARK   13  A    between atoms: C14_18  and  N7_36 
REMARK   14  A    between atoms: C15_19  and  C16_20 
REMARK   15  A    between atoms: C16_20  and  C17_21 
REMARK   16  A    between atoms: C17_21  and  N3_22 
REMARK       I    between atoms: C18_24  and  N5_26 
REMARK   17  A    between atoms: N7_36  and  C27_37 
REMARK   18  A    between atoms: C27_37  and  O2_38 
REMARK   19  A    between atoms: C27_37  and  C28_40 
REMARK       I    between atoms: N8_45  and  C33_46 
ROOT
HETATM    1  C14 UNL     1      -8.382  -0.579  32.371  1.00  0.00     0.156 C 
ENDROOT
BRANCH   1   2
HETATM    2  C13 UNL     1      -7.627  -1.575  31.692  1.00  0.00     0.179 C 
BRANCH   2   3
HETATM    3  N2  UNL     1      -6.505  -2.327  32.119  1.00  0.00    -0.358 N 
HETATM    4  C12 UNL     1      -6.250  -2.550  33.490  1.00  0.00     0.127 C 
HETATM    5  C11 UNL     1      -5.677  -3.873  33.847  1.00  0.00     0.040 C 
HETATM    6  C10 UNL     1      -4.187  -4.039  33.527  1.00  0.00     0.123 C 
HETATM    7  N1  UNL     1      -3.956  -4.043  32.138  1.00  0.00    -0.388 N 
HETATM    8  C35 UNL     1      -4.209  -2.817  31.451  1.00  0.00     0.142 C 
HETATM    9  C34 UNL     1      -5.622  -2.654  30.986  1.00  0.00     0.145 C 
BRANCH   7  10
HETATM   10  C9  UNL     1      -3.990  -5.176  31.348  1.00  0.00     0.085 C 
BRANCH  10  11
HETATM   11  C8  UNL     1      -4.131  -6.537  31.773  1.00  0.00     0.013 C 
BRANCH  11  12
HETATM   12  C7  UNL     1      -4.001  -7.185  33.024  1.00  0.00    -0.025 C 
BRANCH  12  13
HETATM   13  C6  UNL     1      -2.721  -7.917  33.365  1.00  0.00     0.027 C 
BRANCH  13  14
HETATM   14  C5  UNL     1      -2.145  -8.428  32.083  1.00  0.00     0.004 C 
BRANCH  14  15
HETATM   15  C4  UNL     1      -0.756  -8.015  31.730  1.00  0.00     0.000 C 
BRANCH  15  16
HETATM   16  C3  UNL     1      -0.235  -7.340  33.007  1.00  0.00    -0.000 C 
BRANCH  16  17
HETATM   17  C2  UNL     1       1.169  -7.621  33.339  1.00  0.00    -0.005 C 
HETATM   18  C1  UNL     1       2.168  -6.582  32.903  1.00  0.00     0.005 C 
ENDBRANCH  16  17
ENDBRANCH  15  16
ENDBRANCH  14  15
ENDBRANCH  13  14
ENDBRANCH  12  13
ENDBRANCH  11  12
ENDBRANCH  10  11
ENDBRANCH   7  10
ENDBRANCH   2   3
BRANCH   2  19
HETATM   19  O1  UNL     1      -7.989  -1.855  30.469  1.00  0.00    -0.344 OA
ATOM     20  H1  UNL     1      -8.539  -2.627  30.416  1.00  0.00     0.219 HD
ENDBRANCH   2  19
ENDBRANCH   1   2
BRANCH   1  21
HETATM   21  C15 UNL     1      -8.086   0.825  32.501  1.00  0.00     0.024 C 
BRANCH  21  22
HETATM   22  C16 UNL     1      -8.571   1.909  31.700  1.00  0.00     0.050 C 
BRANCH  22  23
HETATM   23  C17 UNL     1      -8.724   1.446  30.208  1.00  0.00     0.126 C 
BRANCH  23  24
HETATM   24  N3  UNL     1     -10.152   1.215  30.022  1.00  0.00    -0.364 N 
HETATM   25  C18 UNL     1     -10.549   0.335  29.178  1.00  0.00     0.186 C 
HETATM   26  N4  UNL     1      -9.561  -0.384  28.438  1.00  0.00    -0.064 NA
HETATM   27  N5  UNL     1     -11.923   0.167  28.985  1.00  0.00    -0.352 N 
HETATM   28  C19 UNL     1     -12.559  -1.006  28.486  1.00  0.00     0.145 C 
HETATM   29  C26 UNL     1     -12.838   1.285  29.197  1.00  0.00     0.150 C 
HETATM   30  C20 UNL     1     -13.210  -0.491  27.140  1.00  0.00     0.137 C 
HETATM   31  N6  UNL     1     -12.747   0.812  26.858  1.00  0.00    -0.405 N 
HETATM   32  C21 UNL     1     -12.881   1.228  25.517  1.00  0.00     0.117 C 
HETATM   33  C25 UNL     1     -13.063   1.840  27.802  1.00  0.00     0.097 C 
HETATM   34  C22 UNL     1     -13.332   2.660  25.336  1.00  0.00     0.019 C 
HETATM   35  C23 UNL     1     -14.475   3.042  26.260  1.00  0.00     0.004 C 
HETATM   36  C24 UNL     1     -14.418   2.375  27.632  1.00  0.00     0.026 C 
ATOM     37  H3  UNL     1     -10.832   1.751  30.560  1.00  0.00     0.162 HD
ENDBRANCH  23  24
ENDBRANCH  22  23
ENDBRANCH  21  22
ENDBRANCH   1  21
BRANCH   1  38
HETATM   38  N7  UNL     1      -9.712  -1.014  32.668  1.00  0.00    -0.379 NA
BRANCH  38  39
HETATM   39  C27 UNL     1     -10.935  -1.414  32.933  1.00  0.00     0.214 C 
BRANCH  39  40
HETATM   40  O2  UNL     1     -11.671  -1.210  33.997  1.00  0.00    -0.337 OA
ATOM     41  H2  UNL     1     -11.764  -0.430  34.531  1.00  0.00     0.220 HD
ENDBRANCH  39  40
BRANCH  39  42
HETATM   42  C28 UNL     1     -11.770  -2.276  31.942  1.00  0.00     0.180 C 
HETATM   43  C29 UNL     1     -11.152  -3.667  31.996  1.00  0.00     0.035 C 
HETATM   44  C30 UNL     1     -11.089  -4.226  33.396  1.00  0.00     0.008 C 
HETATM   45  C31 UNL     1     -12.511  -4.371  33.866  1.00  0.00     0.045 C 
HETATM   46  C32 UNL     1     -13.484  -3.645  33.075  1.00  0.00     0.067 C 
HETATM   47  N8  UNL     1     -13.084  -2.425  32.447  1.00  0.00    -0.322 N 
HETATM   48  C33 UNL     1     -14.079  -1.391  32.302  1.00  0.00     0.188 C 
HETATM   49  N9  UNL     1     -14.517  -1.129  31.146  1.00  0.00    -0.373 N 
HETATM   50  N10 UNL     1     -14.549  -0.720  33.442  1.00  0.00    -0.064 NA
ATOM     51  H92 UNL     1     -14.177  -1.616  30.318  1.00  0.00     0.158 HD
ATOM     52  H91 UNL     1     -15.221  -0.397  31.044  1.00  0.00     0.158 HD
ENDBRANCH  39  42
ENDBRANCH  38  39
ENDBRANCH   1  38
TORSDOF 19
ENDMDL
MODEL 2
REMARK VINA RESULT: -8.291513050      1.805      4.567
REMARK  19 active torsions:
REMARK  status: ('A' for Active; 'I' for Inactive)
REMARK    1  A    between atoms: C2_2  and  C3_3 
REMARK    2  A    between atoms: C3_3  and  C4_4 
REMARK    3  A    between atoms: C4_4  and  C5_5 
REMARK    4  A    between atoms: C5_5  and  C6_6 
REMARK    5  A    between atoms: C6_6  and  C7_7 
REMARK    6  A    between atoms: C7_7  and  C8_8 
REMARK    7  A    between atoms: C8_8  and  C9_9 
REMARK    8  A    between atoms: C9_9  and  N1_10 
REMARK    9  A    between atoms: N2_14  and  C13_15 
REMARK   10  A    between atoms: C13_15  and  O1_16 
REMARK   11  A    between atoms: C13_15  and  C14_18 
REMARK   12  A    between atoms: C14_18  and  C15_19 
REMARK   13  A    between atoms: C14_18  and  N7_36 
REMARK   14  A    between atoms: C15_19  and  C16_20 
REMARK   15  A    between atoms: C16_20  and  C17_21 
REMARK   16  A    between atoms: C17_21  and  N3_22 
REMARK       I    between atoms: C18_24  and  N5_26 
REMARK   17  A    between atoms: N7_36  and  C27_37 
REMARK   18  A    between atoms: C27_37  and  O2_38 
REMARK   19  A    between atoms: C27_37  and  C28_40 
REMARK       I    between atoms: N8_45  and  C33_46 
ROOT
HETATM    1  C14 UNL     1      -9.099  -1.686  30.866  1.00  0.00     0.156 C 
ENDROOT
BRANCH   1   2
HETATM    2  C13 UNL     1      -7.804  -1.192  31.183  1.00  0.00     0.179 C 
BRANCH   2   3
HETATM    3  N2  UNL     1      -6.705  -1.832  31.807  1.00  0.00    -0.358 N 
HETATM    4  C12 UNL     1      -6.530  -1.788  33.208  1.00  0.00     0.127 C 
HETATM    5  C11 UNL     1      -5.971  -3.011  33.840  1.00  0.00     0.040 C 
HETATM    6  C10 UNL     1      -4.464  -3.209  33.642  1.00  0.00     0.123 C 
HETATM    7  N1  UNL     1      -4.152  -3.471  32.294  1.00  0.00    -0.388 N 
HETATM    8  C35 UNL     1      -4.371  -2.401  31.375  1.00  0.00     0.142 C 
HETATM    9  C34 UNL     1      -5.755  -2.351  30.808  1.00  0.00     0.145 C 
BRANCH   7  10
HETATM   10  C9  UNL     1      -4.133  -4.733  31.732  1.00  0.00     0.085 C 
BRANCH  10  11
HETATM   11  C8  UNL     1      -4.373  -5.986  32.383  1.00  0.00     0.013 C 
BRANCH  11  12
HETATM   12  C7  UNL     1      -3.766  -7.262  32.294  1.00  0.00    -0.025 C 
BRANCH  12  13
HETATM   13  C6  UNL     1      -2.993  -7.813  33.473  1.00  0.00     0.027 C 
BRANCH  13  14
HETATM   14  C5  UNL     1      -1.659  -8.257  32.962  1.00  0.00     0.004 C 
BRANCH  14  15
HETATM   15  C4  UNL     1      -1.225  -7.761  31.624  1.00  0.00     0.000 C 
BRANCH  15  16
HETATM   16  C3  UNL     1       0.121  -7.079  31.902  1.00  0.00    -0.000 C 
BRANCH  16  17
HETATM   17  C2  UNL     1       0.748  -7.421  33.187  1.00  0.00    -0.005 C 
HETATM   18  C1  UNL     1       1.515  -6.314  33.861  1.00  0.00     0.005 C 
ENDBRANCH  16  17
ENDBRANCH  15  16
ENDBRANCH  14  15
ENDBRANCH  13  14
ENDBRANCH  12  13
ENDBRANCH  11  12
ENDBRANCH  10  11
ENDBRANCH   7  10
ENDBRANCH   2   3
BRANCH   2  19
HETATM   19  O1  UNL     1      -7.558   0.052  30.876  1.00  0.00    -0.344 OA
ATOM     20  H1  UNL     1      -8.331   0.519  30.582  1.00  0.00     0.219 HD
ENDBRANCH   2  19
ENDBRANCH   1   2
BRANCH   1  21
HETATM   21  C15 UNL     1     -10.019  -2.384  31.727  1.00  0.00     0.024 C 
BRANCH  21  22
HETATM   22  C16 UNL     1     -11.423  -2.154  31.896  1.00  0.00     0.050 C 
BRANCH  22  23
HETATM   23  C17 UNL     1     -11.750  -1.936  33.415  1.00  0.00     0.126 C 
BRANCH  23  24
HETATM   24  N3  UNL     1     -12.905  -1.045  33.437  1.00  0.00    -0.364 N 
HETATM   25  C18 UNL     1     -14.074  -1.515  33.203  1.00  0.00     0.186 C 
HETATM   26  N4  UNL     1     -14.197  -2.908  32.918  1.00  0.00    -0.064 NA
HETATM   27  N5  UNL     1     -15.157  -0.630  33.184  1.00  0.00    -0.352 N 
HETATM   28  C19 UNL     1     -16.521  -0.975  33.408  1.00  0.00     0.145 C 
HETATM   29  C26 UNL     1     -14.959   0.767  32.808  1.00  0.00     0.150 C 
HETATM   30  C20 UNL     1     -17.192  -0.619  32.020  1.00  0.00     0.137 C 
HETATM   31  N6  UNL     1     -16.190  -0.319  31.073  1.00  0.00    -0.405 N 
HETATM   32  C21 UNL     1     -16.583  -0.410  29.722  1.00  0.00     0.117 C 
HETATM   33  C25 UNL     1     -15.348   0.806  31.341  1.00  0.00     0.097 C 
HETATM   34  C22 UNL     1     -16.054   0.688  28.828  1.00  0.00     0.019 C 
HETATM   35  C23 UNL     1     -16.165   2.067  29.454  1.00  0.00     0.004 C 
HETATM   36  C24 UNL     1     -15.966   2.083  30.967  1.00  0.00     0.026 C 
ATOM     37  H3  UNL     1     -12.782  -0.052  33.635  1.00  0.00     0.162 HD
ENDBRANCH  23  24
ENDBRANCH  22  23
ENDBRANCH  21  22
ENDBRANCH   1  21
BRANCH   1  38
HETATM   38  N7  UNL     1      -9.611  -1.130  29.651  1.00  0.00    -0.379 NA
BRANCH  38  39
HETATM   39  C27 UNL     1     -10.075  -0.621  28.532  1.00  0.00     0.214 C 
BRANCH  39  40
HETATM   40  O2  UNL     1      -9.495   0.181  27.673  1.00  0.00    -0.337 OA
ATOM     41  H2  UNL     1      -9.323   0.056  26.747  1.00  0.00     0.220 HD
ENDBRANCH  39  40
BRANCH  39  42
HETATM   42  C28 UNL     1     -11.513  -0.908  28.011  1.00  0.00     0.180 C 
HETATM   43  C29 UNL     1     -12.447  -0.316  29.057  1.00  0.00     0.035 C 
HETATM   44  C30 UNL     1     -12.172   1.142  29.330  1.00  0.00     0.008 C 
HETATM   45  C31 UNL     1     -12.443   1.881  28.048  1.00  0.00     0.045 C 
HETATM   46  C32 UNL     1     -12.524   1.036  26.873  1.00  0.00     0.067 C 
HETATM   47  N8  UNL     1     -11.739  -0.158  26.831  1.00  0.00    -0.322 N 
HETATM   48  C33 UNL     1     -11.245  -0.589  25.546  1.00  0.00     0.188 C 
HETATM   49  N9  UNL     1     -11.742  -1.626  25.022  1.00  0.00    -0.373 N 
HETATM   50  N10 UNL     1     -10.247   0.160  24.905  1.00  0.00    -0.064 NA
ATOM     51  H92 UNL     1     -12.468  -2.170  25.489  1.00  0.00     0.158 HD
ATOM     52  H91 UNL     1     -11.393  -1.930  24.113  1.00  0.00     0.158 HD
ENDBRANCH  39  42
ENDBRANCH  38  39
ENDBRANCH   1  38
TORSDOF 19
ENDMDL
MODEL 3
REMARK VINA RESULT: -8.232087764      7.315     12.872
REMARK  19 active torsions:
REMARK  status: ('A' for Active; 'I' for Inactive)
REMARK    1  A    between atoms: C2_2  and  C3_3 
REMARK    2  A    between atoms: C3_3  and  C4_4 
REMARK    3  A    between atoms: C4_4  and  C5_5 
REMARK    4  A    between atoms: C5_5  and  C6_6 
REMARK    5  A    between atoms: C6_6  and  C7_7 
REMARK    6  A    between atoms: C7_7  and  C8_8 
REMARK    7  A    between atoms: C8_8  and  C9_9 
REMARK    8  A    between atoms: C9_9  and  N1_10 
REMARK    9  A    between atoms: N2_14  and  C13_15 
REMARK   10  A    between atoms: C13_15  and  O1_16 
REMARK   11  A    between atoms: C13_15  and  C14_18 
REMARK   12  A    between atoms: C14_18  and  C15_19 
REMARK   13  A    between atoms: C14_18  and  N7_36 
REMARK   14  A    between atoms: C15_19  and  C16_20 
REMARK   15  A    between atoms: C16_20  and  C17_21 
REMARK   16  A    between atoms: C17_21  and  N3_22 
REMARK       I    between atoms: C18_24  and  N5_26 
REMARK   17  A    between atoms: N7_36  and  C27_37 
REMARK   18  A    between atoms: C27_37  and  O2_38 
REMARK   19  A    between atoms: C27_37  and  C28_40 
REMARK       I    between atoms: N8_45  and  C33_46 
ROOT
HETATM    1  C14 UNL     1      -1.036  -0.854  27.324  1.00  0.00     0.156 C 
ENDROOT
BRANCH   1   2
HETATM    2  C13 UNL     1      -2.004  -1.077  28.340  1.00  0.00     0.179 C 
BRANCH   2   3
HETATM    3  N2  UNL     1      -2.305  -2.247  29.081  1.00  0.00    -0.358 N 
HETATM    4  C12 UNL     1      -1.456  -3.376  29.047  1.00  0.00     0.127 C 
HETATM    5  C11 UNL     1      -1.325  -4.138  30.314  1.00  0.00     0.040 C 
HETATM    6  C10 UNL     1      -2.523  -5.031  30.659  1.00  0.00     0.123 C 
HETATM    7  N1  UNL     1      -3.666  -4.264  30.957  1.00  0.00    -0.388 N 
HETATM    8  C35 UNL     1      -4.229  -3.522  29.876  1.00  0.00     0.142 C 
HETATM    9  C34 UNL     1      -3.642  -2.158  29.695  1.00  0.00     0.145 C 
BRANCH   7  10
HETATM   10  C9  UNL     1      -3.979  -3.794  32.218  1.00  0.00     0.085 C 
BRANCH  10  11
HETATM   11  C8  UNL     1      -4.430  -4.550  33.348  1.00  0.00     0.013 C 
BRANCH  11  12
HETATM   12  C7  UNL     1      -3.991  -5.750  33.956  1.00  0.00    -0.025 C 
BRANCH  12  13
HETATM   13  C6  UNL     1      -4.101  -7.060  33.206  1.00  0.00     0.027 C 
BRANCH  13  14
HETATM   14  C5  UNL     1      -2.765  -7.729  33.278  1.00  0.00     0.004 C 
BRANCH  14  15
HETATM   15  C4  UNL     1      -2.275  -8.437  32.061  1.00  0.00     0.000 C 
BRANCH  15  16
HETATM   16  C3  UNL     1      -0.780  -8.093  32.010  1.00  0.00    -0.000 C 
BRANCH  16  17
HETATM   17  C2  UNL     1      -0.288  -7.261  33.118  1.00  0.00    -0.005 C 
HETATM   18  C1  UNL     1       1.174  -7.405  33.450  1.00  0.00     0.005 C 
ENDBRANCH  16  17
ENDBRANCH  15  16
ENDBRANCH  14  15
ENDBRANCH  13  14
ENDBRANCH  12  13
ENDBRANCH  11  12
ENDBRANCH  10  11
ENDBRANCH   7  10
ENDBRANCH   2   3
BRANCH   2  19
HETATM   19  O1  UNL     1      -2.768  -0.067  28.657  1.00  0.00    -0.344 OA
ATOM     20  H1  UNL     1      -2.808   0.592  27.975  1.00  0.00     0.219 HD
ENDBRANCH   2  19
ENDBRANCH   1   2
BRANCH   1  21
HETATM   21  C15 UNL     1       0.313  -0.370  27.474  1.00  0.00     0.024 C 
BRANCH  21  22
HETATM   22  C16 UNL     1       1.358  -0.900  28.298  1.00  0.00     0.050 C 
BRANCH  22  23
HETATM   23  C17 UNL     1       1.633  -2.397  27.916  1.00  0.00     0.126 C 
BRANCH  23  24
HETATM   24  N3  UNL     1       2.606  -2.345  26.831  1.00  0.00    -0.364 N 
HETATM   25  C18 UNL     1       3.470  -3.284  26.706  1.00  0.00     0.186 C 
HETATM   26  N4  UNL     1       3.450  -4.349  27.655  1.00  0.00    -0.064 NA
HETATM   27  N5  UNL     1       4.420  -3.185  25.685  1.00  0.00    -0.352 N 
HETATM   28  C19 UNL     1       5.128  -4.271  25.094  1.00  0.00     0.145 C 
HETATM   29  C26 UNL     1       4.847  -1.874  25.202  1.00  0.00     0.150 C 
HETATM   30  C20 UNL     1       6.628  -3.944  25.476  1.00  0.00     0.137 C 
HETATM   31  N6  UNL     1       6.660  -2.873  26.394  1.00  0.00    -0.405 N 
HETATM   32  C21 UNL     1       7.847  -2.752  27.146  1.00  0.00     0.117 C 
HETATM   33  C25 UNL     1       6.140  -1.614  25.955  1.00  0.00     0.097 C 
HETATM   34  C22 UNL     1       8.341  -1.335  27.335  1.00  0.00     0.019 C 
HETATM   35  C23 UNL     1       8.283  -0.512  26.061  1.00  0.00     0.004 C 
HETATM   36  C24 UNL     1       7.100  -0.847  25.154  1.00  0.00     0.026 C 
ATOM     37  H3  UNL     1       2.599  -1.564  26.174  1.00  0.00     0.162 HD
ENDBRANCH  23  24
ENDBRANCH  22  23
ENDBRANCH  21  22
ENDBRANCH   1  21
BRANCH   1  38
HETATM   38  N7  UNL     1      -1.387  -1.485  26.089  1.00  0.00    -0.379 NA
BRANCH  38  39
HETATM   39  C27 UNL     1      -1.712  -2.071  24.959  1.00  0.00     0.214 C 
BRANCH  39  40
HETATM   40  O2  UNL     1      -1.512  -3.304  24.567  1.00  0.00    -0.337 OA
ATOM     41  H2  UNL     1      -2.100  -3.904  24.123  1.00  0.00     0.220 HD
ENDBRANCH  39  40
BRANCH  39  42
HETATM   42  C28 UNL     1      -2.441  -1.323  23.805  1.00  0.00     0.180 C 
HETATM   43  C29 UNL     1      -1.493  -0.209  23.382  1.00  0.00     0.035 C 
HETATM   44  C30 UNL     1      -0.120  -0.716  23.016  1.00  0.00     0.008 C 
HETATM   45  C31 UNL     1      -0.295  -1.607  21.816  1.00  0.00     0.045 C 
HETATM   46  C32 UNL     1      -1.661  -2.022  21.569  1.00  0.00     0.067 C 
HETATM   47  N8  UNL     1      -2.541  -2.182  22.683  1.00  0.00    -0.322 N 
HETATM   48  C33 UNL     1      -3.557  -3.203  22.592  1.00  0.00     0.188 C 
HETATM   49  N9  UNL     1      -4.763  -2.848  22.471  1.00  0.00    -0.373 N 
HETATM   50  N10 UNL     1      -3.181  -4.554  22.619  1.00  0.00    -0.064 NA
ATOM     51  H92 UNL     1      -5.037  -1.866  22.451  1.00  0.00     0.158 HD
ATOM     52  H91 UNL     1      -5.481  -3.570  22.406  1.00  0.00     0.158 HD
ENDBRANCH  39  42
ENDBRANCH  38  39
ENDBRANCH   1  38
TORSDOF 19
ENDMDL
MODEL 4
REMARK VINA RESULT: -8.211308827      7.274     13.157
REMARK  19 active torsions:
REMARK  status: ('A' for Active; 'I' for Inactive)
REMARK    1  A    between atoms: C2_2  and  C3_3 
REMARK    2  A    between atoms: C3_3  and  C4_4 
REMARK    3  A    between atoms: C4_4  and  C5_5 
REMARK    4  A    between atoms: C5_5  and  C6_6 
REMARK    5  A    between atoms: C6_6  and  C7_7 
REMARK    6  A    between atoms: C7_7  and  C8_8 
REMARK    7  A    between atoms: C8_8  and  C9_9 
REMARK    8  A    between atoms: C9_9  and  N1_10 
REMARK    9  A    between atoms: N2_14  and  C13_15 
REMARK   10  A    between atoms: C13_15  and  O1_16 
REMARK   11  A    between atoms: C13_15  and  C14_18 
REMARK   12  A    between atoms: C14_18  and  C15_19 
REMARK   13  A    between atoms: C14_18  and  N7_36 
REMARK   14  A    between atoms: C15_19  and  C16_20 
REMARK   15  A    between atoms: C16_20  and  C17_21 
REMARK   16  A    between atoms: C17_21  and  N3_22 
REMARK       I    between atoms: C18_24  and  N5_26 
REMARK   17  A    between atoms: N7_36  and  C27_37 
REMARK   18  A    between atoms: C27_37  and  O2_38 
REMARK   19  A    between atoms: C27_37  and  C28_40 
REMARK       I    between atoms: N8_45  and  C33_46 
ROOT
HETATM    1  C14 UNL     1       0.734  -4.174  29.695  1.00  0.00     0.156 C 
ENDROOT
BRANCH   1   2
HETATM    2  C13 UNL     1       0.592  -4.890  30.915  1.00  0.00     0.179 C 
BRANCH   2   3
HETATM    3  N2  UNL     1      -0.280  -5.952  31.260  1.00  0.00    -0.358 N 
HETATM    4  C12 UNL     1       0.126  -6.979  32.141  1.00  0.00     0.127 C 
HETATM    5  C11 UNL     1      -0.915  -7.513  33.055  1.00  0.00     0.040 C 
HETATM    6  C10 UNL     1      -1.930  -8.456  32.398  1.00  0.00     0.123 C 
HETATM    7  N1  UNL     1      -2.746  -7.773  31.476  1.00  0.00    -0.388 N 
HETATM    8  C35 UNL     1      -2.097  -7.273  30.307  1.00  0.00     0.142 C 
HETATM    9  C34 UNL     1      -1.519  -5.903  30.463  1.00  0.00     0.145 C 
BRANCH   7  10
HETATM   10  C9  UNL     1      -3.930  -7.143  31.805  1.00  0.00     0.085 C 
BRANCH  10  11
HETATM   11  C8  UNL     1      -4.334  -6.649  33.088  1.00  0.00     0.013 C 
BRANCH  11  12
HETATM   12  C7  UNL     1      -4.504  -5.349  33.621  1.00  0.00    -0.025 C 
BRANCH  12  13
HETATM   13  C6  UNL     1      -4.484  -4.147  32.701  1.00  0.00     0.027 C 
BRANCH  13  14
HETATM   14  C5  UNL     1      -4.896  -2.959  33.511  1.00  0.00     0.004 C 
BRANCH  14  15
HETATM   15  C4  UNL     1      -6.334  -2.564  33.487  1.00  0.00     0.000 C 
BRANCH  15  16
HETATM   16  C3  UNL     1      -6.576  -2.134  32.034  1.00  0.00    -0.000 C 
BRANCH  16  17
HETATM   17  C2  UNL     1      -7.982  -2.127  31.605  1.00  0.00    -0.005 C 
HETATM   18  C1  UNL     1      -9.006  -2.116  32.709  1.00  0.00     0.005 C 
ENDBRANCH  16  17
ENDBRANCH  15  16
ENDBRANCH  14  15
ENDBRANCH  13  14
ENDBRANCH  12  13
ENDBRANCH  11  12
ENDBRANCH  10  11
ENDBRANCH   7  10
ENDBRANCH   2   3
BRANCH   2  19
HETATM   19  O1  UNL     1       1.363  -4.527  31.904  1.00  0.00    -0.344 OA
ATOM     20  H1  UNL     1       1.349  -3.589  32.056  1.00  0.00     0.219 HD
ENDBRANCH   2  19
ENDBRANCH   1   2
BRANCH   1  21
HETATM   21  C15 UNL     1       0.054  -2.972  29.286  1.00  0.00     0.024 C 
BRANCH  21  22
HETATM   22  C16 UNL     1       0.412  -2.065  28.236  1.00  0.00     0.050 C 
BRANCH  22  23
HETATM   23  C17 UNL     1      -0.877  -1.585  27.482  1.00  0.00     0.126 C 
BRANCH  23  24
HETATM   24  N3  UNL     1      -0.392  -0.885  26.298  1.00  0.00    -0.364 N 
HETATM   25  C18 UNL     1      -0.485  -1.443  25.147  1.00  0.00     0.186 C 
HETATM   26  N4  UNL     1      -1.057  -2.748  25.075  1.00  0.00    -0.064 NA
HETATM   27  N5  UNL     1       0.030  -0.769  24.036  1.00  0.00    -0.352 N 
HETATM   28  C19 UNL     1      -0.365  -0.967  22.681  1.00  0.00     0.145 C 
HETATM   29  C26 UNL     1       1.146   0.161  24.191  1.00  0.00     0.150 C 
HETATM   30  C20 UNL     1       0.966  -1.501  22.015  1.00  0.00     0.137 C 
HETATM   31  N6  UNL     1       1.923  -1.769  23.017  1.00  0.00    -0.405 N 
HETATM   32  C21 UNL     1       2.970  -2.636  22.642  1.00  0.00     0.117 C 
HETATM   33  C25 UNL     1       2.363  -0.667  23.817  1.00  0.00     0.097 C 
HETATM   34  C22 UNL     1       4.339  -2.238  23.144  1.00  0.00     0.019 C 
HETATM   35  C23 UNL     1       4.622  -0.755  22.979  1.00  0.00     0.004 C 
HETATM   36  C24 UNL     1       3.398   0.139  23.161  1.00  0.00     0.026 C 
ATOM     37  H3  UNL     1       0.020   0.044  26.385  1.00  0.00     0.162 HD
ENDBRANCH  23  24
ENDBRANCH  22  23
ENDBRANCH  21  22
ENDBRANCH   1  21
BRANCH   1  38
HETATM   38  N7  UNL     1       1.909  -4.557  28.974  1.00  0.00    -0.379 NA
BRANCH  38  39
HETATM   39  C27 UNL     1       2.992  -4.905  28.317  1.00  0.00     0.214 C 
BRANCH  39  40
HETATM   40  O2  UNL     1       4.139  -5.350  28.767  1.00  0.00    -0.337 OA
ATOM     41  H2  UNL     1       4.745  -4.954  29.382  1.00  0.00     0.220 HD
ENDBRANCH  39  40
BRANCH  39  42
HETATM   42  C28 UNL     1       3.095  -4.827  26.766  1.00  0.00     0.180 C 
HETATM   43  C29 UNL     1       2.996  -3.346  26.428  1.00  0.00     0.035 C 
HETATM   44  C30 UNL     1       4.021  -2.510  27.155  1.00  0.00     0.008 C 
HETATM   45  C31 UNL     1       5.371  -2.969  26.676  1.00  0.00     0.045 C 
HETATM   46  C32 UNL     1       5.364  -4.243  25.986  1.00  0.00     0.067 C 
HETATM   47  N8  UNL     1       4.394  -5.222  26.365  1.00  0.00    -0.322 N 
HETATM   48  C33 UNL     1       4.773  -6.611  26.266  1.00  0.00     0.188 C 
HETATM   49  N9  UNL     1       4.243  -7.322  25.367  1.00  0.00    -0.373 N 
HETATM   50  N10 UNL     1       5.730  -7.129  27.152  1.00  0.00    -0.064 NA
ATOM     51  H92 UNL     1       3.547  -6.946  24.723  1.00  0.00     0.158 HD
ATOM     52  H91 UNL     1       4.511  -8.304  25.298  1.00  0.00     0.158 HD
ENDBRANCH  39  42
ENDBRANCH  38  39
ENDBRANCH   1  38
TORSDOF 19
ENDMDL
MODEL 5
REMARK VINA RESULT: -8.193823864      4.433      9.297
REMARK  19 active torsions:
REMARK  status: ('A' for Active; 'I' for Inactive)
REMARK    1  A    between atoms: C2_2  and  C3_3 
REMARK    2  A    between atoms: C3_3  and  C4_4 
REMARK    3  A    between atoms: C4_4  and  C5_5 
REMARK    4  A    between atoms: C5_5  and  C6_6 
REMARK    5  A    between atoms: C6_6  and  C7_7 
REMARK    6  A    between atoms: C7_7  and  C8_8 
REMARK    7  A    between atoms: C8_8  and  C9_9 
REMARK    8  A    between atoms: C9_9  and  N1_10 
REMARK    9  A    between atoms: N2_14  and  C13_15 
REMARK   10  A    between atoms: C13_15  and  O1_16 
REMARK   11  A    between atoms: C13_15  and  C14_18 
REMARK   12  A    between atoms: C14_18  and  C15_19 
REMARK   13  A    between atoms: C14_18  and  N7_36 
REMARK   14  A    between atoms: C15_19  and  C16_20 
REMARK   15  A    between atoms: C16_20  and  C17_21 
REMARK   16  A    between atoms: C17_21  and  N3_22 
REMARK       I    between atoms: C18_24  and  N5_26 
REMARK   17  A    between atoms: N7_36  and  C27_37 
REMARK   18  A    between atoms: C27_37  and  O2_38 
REMARK   19  A    between atoms: C27_37  and  C28_40 
REMARK       I    between atoms: N8_45  and  C33_46 
ROOT
HETATM    1  C14 UNL     1      -4.473  -3.224  31.128  1.00  0.00     0.156 C 
ENDROOT
BRANCH   1   2
HETATM    2  C13 UNL     1      -4.298  -4.238  32.109  1.00  0.00     0.179 C 
BRANCH   2   3
HETATM    3  N2  UNL     1      -3.647  -5.494  32.026  1.00  0.00    -0.358 N 
HETATM    4  C12 UNL     1      -3.517  -6.173  30.794  1.00  0.00     0.127 C 
HETATM    5  C11 UNL     1      -2.257  -6.932  30.591  1.00  0.00     0.040 C 
HETATM    6  C10 UNL     1      -2.174  -8.262  31.351  1.00  0.00     0.123 C 
HETATM    7  N1  UNL     1      -2.109  -8.055  32.742  1.00  0.00    -0.388 N 
HETATM    8  C35 UNL     1      -3.275  -7.507  33.355  1.00  0.00     0.142 C 
HETATM    9  C34 UNL     1      -3.318  -6.011  33.366  1.00  0.00     0.145 C 
BRANCH   7  10
HETATM   10  C9  UNL     1      -0.934  -7.873  33.447  1.00  0.00     0.085 C 
BRANCH  10  11
HETATM   11  C8  UNL     1       0.222  -7.129  33.045  1.00  0.00     0.013 C 
BRANCH  11  12
HETATM   12  C7  UNL     1       1.571  -7.121  33.472  1.00  0.00    -0.025 C 
BRANCH  12  13
HETATM   13  C6  UNL     1       2.574  -6.217  32.788  1.00  0.00     0.027 C 
BRANCH  13  14
HETATM   14  C5  UNL     1       2.291  -4.818  33.234  1.00  0.00     0.004 C 
BRANCH  14  15
HETATM   15  C4  UNL     1       2.374  -4.523  34.694  1.00  0.00     0.000 C 
BRANCH  15  16
HETATM   16  C3  UNL     1       3.433  -3.416  34.787  1.00  0.00    -0.000 C 
BRANCH  16  17
HETATM   17  C2  UNL     1       4.787  -3.867  35.138  1.00  0.00    -0.005 C 
HETATM   18  C1  UNL     1       5.714  -4.127  33.980  1.00  0.00     0.005 C 
ENDBRANCH  16  17
ENDBRANCH  15  16
ENDBRANCH  14  15
ENDBRANCH  13  14
ENDBRANCH  12  13
ENDBRANCH  11  12
ENDBRANCH  10  11
ENDBRANCH   7  10
ENDBRANCH   2   3
BRANCH   2  19
HETATM   19  O1  UNL     1      -4.822  -4.016  33.284  1.00  0.00    -0.344 OA
ATOM     20  H1  UNL     1      -5.497  -4.644  33.510  1.00  0.00     0.219 HD
ENDBRANCH   2  19
ENDBRANCH   1   2
BRANCH   1  21
HETATM   21  C15 UNL     1      -3.714  -3.015  29.921  1.00  0.00     0.024 C 
BRANCH  21  22
HETATM   22  C16 UNL     1      -2.477  -2.310  29.765  1.00  0.00     0.050 C 
BRANCH  22  23
HETATM   23  C17 UNL     1      -1.333  -3.317  29.389  1.00  0.00     0.126 C 
BRANCH  23  24
HETATM   24  N3  UNL     1      -0.238  -2.489  28.894  1.00  0.00    -0.364 N 
HETATM   25  C18 UNL     1      -0.252  -2.077  27.680  1.00  0.00     0.186 C 
HETATM   26  N4  UNL     1      -1.347  -2.460  26.850  1.00  0.00    -0.064 NA
HETATM   27  N5  UNL     1       0.832  -1.324  27.219  1.00  0.00    -0.352 N 
HETATM   28  C19 UNL     1       0.811  -0.413  26.124  1.00  0.00     0.145 C 
HETATM   29  C26 UNL     1       2.159  -1.512  27.800  1.00  0.00     0.150 C 
HETATM   30  C20 UNL     1       1.828  -1.079  25.111  1.00  0.00     0.137 C 
HETATM   31  N6  UNL     1       2.178  -2.367  25.570  1.00  0.00    -0.405 N 
HETATM   32  C21 UNL     1       2.710  -3.236  24.595  1.00  0.00     0.117 C 
HETATM   33  C25 UNL     1       2.849  -2.455  26.831  1.00  0.00     0.097 C 
HETATM   34  C22 UNL     1       3.876  -4.078  25.060  1.00  0.00     0.019 C 
HETATM   35  C23 UNL     1       4.894  -3.289  25.863  1.00  0.00     0.004 C 
HETATM   36  C24 UNL     1       4.288  -2.190  26.732  1.00  0.00     0.026 C 
ATOM     37  H3  UNL     1       0.534  -2.239  29.511  1.00  0.00     0.162 HD
ENDBRANCH  23  24
ENDBRANCH  22  23
ENDBRANCH  21  22
ENDBRANCH   1  21
BRANCH   1  38
HETATM   38  N7  UNL     1      -5.739  -2.567  31.245  1.00  0.00    -0.379 NA
BRANCH  38  39
HETATM   39  C27 UNL     1      -6.903  -1.966  31.345  1.00  0.00     0.214 C 
BRANCH  39  40
HETATM   40  O2  UNL     1      -7.916  -1.959  30.515  1.00  0.00    -0.337 OA
ATOM     41  H2  UNL     1      -8.011  -1.522  29.677  1.00  0.00     0.220 HD
ENDBRANCH  39  40
BRANCH  39  42
HETATM   42  C28 UNL     1      -7.290  -1.083  32.567  1.00  0.00     0.180 C 
HETATM   43  C29 UNL     1      -6.316   0.087  32.545  1.00  0.00     0.035 C 
HETATM   44  C30 UNL     1      -6.317   0.825  31.229  1.00  0.00     0.008 C 
HETATM   45  C31 UNL     1      -7.694   1.410  31.064  1.00  0.00     0.045 C 
HETATM   46  C32 UNL     1      -8.697   0.848  31.946  1.00  0.00     0.067 C 
HETATM   47  N8  UNL     1      -8.569  -0.518  32.347  1.00  0.00    -0.322 N 
HETATM   48  C33 UNL     1      -9.783  -1.265  32.570  1.00  0.00     0.188 C 
HETATM   49  N9  UNL     1     -10.090  -1.583  33.754  1.00  0.00    -0.373 N 
HETATM   50  N10 UNL     1     -10.597  -1.600  31.478  1.00  0.00    -0.064 NA
ATOM     51  H92 UNL     1      -9.499  -1.340  34.548  1.00  0.00     0.158 HD
ATOM     52  H91 UNL     1     -10.949  -2.112  33.911  1.00  0.00     0.158 HD
ENDBRANCH  39  42
ENDBRANCH  38  39
ENDBRANCH   1  38
TORSDOF 19
ENDMDL
