MODEL 1
REMARK VINA RESULT: -9.253967542      0.000      0.000
REMARK  17 active torsions:
REMARK  status: ('A' for Active; 'I' for Inactive)
REMARK    1  A    between atoms: C2_2  and  C3_3 
REMARK    2  A    between atoms: C3_3  and  N1_4 
REMARK    3  A    between atoms: N1_4  and  C4_6 
REMARK    4  A    between atoms: C4_6  and  C5_7 
REMARK    5  A    between atoms: C4_6  and  C31_47 
REMARK       I    between atoms: C5_7  and  N2_9 
REMARK    6  A    between atoms: N2_9  and  C6_11 
REMARK    7  A    between atoms: C6_11  and  C7_12 
REMARK    8  A    between atoms: C6_11  and  C15_22 
REMARK    9  A    between atoms: C7_12  and  C8_13 
REMARK   10  A    between atoms: C8_13  and  C9_14 
REMARK       I    between atoms: C9_14  and  N3_16 
REMARK   11  A    between atoms: N3_16  and  C10_17 
REMARK   12  A    between atoms: N3_16  and  C12_19 
REMARK   13  A    between atoms: C12_19  and  C13_20 
REMARK   14  A    between atoms: C15_22  and  O3_23 
REMARK   15  A    between atoms: C15_22  and  N4_25 
REMARK   16  A    between atoms: N7_41  and  C26_42 
REMARK   17  A    between atoms: C26_42  and  C27_43 
ROOT
HETATM    1  C6  UNL     1      -2.161  -2.564  29.207  1.00  0.00     0.159 C 
ENDROOT
BRANCH   1   2
HETATM    2  N2  UNL     1      -3.119  -2.258  30.225  1.00  0.00    -0.347 N 
HETATM    3  C5  UNL     1      -4.327  -2.896  30.519  1.00  0.00     0.241 C 
HETATM    4  O1  UNL     1      -4.693  -3.888  29.845  1.00  0.00    -0.271 OA
ATOM      5  H2  UNL     1      -2.887  -1.462  30.819  1.00  0.00     0.163 HD
BRANCH   3   6
HETATM    6  C4  UNL     1      -5.224  -2.453  31.617  1.00  0.00     0.173 C 
BRANCH   6   7
HETATM    7  N1  UNL     1      -5.493  -3.497  32.550  1.00  0.00    -0.406 N 
ATOM      8  H1  UNL     1      -6.372  -4.014  32.533  1.00  0.00     0.154 HD
BRANCH   7   9
HETATM    9  C3  UNL     1      -4.474  -3.787  33.509  1.00  0.00     0.141 C 
BRANCH   9  10
HETATM   10  C2  UNL     1      -4.386  -5.286  33.606  1.00  0.00    -0.018 C 
HETATM   11  C1  UNL     1      -4.287  -6.029  32.538  1.00  0.00     0.008 C 
ENDBRANCH   9  10
ENDBRANCH   7   9
ENDBRANCH   6   7
BRANCH   6  12
HETATM   12  C31 UNL     1      -6.479  -1.778  31.165  1.00  0.00     0.017 C 
HETATM   13  C32 UNL     1      -6.316  -0.300  31.411  1.00  0.00     0.007 C 
HETATM   14  C33 UNL     1      -7.188   0.231  32.514  1.00  0.00     0.000 C 
HETATM   15  C34 UNL     1      -8.506   0.695  31.897  1.00  0.00     0.000 C 
HETATM   16  C35 UNL     1      -9.455  -0.496  31.966  1.00  0.00     0.000 C 
HETATM   17  C36 UNL     1      -8.891  -1.558  31.062  1.00  0.00     0.000 C 
HETATM   18  C37 UNL     1      -7.745  -2.338  31.714  1.00  0.00     0.007 C 
ENDBRANCH   6  12
ENDBRANCH   3   6
ENDBRANCH   1   2
BRANCH   1  19
HETATM   19  C7  UNL     1      -0.925  -3.269  29.687  1.00  0.00     0.043 C 
BRANCH  19  20
HETATM   20  C8  UNL     1      -1.175  -4.694  30.171  1.00  0.00     0.105 C 
BRANCH  20  21
HETATM   21  C9  UNL     1       0.065  -5.147  30.843  1.00  0.00     0.219 C 
HETATM   22  O2  UNL     1       1.102  -4.404  30.756  1.00  0.00    -0.273 OA
HETATM   23  N3  UNL     1       0.191  -6.341  31.572  1.00  0.00    -0.352 N 
BRANCH  23  24
HETATM   24  C10 UNL     1       1.526  -6.653  32.117  1.00  0.00     0.121 C 
HETATM   25  C11 UNL     1       1.432  -7.270  33.485  1.00  0.00     0.026 C 
ENDBRANCH  23  24
BRANCH  23  26
HETATM   26  C12 UNL     1      -0.918  -7.190  31.809  1.00  0.00     0.125 C 
BRANCH  26  27
HETATM   27  C13 UNL     1      -1.102  -8.387  30.970  1.00  0.00     0.015 C 
HETATM   28  C14 UNL     1      -2.344  -8.490  30.151  1.00  0.00     0.006 C 
ENDBRANCH  26  27
ENDBRANCH  23  26
ENDBRANCH  20  21
ENDBRANCH  19  20
ENDBRANCH   1  19
BRANCH   1  29
HETATM   29  C15 UNL     1      -1.829  -1.407  28.383  1.00  0.00     0.137 C 
BRANCH  29  30
HETATM   30  O3  UNL     1      -2.667  -0.417  28.478  1.00  0.00    -0.348 OA
ATOM     31  H3  UNL     1      -2.528   0.279  27.846  1.00  0.00     0.219 HD
ENDBRANCH  29  30
BRANCH  29  32
HETATM   32  N4  UNL     1      -0.766  -1.179  27.505  1.00  0.00    -0.361 N 
HETATM   33  C16 UNL     1       0.158  -0.076  27.528  1.00  0.00     0.128 C 
HETATM   34  C17 UNL     1       1.385  -0.598  26.770  1.00  0.00     0.070 C 
HETATM   35  C18 UNL     1       0.756  -1.381  25.664  1.00  0.00     0.221 C 
HETATM   36  C19 UNL     1      -0.394  -2.069  26.387  1.00  0.00     0.173 C 
HETATM   37  C20 UNL     1       0.209  -0.447  24.662  1.00  0.00     0.077 A 
HETATM   38  N7  UNL     1       1.638  -2.381  25.081  1.00  0.00     0.111 N 
HETATM   39  N5  UNL     1      -1.036   0.116  24.515  1.00  0.00    -0.308 N 
HETATM   40  C22 UNL     1       1.023   0.018  23.656  1.00  0.00     0.041 A 
HETATM   41  C21 UNL     1      -0.947   0.901  23.437  1.00  0.00     0.325 A 
ATOM     42  H5  UNL     1      -1.855  -0.033  25.105  1.00  0.00     0.170 HD
HETATM   43  O4  UNL     1      -1.900   1.608  22.960  1.00  0.00    -0.247 OA
HETATM   44  N6  UNL     1       0.300   0.849  22.906  1.00  0.00    -0.310 N 
ATOM     45  H6  UNL     1       0.625   1.355  22.082  1.00  0.00     0.170 HD
HETATM   46  C23 UNL     1       2.410  -0.518  23.661  1.00  0.00     0.094 C 
HETATM   47  C24 UNL     1       2.194  -2.038  23.824  1.00  0.00     0.226 C 
HETATM   48  C25 UNL     1       1.292  -2.455  22.676  1.00  0.00     0.043 C 
BRANCH  38  49
HETATM   49  C26 UNL     1       2.583  -2.869  26.048  1.00  0.00     0.279 C 
BRANCH  49  50
HETATM   50  C27 UNL     1       3.955  -2.966  25.450  1.00  0.00     0.014 C 
HETATM   51  C28 UNL     1       5.023  -2.232  26.267  1.00  0.00     0.006 C 
HETATM   52  C29 UNL     1       5.960  -3.382  25.935  1.00  0.00     0.001 C 
HETATM   53  C30 UNL     1       4.699  -4.254  25.845  1.00  0.00     0.006 C 
ENDBRANCH  49  50
ENDBRANCH  38  49
ENDBRANCH  29  32
ENDBRANCH   1  29
TORSDOF 17
ENDMDL
MODEL 2
REMARK VINA RESULT: -8.809811276      1.809      3.937
REMARK  17 active torsions:
REMARK  status: ('A' for Active; 'I' for Inactive)
REMARK    1  A    between atoms: C2_2  and  C3_3 
REMARK    2  A    between atoms: C3_3  and  N1_4 
REMARK    3  A    between atoms: N1_4  and  C4_6 
REMARK    4  A    between atoms: C4_6  and  C5_7 
REMARK    5  A    between atoms: C4_6  and  C31_47 
REMARK       I    between atoms: C5_7  and  N2_9 
REMARK    6  A    between atoms: N2_9  and  C6_11 
REMARK    7  A    between atoms: C6_11  and  C7_12 
REMARK    8  A    between atoms: C6_11  and  C15_22 
REMARK    9  A    between atoms: C7_12  and  C8_13 
REMARK   10  A    between atoms: C8_13  and  C9_14 
REMARK       I    between atoms: C9_14  and  N3_16 
REMARK   11  A    between atoms: N3_16  and  C10_17 
REMARK   12  A    between atoms: N3_16  and  C12_19 
REMARK   13  A    between atoms: C12_19  and  C13_20 
REMARK   14  A    between atoms: C15_22  and  O3_23 
REMARK   15  A    between atoms: C15_22  and  N4_25 
REMARK   16  A    between atoms: N7_41  and  C26_42 
REMARK   17  A    between atoms: C26_42  and  C27_43 
ROOT
HETATM    1  C6  UNL     1      -2.316  -2.507  28.954  1.00  0.00     0.159 C 
ENDROOT
BRANCH   1   2
HETATM    2  N2  UNL     1      -3.231  -2.153  29.994  1.00  0.00    -0.347 N 
HETATM    3  C5  UNL     1      -4.371  -2.832  30.435  1.00  0.00     0.241 C 
HETATM    4  O1  UNL     1      -4.703  -3.914  29.896  1.00  0.00    -0.271 OA
ATOM      5  H2  UNL     1      -3.022  -1.283  30.484  1.00  0.00     0.163 HD
BRANCH   3   6
HETATM    6  C4  UNL     1      -5.230  -2.329  31.537  1.00  0.00     0.173 C 
BRANCH   6   7
HETATM    7  N1  UNL     1      -5.502  -3.333  32.512  1.00  0.00    -0.406 N 
ATOM      8  H1  UNL     1      -6.421  -3.769  32.586  1.00  0.00     0.154 HD
BRANCH   7   9
HETATM    9  C3  UNL     1      -4.427  -3.701  33.379  1.00  0.00     0.141 C 
BRANCH   9  10
HETATM   10  C2  UNL     1      -4.500  -5.195  33.547  1.00  0.00    -0.018 C 
HETATM   11  C1  UNL     1      -4.266  -6.000  32.547  1.00  0.00     0.008 C 
ENDBRANCH   9  10
ENDBRANCH   7   9
ENDBRANCH   6   7
BRANCH   6  12
HETATM   12  C31 UNL     1      -6.479  -1.639  31.091  1.00  0.00     0.017 C 
HETATM   13  C32 UNL     1      -6.319  -0.170  31.387  1.00  0.00     0.007 C 
HETATM   14  C33 UNL     1      -7.207   0.325  32.495  1.00  0.00     0.000 C 
HETATM   15  C34 UNL     1      -8.516   0.809  31.875  1.00  0.00     0.000 C 
HETATM   16  C35 UNL     1      -9.466  -0.383  31.892  1.00  0.00     0.000 C 
HETATM   17  C36 UNL     1      -8.890  -1.415  30.962  1.00  0.00     0.000 C 
HETATM   18  C37 UNL     1      -7.752  -2.216  31.604  1.00  0.00     0.007 C 
ENDBRANCH   6  12
ENDBRANCH   3   6
ENDBRANCH   1   2
BRANCH   1  19
HETATM   19  C7  UNL     1      -1.006  -3.073  29.422  1.00  0.00     0.043 C 
BRANCH  19  20
HETATM   20  C8  UNL     1      -1.133  -4.411  30.142  1.00  0.00     0.105 C 
BRANCH  20  21
HETATM   21  C9  UNL     1       0.236  -4.829  30.524  1.00  0.00     0.219 C 
HETATM   22  O2  UNL     1       1.215  -4.100  30.145  1.00  0.00    -0.273 OA
HETATM   23  N3  UNL     1       0.544  -5.977  31.273  1.00  0.00    -0.352 N 
BRANCH  23  24
HETATM   24  C10 UNL     1       1.974  -6.263  31.499  1.00  0.00     0.121 C 
HETATM   25  C11 UNL     1       2.295  -6.340  32.966  1.00  0.00     0.026 C 
ENDBRANCH  23  24
BRANCH  23  26
HETATM   26  C12 UNL     1      -0.467  -6.802  31.821  1.00  0.00     0.125 C 
BRANCH  26  27
HETATM   27  C13 UNL     1      -0.776  -8.091  31.175  1.00  0.00     0.015 C 
HETATM   28  C14 UNL     1      -2.088  -8.234  30.479  1.00  0.00     0.006 C 
ENDBRANCH  26  27
ENDBRANCH  23  26
ENDBRANCH  20  21
ENDBRANCH  19  20
ENDBRANCH   1  19
BRANCH   1  29
HETATM   29  C15 UNL     1      -2.117  -1.430  27.991  1.00  0.00     0.137 C 
BRANCH  29  30
HETATM   30  O3  UNL     1      -2.283  -0.234  28.475  1.00  0.00    -0.348 OA
ATOM     31  H3  UNL     1      -1.952   0.465  27.922  1.00  0.00     0.219 HD
ENDBRANCH  29  30
BRANCH  29  32
HETATM   32  N4  UNL     1      -1.784  -1.460  26.634  1.00  0.00    -0.361 N 
HETATM   33  C16 UNL     1      -1.602  -2.627  25.810  1.00  0.00     0.128 C 
HETATM   34  C17 UNL     1      -1.820  -2.115  24.381  1.00  0.00     0.070 C 
HETATM   35  C18 UNL     1      -1.151  -0.781  24.424  1.00  0.00     0.221 C 
HETATM   36  C19 UNL     1      -1.575  -0.265  25.792  1.00  0.00     0.173 C 
HETATM   37  C20 UNL     1       0.312  -0.973  24.410  1.00  0.00     0.077 A 
HETATM   38  N7  UNL     1      -1.609   0.135  23.390  1.00  0.00     0.111 N 
HETATM   39  N5  UNL     1       1.231  -1.089  25.425  1.00  0.00    -0.308 N 
HETATM   40  C22 UNL     1       0.967  -1.086  23.207  1.00  0.00     0.041 A 
HETATM   41  C21 UNL     1       2.408  -1.269  24.819  1.00  0.00     0.325 A 
ATOM     42  H5  UNL     1       1.053  -1.047  26.428  1.00  0.00     0.170 HD
HETATM   43  O4  UNL     1       3.529  -1.420  25.417  1.00  0.00    -0.247 OA
HETATM   44  N6  UNL     1       2.261  -1.269  23.471  1.00  0.00    -0.310 N 
ATOM     45  H6  UNL     1       3.006  -1.387  22.784  1.00  0.00     0.170 HD
HETATM   46  C23 UNL     1       0.109  -0.961  22.000  1.00  0.00     0.094 C 
HETATM   47  C24 UNL     1      -0.724   0.305  22.297  1.00  0.00     0.226 C 
HETATM   48  C25 UNL     1       0.282   1.414  22.552  1.00  0.00     0.043 C 
BRANCH  38  49
HETATM   49  C26 UNL     1      -2.975  -0.128  23.028  1.00  0.00     0.279 C 
BRANCH  49  50
HETATM   50  C27 UNL     1      -3.433   0.816  21.957  1.00  0.00     0.014 C 
HETATM   51  C28 UNL     1      -4.134   0.112  20.791  1.00  0.00     0.006 C 
HETATM   52  C29 UNL     1      -5.091   1.293  20.752  1.00  0.00     0.001 C 
HETATM   53  C30 UNL     1      -4.804   1.449  22.253  1.00  0.00     0.006 C 
ENDBRANCH  49  50
ENDBRANCH  38  49
ENDBRANCH  29  32
ENDBRANCH   1  29
TORSDOF 17
ENDMDL
MODEL 3
REMARK VINA RESULT: -8.660374025      1.776      2.276
REMARK  17 active torsions:
REMARK  status: ('A' for Active; 'I' for Inactive)
REMARK    1  A    between atoms: C2_2  and  C3_3 
REMARK    2  A    between atoms: C3_3  and  N1_4 
REMARK    3  A    between atoms: N1_4  and  C4_6 
REMARK    4  A    between atoms: C4_6  and  C5_7 
REMARK    5  A    between atoms: C4_6  and  C31_47 
REMARK       I    between atoms: C5_7  and  N2_9 
REMARK    6  A    between atoms: N2_9  and  C6_11 
REMARK    7  A    between atoms: C6_11  and  C7_12 
REMARK    8  A    between atoms: C6_11  and  C15_22 
REMARK    9  A    between atoms: C7_12  and  C8_13 
REMARK   10  A    between atoms: C8_13  and  C9_14 
REMARK       I    between atoms: C9_14  and  N3_16 
REMARK   11  A    between atoms: N3_16  and  C10_17 
REMARK   12  A    between atoms: N3_16  and  C12_19 
REMARK   13  A    between atoms: C12_19  and  C13_20 
REMARK   14  A    between atoms: C15_22  and  O3_23 
REMARK   15  A    between atoms: C15_22  and  N4_25 
REMARK   16  A    between atoms: N7_41  and  C26_42 
REMARK   17  A    between atoms: C26_42  and  C27_43 
ROOT
HETATM    1  C6  UNL     1      -2.255  -2.502  28.921  1.00  0.00     0.159 C 
ENDROOT
BRANCH   1   2
HETATM    2  N2  UNL     1      -3.173  -2.141  29.957  1.00  0.00    -0.347 N 
HETATM    3  C5  UNL     1      -4.320  -2.812  30.390  1.00  0.00     0.241 C 
HETATM    4  O1  UNL     1      -4.657  -3.892  29.850  1.00  0.00    -0.271 OA
ATOM      5  H2  UNL     1      -2.961  -1.272  30.448  1.00  0.00     0.163 HD
BRANCH   3   6
HETATM    6  C4  UNL     1      -5.182  -2.303  31.488  1.00  0.00     0.173 C 
BRANCH   6   7
HETATM    7  N1  UNL     1      -5.465  -3.305  32.461  1.00  0.00    -0.406 N 
ATOM      8  H1  UNL     1      -6.385  -3.742  32.525  1.00  0.00     0.154 HD
BRANCH   7   9
HETATM    9  C3  UNL     1      -4.402  -3.670  33.343  1.00  0.00     0.141 C 
BRANCH   9  10
HETATM   10  C2  UNL     1      -4.496  -5.159  33.541  1.00  0.00    -0.018 C 
HETATM   11  C1  UNL     1      -4.232  -5.989  32.569  1.00  0.00     0.008 C 
ENDBRANCH   9  10
ENDBRANCH   7   9
ENDBRANCH   6   7
BRANCH   6  12
HETATM   12  C31 UNL     1      -6.424  -1.606  31.035  1.00  0.00     0.017 C 
HETATM   13  C32 UNL     1      -6.251  -0.135  31.320  1.00  0.00     0.007 C 
HETATM   14  C33 UNL     1      -7.135   0.376  32.423  1.00  0.00     0.000 C 
HETATM   15  C34 UNL     1      -8.439   0.867  31.798  1.00  0.00     0.000 C 
HETATM   16  C35 UNL     1      -9.399  -0.315  31.823  1.00  0.00     0.000 C 
HETATM   17  C36 UNL     1      -8.832  -1.360  30.902  1.00  0.00     0.000 C 
HETATM   18  C37 UNL     1      -7.703  -2.166  31.551  1.00  0.00     0.007 C 
ENDBRANCH   6  12
ENDBRANCH   3   6
ENDBRANCH   1   2
BRANCH   1  19
HETATM   19  C7  UNL     1      -0.965  -3.108  29.395  1.00  0.00     0.043 C 
BRANCH  19  20
HETATM   20  C8  UNL     1      -1.136  -4.450  30.101  1.00  0.00     0.105 C 
BRANCH  20  21
HETATM   21  C9  UNL     1       0.205  -4.865  30.572  1.00  0.00     0.219 C 
HETATM   22  O2  UNL     1       1.207  -4.136  30.255  1.00  0.00    -0.273 OA
HETATM   23  N3  UNL     1       0.465  -6.011  31.343  1.00  0.00    -0.352 N 
BRANCH  23  24
HETATM   24  C10 UNL     1       1.877  -6.295  31.663  1.00  0.00     0.121 C 
HETATM   25  C11 UNL     1       2.054  -6.648  33.113  1.00  0.00     0.026 C 
ENDBRANCH  23  24
BRANCH  23  26
HETATM   26  C12 UNL     1      -0.579  -6.835  31.827  1.00  0.00     0.125 C 
BRANCH  26  27
HETATM   27  C13 UNL     1      -0.844  -8.126  31.168  1.00  0.00     0.015 C 
HETATM   28  C14 UNL     1      -2.123  -8.286  30.418  1.00  0.00     0.006 C 
ENDBRANCH  26  27
ENDBRANCH  23  26
ENDBRANCH  20  21
ENDBRANCH  19  20
ENDBRANCH   1  19
BRANCH   1  29
HETATM   29  C15 UNL     1      -2.017  -1.414  27.979  1.00  0.00     0.137 C 
BRANCH  29  30
HETATM   30  O3  UNL     1      -2.326  -0.233  28.426  1.00  0.00    -0.348 OA
ATOM     31  H3  UNL     1      -2.481   0.417  27.751  1.00  0.00     0.219 HD
ENDBRANCH  29  30
BRANCH  29  32
HETATM   32  N4  UNL     1      -1.518  -1.422  26.673  1.00  0.00    -0.361 N 
HETATM   33  C16 UNL     1      -1.906  -0.557  25.590  1.00  0.00     0.128 C 
HETATM   34  C17 UNL     1      -0.712  -0.600  24.629  1.00  0.00     0.070 C 
HETATM   35  C18 UNL     1      -0.312  -2.037  24.695  1.00  0.00     0.221 C 
HETATM   36  C19 UNL     1      -0.467  -2.334  26.180  1.00  0.00     0.173 C 
HETATM   37  C20 UNL     1      -1.285  -2.844  23.935  1.00  0.00     0.077 A 
HETATM   38  N7  UNL     1       1.063  -2.280  24.286  1.00  0.00     0.111 N 
HETATM   39  N5  UNL     1      -2.433  -3.497  24.318  1.00  0.00    -0.308 N 
HETATM   40  C22 UNL     1      -1.108  -3.021  22.584  1.00  0.00     0.041 A 
HETATM   41  C21 UNL     1      -2.918  -4.046  23.201  1.00  0.00     0.325 A 
ATOM     42  H5  UNL     1      -2.830  -3.550  25.256  1.00  0.00     0.170 HD
HETATM   43  O4  UNL     1      -3.986  -4.746  23.128  1.00  0.00    -0.247 OA
HETATM   44  N6  UNL     1      -2.122  -3.765  22.140  1.00  0.00    -0.310 N 
ATOM     45  H6  UNL     1      -2.271  -4.067  21.177  1.00  0.00     0.170 HD
HETATM   46  C23 UNL     1       0.111  -2.390  22.013  1.00  0.00     0.094 C 
HETATM   47  C24 UNL     1       1.221  -2.833  22.991  1.00  0.00     0.226 C 
HETATM   48  C25 UNL     1       1.172  -4.350  23.016  1.00  0.00     0.043 C 
BRANCH  38  49
HETATM   49  C26 UNL     1       1.899  -1.143  24.565  1.00  0.00     0.279 C 
BRANCH  49  50
HETATM   50  C27 UNL     1       3.022  -1.053  23.576  1.00  0.00     0.014 C 
HETATM   51  C28 UNL     1       3.359   0.385  23.173  1.00  0.00     0.006 C 
HETATM   52  C29 UNL     1       4.820  -0.033  23.184  1.00  0.00     0.001 C 
HETATM   53  C30 UNL     1       4.413  -1.075  24.236  1.00  0.00     0.006 C 
ENDBRANCH  49  50
ENDBRANCH  38  49
ENDBRANCH  29  32
ENDBRANCH   1  29
TORSDOF 17
ENDMDL
MODEL 4
REMARK VINA RESULT: -8.497066251      0.853      1.570
REMARK  17 active torsions:
REMARK  status: ('A' for Active; 'I' for Inactive)
REMARK    1  A    between atoms: C2_2  and  C3_3 
REMARK    2  A    between atoms: C3_3  and  N1_4 
REMARK    3  A    between atoms: N1_4  and  C4_6 
REMARK    4  A    between atoms: C4_6  and  C5_7 
REMARK    5  A    between atoms: C4_6  and  C31_47 
REMARK       I    between atoms: C5_7  and  N2_9 
REMARK    6  A    between atoms: N2_9  and  C6_11 
REMARK    7  A    between atoms: C6_11  and  C7_12 
REMARK    8  A    between atoms: C6_11  and  C15_22 
REMARK    9  A    between atoms: C7_12  and  C8_13 
REMARK   10  A    between atoms: C8_13  and  C9_14 
REMARK       I    between atoms: C9_14  and  N3_16 
REMARK   11  A    between atoms: N3_16  and  C10_17 
REMARK   12  A    between atoms: N3_16  and  C12_19 
REMARK   13  A    between atoms: C12_19  and  C13_20 
REMARK   14  A    between atoms: C15_22  and  O3_23 
REMARK   15  A    between atoms: C15_22  and  N4_25 
REMARK   16  A    between atoms: N7_41  and  C26_42 
REMARK   17  A    between atoms: C26_42  and  C27_43 
ROOT
HETATM    1  C6  UNL     1      -1.782  -2.994  29.792  1.00  0.00     0.159 C 
ENDROOT
BRANCH   1   2
HETATM    2  N2  UNL     1      -2.796  -2.782  30.778  1.00  0.00    -0.347 N 
HETATM    3  C5  UNL     1      -4.129  -3.204  30.777  1.00  0.00     0.241 C 
HETATM    4  O1  UNL     1      -4.574  -3.872  29.814  1.00  0.00    -0.271 OA
ATOM      5  H2  UNL     1      -2.506  -2.248  31.597  1.00  0.00     0.163 HD
BRANCH   3   6
HETATM    6  C4  UNL     1      -5.069  -2.899  31.885  1.00  0.00     0.173 C 
BRANCH   6   7
HETATM    7  N1  UNL     1      -5.308  -4.031  32.718  1.00  0.00    -0.406 N 
ATOM      8  H1  UNL     1      -6.213  -4.501  32.732  1.00  0.00     0.154 HD
BRANCH   7   9
HETATM    9  C3  UNL     1      -4.221  -4.476  33.532  1.00  0.00     0.141 C 
BRANCH   9  10
HETATM   10  C2  UNL     1      -4.376  -5.966  33.681  1.00  0.00    -0.018 C 
HETATM   11  C1  UNL     1      -4.365  -6.755  32.642  1.00  0.00     0.008 C 
ENDBRANCH   9  10
ENDBRANCH   7   9
ENDBRANCH   6   7
BRANCH   6  12
HETATM   12  C31 UNL     1      -6.345  -2.247  31.460  1.00  0.00     0.017 C 
HETATM   13  C32 UNL     1      -6.067  -0.776  31.279  1.00  0.00     0.007 C 
HETATM   14  C33 UNL     1      -6.715   0.096  32.318  1.00  0.00     0.000 C 
HETATM   15  C34 UNL     1      -8.091   0.509  31.800  1.00  0.00     0.000 C 
HETATM   16  C35 UNL     1      -9.076  -0.531  32.320  1.00  0.00     0.000 C 
HETATM   17  C36 UNL     1      -8.726  -1.835  31.657  1.00  0.00     0.000 C 
HETATM   18  C37 UNL     1      -7.530  -2.528  32.317  1.00  0.00     0.007 C 
ENDBRANCH   6  12
ENDBRANCH   3   6
ENDBRANCH   1   2
BRANCH   1  19
HETATM   19  C7  UNL     1      -0.400  -3.217  30.336  1.00  0.00     0.043 C 
BRANCH  19  20
HETATM   20  C8  UNL     1       0.207  -4.562  29.949  1.00  0.00     0.105 C 
BRANCH  20  21
HETATM   21  C9  UNL     1      -0.461  -5.592  30.778  1.00  0.00     0.219 C 
HETATM   22  O2  UNL     1      -1.728  -5.726  30.667  1.00  0.00    -0.273 OA
HETATM   23  N3  UNL     1       0.196  -6.438  31.688  1.00  0.00    -0.352 N 
BRANCH  23  24
HETATM   24  C10 UNL     1      -0.648  -7.360  32.472  1.00  0.00     0.121 C 
HETATM   25  C11 UNL     1      -1.044  -8.566  31.666  1.00  0.00     0.026 C 
ENDBRANCH  23  24
BRANCH  23  26
HETATM   26  C12 UNL     1       1.606  -6.438  31.820  1.00  0.00     0.125 C 
BRANCH  26  27
HETATM   27  C13 UNL     1       2.206  -6.163  33.138  1.00  0.00     0.015 C 
HETATM   28  C14 UNL     1       2.384  -4.740  33.548  1.00  0.00     0.006 C 
ENDBRANCH  26  27
ENDBRANCH  23  26
ENDBRANCH  20  21
ENDBRANCH  19  20
ENDBRANCH   1  19
BRANCH   1  29
HETATM   29  C15 UNL     1      -1.786  -1.970  28.753  1.00  0.00     0.137 C 
BRANCH  29  30
HETATM   30  O3  UNL     1      -2.928  -1.369  28.591  1.00  0.00    -0.348 OA
ATOM     31  H3  UNL     1      -3.422  -1.237  29.392  1.00  0.00     0.219 HD
ENDBRANCH  29  30
BRANCH  29  32
HETATM   32  N4  UNL     1      -0.775  -1.525  27.897  1.00  0.00    -0.361 N 
HETATM   33  C16 UNL     1      -0.089  -0.260  27.948  1.00  0.00     0.128 C 
HETATM   34  C17 UNL     1       1.229  -0.519  27.208  1.00  0.00     0.070 C 
HETATM   35  C18 UNL     1       0.786  -1.397  26.083  1.00  0.00     0.221 C 
HETATM   36  C19 UNL     1      -0.216  -2.308  26.778  1.00  0.00     0.173 C 
HETATM   37  C20 UNL     1       0.082  -0.577  25.079  1.00  0.00     0.077 A 
HETATM   38  N7  UNL     1       1.859  -2.194  25.508  1.00  0.00     0.111 N 
HETATM   39  N5  UNL     1      -1.248  -0.271  24.915  1.00  0.00    -0.308 N 
HETATM   40  C22 UNL     1       0.804   0.052  24.093  1.00  0.00     0.041 A 
HETATM   41  C21 UNL     1      -1.298   0.530  23.846  1.00  0.00     0.325 A 
ATOM     42  H5  UNL     1      -2.030  -0.586  25.487  1.00  0.00     0.170 HD
HETATM   43  O4  UNL     1      -2.364   1.040  23.358  1.00  0.00    -0.247 OA
HETATM   44  N6  UNL     1      -0.058   0.733  23.337  1.00  0.00    -0.310 N 
ATOM     45  H6  UNL     1       0.174   1.304  22.524  1.00  0.00     0.170 HD
HETATM   46  C23 UNL     1       2.269  -0.197  24.119  1.00  0.00     0.094 C 
HETATM   47  C24 UNL     1       2.357  -1.733  24.264  1.00  0.00     0.226 C 
HETATM   48  C25 UNL     1       1.575  -2.305  23.095  1.00  0.00     0.043 C 
BRANCH  38  49
HETATM   49  C26 UNL     1       2.866  -2.498  26.488  1.00  0.00     0.279 C 
BRANCH  49  50
HETATM   50  C27 UNL     1       4.133  -2.950  25.826  1.00  0.00     0.014 C 
HETATM   51  C28 UNL     1       5.377  -2.216  26.336  1.00  0.00     0.006 C 
HETATM   52  C29 UNL     1       6.110  -3.544  26.238  1.00  0.00     0.001 C 
HETATM   53  C30 UNL     1       4.744  -4.204  26.478  1.00  0.00     0.006 C 
ENDBRANCH  49  50
ENDBRANCH  38  49
ENDBRANCH  29  32
ENDBRANCH   1  29
TORSDOF 17
ENDMDL
MODEL 5
REMARK VINA RESULT: -8.378437473      1.337      2.054
REMARK  17 active torsions:
REMARK  status: ('A' for Active; 'I' for Inactive)
REMARK    1  A    between atoms: C2_2  and  C3_3 
REMARK    2  A    between atoms: C3_3  and  N1_4 
REMARK    3  A    between atoms: N1_4  and  C4_6 
REMARK    4  A    between atoms: C4_6  and  C5_7 
REMARK    5  A    between atoms: C4_6  and  C31_47 
REMARK       I    between atoms: C5_7  and  N2_9 
REMARK    6  A    between atoms: N2_9  and  C6_11 
REMARK    7  A    between atoms: C6_11  and  C7_12 
REMARK    8  A    between atoms: C6_11  and  C15_22 
REMARK    9  A    between atoms: C7_12  and  C8_13 
REMARK   10  A    between atoms: C8_13  and  C9_14 
REMARK       I    between atoms: C9_14  and  N3_16 
REMARK   11  A    between atoms: N3_16  and  C10_17 
REMARK   12  A    between atoms: N3_16  and  C12_19 
REMARK   13  A    between atoms: C12_19  and  C13_20 
REMARK   14  A    between atoms: C15_22  and  O3_23 
REMARK   15  A    between atoms: C15_22  and  N4_25 
REMARK   16  A    between atoms: N7_41  and  C26_42 
REMARK   17  A    between atoms: C26_42  and  C27_43 
ROOT
HETATM    1  C6  UNL     1      -1.428  -3.382  29.760  1.00  0.00     0.159 C 
ENDROOT
BRANCH   1   2
HETATM    2  N2  UNL     1      -2.229  -3.236  30.936  1.00  0.00    -0.347 N 
HETATM    3  C5  UNL     1      -3.541  -3.659  31.168  1.00  0.00     0.241 C 
HETATM    4  O1  UNL     1      -4.172  -4.264  30.270  1.00  0.00    -0.271 OA
ATOM      5  H2  UNL     1      -1.779  -2.754  31.715  1.00  0.00     0.163 HD
BRANCH   3   6
HETATM    6  C4  UNL     1      -4.244  -3.427  32.456  1.00  0.00     0.173 C 
BRANCH   6   7
HETATM    7  N1  UNL     1      -4.955  -4.580  32.898  1.00  0.00    -0.406 N 
ATOM      8  H1  UNL     1      -5.957  -4.684  32.738  1.00  0.00     0.154 HD
BRANCH   7   9
HETATM    9  C3  UNL     1      -4.200  -5.585  33.577  1.00  0.00     0.141 C 
BRANCH   9  10
HETATM   10  C2  UNL     1      -4.497  -6.889  32.887  1.00  0.00    -0.018 C 
HETATM   11  C1  UNL     1      -3.743  -7.329  31.917  1.00  0.00     0.008 C 
ENDBRANCH   9  10
ENDBRANCH   7   9
ENDBRANCH   6   7
BRANCH   6  12
HETATM   12  C31 UNL     1      -5.102  -2.203  32.487  1.00  0.00     0.017 C 
HETATM   13  C32 UNL     1      -6.267  -2.486  33.401  1.00  0.00     0.007 C 
HETATM   14  C33 UNL     1      -7.583  -2.610  32.685  1.00  0.00     0.000 C 
HETATM   15  C34 UNL     1      -8.230  -1.228  32.636  1.00  0.00     0.000 C 
HETATM   16  C35 UNL     1      -7.784  -0.591  31.326  1.00  0.00     0.000 C 
HETATM   17  C36 UNL     1      -6.298  -0.381  31.425  1.00  0.00     0.000 C 
HETATM   18  C37 UNL     1      -5.504  -1.664  31.158  1.00  0.00     0.007 C 
ENDBRANCH   6  12
ENDBRANCH   3   6
ENDBRANCH   1   2
BRANCH   1  19
HETATM   19  C7  UNL     1       0.037  -3.597  30.009  1.00  0.00     0.043 C 
BRANCH  19  20
HETATM   20  C8  UNL     1       0.364  -4.945  30.644  1.00  0.00     0.105 C 
BRANCH  20  21
HETATM   21  C9  UNL     1       1.651  -5.395  30.064  1.00  0.00     0.219 C 
HETATM   22  O2  UNL     1       1.993  -4.929  28.924  1.00  0.00    -0.273 OA
HETATM   23  N3  UNL     1       2.530  -6.307  30.674  1.00  0.00    -0.352 N 
BRANCH  23  24
HETATM   24  C10 UNL     1       3.735  -6.684  29.912  1.00  0.00     0.121 C 
HETATM   25  C11 UNL     1       4.985  -6.158  30.562  1.00  0.00     0.026 C 
ENDBRANCH  23  24
BRANCH  23  26
HETATM   26  C12 UNL     1       2.294  -6.811  31.976  1.00  0.00     0.125 C 
BRANCH  26  27
HETATM   27  C13 UNL     1       2.550  -5.947  33.142  1.00  0.00     0.015 C 
HETATM   28  C14 UNL     1       1.515  -5.885  34.214  1.00  0.00     0.006 C 
ENDBRANCH  26  27
ENDBRANCH  23  26
ENDBRANCH  20  21
ENDBRANCH  19  20
ENDBRANCH   1  19
BRANCH   1  29
HETATM   29  C15 UNL     1      -1.653  -2.315  28.792  1.00  0.00     0.137 C 
BRANCH  29  30
HETATM   30  O3  UNL     1      -2.877  -1.877  28.744  1.00  0.00    -0.348 OA
ATOM     31  H3  UNL     1      -3.524  -2.474  29.100  1.00  0.00     0.219 HD
ENDBRANCH  29  30
BRANCH  29  32
HETATM   32  N4  UNL     1      -0.781  -1.683  27.901  1.00  0.00    -0.361 N 
HETATM   33  C16 UNL     1      -0.376  -0.302  27.915  1.00  0.00     0.128 C 
HETATM   34  C17 UNL     1       0.948  -0.292  27.141  1.00  0.00     0.070 C 
HETATM   35  C18 UNL     1       0.673  -1.265  26.041  1.00  0.00     0.221 C 
HETATM   36  C19 UNL     1      -0.097  -2.353  26.777  1.00  0.00     0.173 C 
HETATM   37  C20 UNL     1      -0.214  -0.631  25.047  1.00  0.00     0.077 A 
HETATM   38  N7  UNL     1       1.875  -1.829  25.447  1.00  0.00     0.111 N 
HETATM   39  N5  UNL     1      -1.582  -0.615  24.917  1.00  0.00    -0.308 N 
HETATM   40  C22 UNL     1       0.334   0.117  24.033  1.00  0.00     0.041 A 
HETATM   41  C21 UNL     1      -1.827   0.136  23.839  1.00  0.00     0.325 A 
ATOM     42  H5  UNL     1      -2.265  -1.077  25.516  1.00  0.00     0.170 HD
HETATM   43  O4  UNL     1      -2.989   0.401  23.374  1.00  0.00    -0.247 OA
HETATM   44  N6  UNL     1      -0.671   0.587  23.293  1.00  0.00    -0.310 N 
ATOM     45  H6  UNL     1      -0.585   1.178  22.466  1.00  0.00     0.170 HD
HETATM   46  C23 UNL     1       1.819   0.183  24.020  1.00  0.00     0.094 C 
HETATM   47  C24 UNL     1       2.232  -1.297  24.183  1.00  0.00     0.226 C 
HETATM   48  C25 UNL     1       1.560  -2.044  23.045  1.00  0.00     0.043 C 
BRANCH  38  49
HETATM   49  C26 UNL     1       2.948  -1.895  26.401  1.00  0.00     0.279 C 
BRANCH  49  50
HETATM   50  C27 UNL     1       4.065  -2.754  25.888  1.00  0.00     0.014 C 
HETATM   51  C28 UNL     1       5.419  -2.039  25.874  1.00  0.00     0.006 C 
HETATM   52  C29 UNL     1       6.035  -3.356  26.314  1.00  0.00     0.001 C 
HETATM   53  C30 UNL     1       4.680  -3.658  26.972  1.00  0.00     0.006 C 
ENDBRANCH  49  50
ENDBRANCH  38  49
ENDBRANCH  29  32
ENDBRANCH   1  29
TORSDOF 17
ENDMDL
