MODEL 1
REMARK VINA RESULT: -6.569585182      0.000      0.000
REMARK  2 active torsions:
REMARK  status: ('A' for Active; 'I' for Inactive)
REMARK    1  A    between atoms: C2_2  and  C3_3 
REMARK    2  A    between atoms: N3_7  and  N4_8 
ROOT
HETATM    1  C1  UNL     1      27.740  46.360  -0.255  1.00  0.00     0.056 C 
HETATM    2  C2  UNL     1      27.739  47.457  -1.272  1.00  0.00     0.204 C 
HETATM    3  N2  UNL     1      28.593  48.521  -0.783  1.00  0.00    -0.095 NA
HETATM    4  N3  UNL     1      29.882  47.971  -0.844  1.00  0.00    -0.048 NA
HETATM    5  N5  UNL     1      29.892  47.161  -2.008  1.00  0.00    -0.254 N 
ATOM      6  H5  UNL     1      30.716  46.756  -2.453  1.00  0.00     0.187 HD
HETATM    7  C4  UNL     1      28.538  47.013  -2.448  1.00  0.00     0.269 C 
HETATM    8  O2  UNL     1      28.192  46.605  -3.559  1.00  0.00    -0.269 OA
ENDROOT
BRANCH   2   9
HETATM    9  C3  UNL     1      26.394  47.926  -1.635  1.00  0.00     0.266 C 
HETATM   10  N1  UNL     1      26.004  49.267  -1.739  1.00  0.00    -0.060 NA
HETATM   11  O1  UNL     1      25.529  47.037  -1.872  1.00  0.00    -0.274 OA
ENDBRANCH   2   9
BRANCH   4  12
HETATM   12  N4  UNL     1      30.828  48.988  -1.067  1.00  0.00    -0.330 NA
ATOM     13  H42 UNL     1      30.382  49.858  -0.777  1.00  0.00     0.174 HD
ATOM     14  H41 UNL     1      31.623  48.868  -0.439  1.00  0.00     0.174 HD
ENDBRANCH   4  12
TORSDOF 2
ENDMDL
MODEL 2
REMARK VINA RESULT: -6.476483580      2.269      3.213
REMARK  2 active torsions:
REMARK  status: ('A' for Active; 'I' for Inactive)
REMARK    1  A    between atoms: C2_2  and  C3_3 
REMARK    2  A    between atoms: N3_7  and  N4_8 
ROOT
HETATM    1  C1  UNL     1      26.390  46.463  -1.460  1.00  0.00     0.056 C 
HETATM    2  C2  UNL     1      27.693  47.077  -1.055  1.00  0.00     0.204 C 
HETATM    3  N2  UNL     1      28.515  47.206  -2.241  1.00  0.00    -0.095 NA
HETATM    4  N3  UNL     1      27.866  48.196  -2.992  1.00  0.00    -0.048 NA
HETATM    5  N5  UNL     1      27.362  49.121  -2.043  1.00  0.00    -0.254 N 
ATOM      6  H5  UNL     1      26.993  50.050  -2.245  1.00  0.00     0.187 HD
HETATM    7  C4  UNL     1      27.464  48.517  -0.750  1.00  0.00     0.269 C 
HETATM    8  O2  UNL     1      27.371  49.116   0.325  1.00  0.00    -0.269 OA
ENDROOT
BRANCH   2   9
HETATM    9  C3  UNL     1      28.371  46.360   0.035  1.00  0.00     0.266 C 
HETATM   10  N1  UNL     1      29.575  46.749   0.636  1.00  0.00    -0.060 NA
HETATM   11  O1  UNL     1      27.813  45.308   0.455  1.00  0.00    -0.274 OA
ENDBRANCH   2   9
BRANCH   4  12
HETATM   12  N4  UNL     1      28.804  48.903  -3.767  1.00  0.00    -0.330 NA
ATOM     13  H42 UNL     1      28.440  49.851  -3.857  1.00  0.00     0.174 HD
ATOM     14  H41 UNL     1      29.681  48.995  -3.254  1.00  0.00     0.174 HD
ENDBRANCH   4  12
TORSDOF 2
ENDMDL
MODEL 3
REMARK VINA RESULT: -6.469771285      2.207      2.628
REMARK  2 active torsions:
REMARK  status: ('A' for Active; 'I' for Inactive)
REMARK    1  A    between atoms: C2_2  and  C3_3 
REMARK    2  A    between atoms: N3_7  and  N4_8 
ROOT
HETATM    1  C1  UNL     1      27.479  46.875  -3.420  1.00  0.00     0.056 C 
HETATM    2  C2  UNL     1      27.415  47.632  -2.131  1.00  0.00     0.204 C 
HETATM    3  N2  UNL     1      26.863  46.752  -1.122  1.00  0.00    -0.095 NA
HETATM    4  N3  UNL     1      27.866  45.792  -0.928  1.00  0.00    -0.048 NA
HETATM    5  N5  UNL     1      29.091  46.496  -1.053  1.00  0.00    -0.254 N 
ATOM      6  H5  UNL     1      30.015  46.146  -0.796  1.00  0.00     0.187 HD
HETATM    7  C4  UNL     1      28.799  47.784  -1.602  1.00  0.00     0.269 C 
HETATM    8  O2  UNL     1      29.569  48.749  -1.601  1.00  0.00    -0.269 OA
ENDROOT
BRANCH   2   9
HETATM    9  C3  UNL     1      26.695  48.910  -2.230  1.00  0.00     0.266 C 
HETATM   10  N1  UNL     1      26.022  49.545  -1.179  1.00  0.00    -0.060 NA
HETATM   11  O1  UNL     1      26.690  49.471  -3.362  1.00  0.00    -0.274 OA
ENDBRANCH   2   9
BRANCH   4  12
HETATM   12  N4  UNL     1      27.823  45.311   0.393  1.00  0.00    -0.330 NA
ATOM     13  H42 UNL     1      27.308  46.007   0.931  1.00  0.00     0.174 HD
ATOM     14  H41 UNL     1      27.260  44.462   0.437  1.00  0.00     0.174 HD
ENDBRANCH   4  12
TORSDOF 2
ENDMDL
MODEL 4
REMARK VINA RESULT: -6.454560608      2.502      3.208
REMARK  2 active torsions:
REMARK  status: ('A' for Active; 'I' for Inactive)
REMARK    1  A    between atoms: C2_2  and  C3_3 
REMARK    2  A    between atoms: N3_7  and  N4_8 
ROOT
HETATM    1  C1  UNL     1      26.907  48.485  -1.775  1.00  0.00     0.056 C 
HETATM    2  C2  UNL     1      27.936  47.438  -1.483  1.00  0.00     0.204 C 
HETATM    3  N2  UNL     1      27.682  46.307  -2.352  1.00  0.00    -0.095 NA
HETATM    4  N3  UNL     1      28.004  46.786  -3.630  1.00  0.00    -0.048 NA
HETATM    5  N5  UNL     1      29.114  47.649  -3.440  1.00  0.00    -0.254 N 
ATOM      6  H5  UNL     1      29.714  48.028  -4.173  1.00  0.00     0.187 HD
HETATM    7  C4  UNL     1      29.242  47.892  -2.036  1.00  0.00     0.269 C 
HETATM    8  O2  UNL     1      30.237  48.371  -1.485  1.00  0.00    -0.269 OA
ENDROOT
BRANCH   2   9
HETATM    9  C3  UNL     1      28.012  47.062  -0.064  1.00  0.00     0.266 C 
HETATM   10  N1  UNL     1      28.154  45.757   0.422  1.00  0.00    -0.060 NA
HETATM   11  O1  UNL     1      27.944  48.003   0.776  1.00  0.00    -0.274 OA
ENDBRANCH   2   9
BRANCH   4  12
HETATM   12  N4  UNL     1      28.463  45.730  -4.438  1.00  0.00    -0.330 NA
ATOM     13  H42 UNL     1      27.635  45.198  -4.705  1.00  0.00     0.174 HD
ATOM     14  H41 UNL     1      28.843  46.098  -5.310  1.00  0.00     0.174 HD
ENDBRANCH   4  12
TORSDOF 2
ENDMDL
MODEL 5
REMARK VINA RESULT: -6.358424181      2.250      3.102
REMARK  2 active torsions:
REMARK  status: ('A' for Active; 'I' for Inactive)
REMARK    1  A    between atoms: C2_2  and  C3_3 
REMARK    2  A    between atoms: N3_7  and  N4_8 
ROOT
HETATM    1  C1  UNL     1      27.508  46.115  -2.560  1.00  0.00     0.056 C 
HETATM    2  C2  UNL     1      28.213  47.189  -1.792  1.00  0.00     0.204 C 
HETATM    3  N2  UNL     1      29.362  47.612  -2.566  1.00  0.00    -0.095 NA
HETATM    4  N3  UNL     1      28.801  48.265  -3.672  1.00  0.00    -0.048 NA
HETATM    5  N5  UNL     1      27.654  48.935  -3.173  1.00  0.00    -0.254 N 
ATOM      6  H5  UNL     1      27.112  49.647  -3.662  1.00  0.00     0.187 HD
HETATM    7  C4  UNL     1      27.395  48.433  -1.858  1.00  0.00     0.269 C 
HETATM    8  O2  UNL     1      26.651  48.962  -1.029  1.00  0.00    -0.269 OA
ENDROOT
BRANCH   2   9
HETATM    9  C3  UNL     1      28.560  46.803  -0.417  1.00  0.00     0.266 C 
HETATM   10  N1  UNL     1      27.999  45.734   0.291  1.00  0.00    -0.060 NA
HETATM   11  O1  UNL     1      29.439  47.502   0.163  1.00  0.00    -0.274 OA
ENDBRANCH   2   9
BRANCH   4  12
HETATM   12  N4  UNL     1      29.673  49.270  -4.130  1.00  0.00    -0.330 NA
ATOM     13  H42 UNL     1      30.493  48.788  -4.497  1.00  0.00     0.174 HD
ATOM     14  H41 UNL     1      29.260  49.752  -4.929  1.00  0.00     0.174 HD
ENDBRANCH   4  12
TORSDOF 2
ENDMDL
