MODEL 1
REMARK VINA RESULT: -5.638676717      0.000      0.000
REMARK  2 active torsions:
REMARK  status: ('A' for Active; 'I' for Inactive)
REMARK    1  A    between atoms: C2_6  and  C3_7 
REMARK    2  A    between atoms: N3_8  and  C4_10 
ROOT
HETATM    1  C3  UNL     1       7.282  10.276 122.829  1.00  0.00     0.106 C 
HETATM    2  N3  UNL     1       6.922  10.111 124.035  1.00  0.00    -0.352 N 
ATOM      3  H3  UNL     1       7.436   9.418 124.578  1.00  0.00     0.166 HD
ENDROOT
BRANCH   2   4
HETATM    4  C4  UNL     1       5.886  10.788 124.695  1.00  0.00     0.114 A 
HETATM    5  C5  UNL     1       5.741  12.147 124.514  1.00  0.00     0.123 A 
HETATM    6  C6  UNL     1       4.714  12.789 125.174  1.00  0.00     0.252 A 
HETATM    7  O2  UNL     1       4.539  14.028 125.041  1.00  0.00    -0.268 OA
HETATM    8  N4  UNL     1       3.862  12.131 125.981  1.00  0.00    -0.275 N 
HETATM    9  C7  UNL     1       4.038  10.805 126.132  1.00  0.00     0.328 A 
ATOM     10  H4  UNL     1       3.108  12.620 126.462  1.00  0.00     0.173 HD
HETATM   11  O3  UNL     1       3.249  10.184 126.883  1.00  0.00    -0.247 OA
HETATM   12  N5  UNL     1       5.039  10.158 125.493  1.00  0.00    -0.294 N 
ATOM     13  H5  UNL     1       5.144   9.153 125.631  1.00  0.00     0.172 HD
ENDBRANCH   2   4
BRANCH   1  14
HETATM   14  C2  UNL     1       8.408   9.459 122.310  1.00  0.00     0.239 C 
HETATM   15  N2  UNL     1       9.659   9.779 122.969  1.00  0.00    -0.106 NA
HETATM   16  N1  UNL     1      10.611   9.221 122.101  1.00  0.00    -0.253 N 
HETATM   17  C1  UNL     1      10.112   9.536 120.787  1.00  0.00     0.333 C 
ATOM     18  H1  UNL     1      11.460   8.711 122.345  1.00  0.00     0.187 HD
HETATM   19  O1  UNL     1      10.803   9.580 119.736  1.00  0.00    -0.246 OA
HETATM   20  N6  UNL     1       8.716   9.777 120.929  1.00  0.00    -0.318 N 
ATOM     21  H6  UNL     1       8.070  10.104 120.211  1.00  0.00     0.166 HD
ENDBRANCH   1  14
TORSDOF 2
ENDMDL
MODEL 2
REMARK VINA RESULT: -5.532326480      1.694      6.693
REMARK  2 active torsions:
REMARK  status: ('A' for Active; 'I' for Inactive)
REMARK    1  A    between atoms: C2_6  and  C3_7 
REMARK    2  A    between atoms: N3_8  and  C4_10 
ROOT
HETATM    1  C3  UNL     1       5.955  11.350 123.610  1.00  0.00     0.106 C 
HETATM    2  N3  UNL     1       6.610  10.264 123.661  1.00  0.00    -0.352 N 
ATOM      3  H3  UNL     1       6.113   9.443 124.006  1.00  0.00     0.166 HD
ENDROOT
BRANCH   2   4
HETATM    4  C4  UNL     1       7.950  10.081 123.291  1.00  0.00     0.114 A 
HETATM    5  C5  UNL     1       8.244   9.504 122.073  1.00  0.00     0.123 A 
HETATM    6  C6  UNL     1       9.570   9.336 121.732  1.00  0.00     0.252 A 
HETATM    7  O2  UNL     1       9.890   8.815 120.632  1.00  0.00    -0.268 OA
HETATM    8  N4  UNL     1      10.571   9.714 122.548  1.00  0.00    -0.275 N 
HETATM    9  C7  UNL     1      10.242  10.272 123.728  1.00  0.00     0.328 A 
ATOM     10  H4  UNL     1      11.546   9.582 122.282  1.00  0.00     0.173 HD
HETATM   11  O3  UNL     1      11.169  10.627 124.495  1.00  0.00    -0.247 OA
HETATM   12  N5  UNL     1       8.948  10.446 124.080  1.00  0.00    -0.294 N 
ATOM     13  H5  UNL     1       8.735  10.871 124.982  1.00  0.00     0.172 HD
ENDBRANCH   2   4
BRANCH   1  14
HETATM   14  C2  UNL     1       4.537  11.342 124.049  1.00  0.00     0.239 C 
HETATM   15  N2  UNL     1       4.159  12.589 124.684  1.00  0.00    -0.106 NA
HETATM   16  N1  UNL     1       2.972  12.244 125.348  1.00  0.00    -0.253 N 
HETATM   17  C1  UNL     1       3.242  10.936 125.889  1.00  0.00     0.333 C 
ATOM     18  H1  UNL     1       2.115  12.792 125.430  1.00  0.00     0.187 HD
HETATM   19  O1  UNL     1       2.637  10.408 126.858  1.00  0.00    -0.246 OA
HETATM   20  N6  UNL     1       4.305  10.389 125.117  1.00  0.00    -0.318 N 
ATOM     21  H6  UNL     1       4.799   9.512 125.280  1.00  0.00     0.166 HD
ENDBRANCH   1  14
TORSDOF 2
ENDMDL
MODEL 3
REMARK VINA RESULT: -5.511829781      1.342      1.511
REMARK  2 active torsions:
REMARK  status: ('A' for Active; 'I' for Inactive)
REMARK    1  A    between atoms: C2_6  and  C3_7 
REMARK    2  A    between atoms: N3_8  and  C4_10 
ROOT
HETATM    1  C3  UNL     1       8.028   9.491 122.077  1.00  0.00     0.106 C 
HETATM    2  N3  UNL     1       8.097   9.823 123.301  1.00  0.00    -0.352 N 
ATOM      3  H3  UNL     1       9.024   9.821 123.725  1.00  0.00     0.166 HD
ENDROOT
BRANCH   2   4
HETATM    4  C4  UNL     1       7.026  10.192 124.126  1.00  0.00     0.114 A 
HETATM    5  C5  UNL     1       6.269  11.298 123.802  1.00  0.00     0.123 A 
HETATM    6  C6  UNL     1       5.220  11.640 124.629  1.00  0.00     0.252 A 
HETATM    7  O2  UNL     1       4.500  12.640 124.376  1.00  0.00    -0.268 OA
HETATM    8  N4  UNL     1       4.921  10.930 125.733  1.00  0.00    -0.275 N 
HETATM    9  C7  UNL     1       5.684   9.857 126.015  1.00  0.00     0.328 A 
ATOM     10  H4  UNL     1       4.143  11.196 126.335  1.00  0.00     0.173 HD
HETATM   11  O3  UNL     1       5.412   9.190 127.042  1.00  0.00    -0.247 OA
HETATM   12  N5  UNL     1       6.716   9.507 125.215  1.00  0.00    -0.294 N 
ATOM     13  H5  UNL     1       7.274   8.689 125.460  1.00  0.00     0.172 HD
ENDBRANCH   2   4
BRANCH   1  14
HETATM   14  C2  UNL     1       9.282   9.132 121.370  1.00  0.00     0.239 C 
HETATM   15  N2  UNL     1      10.425   9.124 122.262  1.00  0.00    -0.106 NA
HETATM   16  N1  UNL     1      11.507   9.158 121.369  1.00  0.00    -0.253 N 
HETATM   17  C1  UNL     1      11.092  10.089 120.351  1.00  0.00     0.333 C 
ATOM     18  H1  UNL     1      12.386   8.642 121.428  1.00  0.00     0.187 HD
HETATM   19  O1  UNL     1      11.862  10.716 119.578  1.00  0.00    -0.246 OA
HETATM   20  N6  UNL     1       9.671  10.144 120.407  1.00  0.00    -0.318 N 
ATOM     21  H6  UNL     1       9.056  10.764 119.881  1.00  0.00     0.166 HD
ENDBRANCH   1  14
TORSDOF 2
ENDMDL
MODEL 4
REMARK VINA RESULT: -5.493367230      1.634      6.669
REMARK  2 active torsions:
REMARK  status: ('A' for Active; 'I' for Inactive)
REMARK    1  A    between atoms: C2_6  and  C3_7 
REMARK    2  A    between atoms: N3_8  and  C4_10 
ROOT
HETATM    1  C3  UNL     1       5.920  11.426 123.631  1.00  0.00     0.106 C 
HETATM    2  N3  UNL     1       6.541  10.355 123.349  1.00  0.00    -0.352 N 
ATOM      3  H3  UNL     1       6.027   9.482 123.462  1.00  0.00     0.166 HD
ENDROOT
BRANCH   2   4
HETATM    4  C4  UNL     1       7.864  10.254 122.896  1.00  0.00     0.114 A 
HETATM    5  C5  UNL     1       8.840  11.038 123.474  1.00  0.00     0.123 A 
HETATM    6  C6  UNL     1      10.134  10.920 123.012  1.00  0.00     0.252 A 
HETATM    7  O2  UNL     1      11.061  11.613 123.507  1.00  0.00    -0.268 OA
HETATM    8  N4  UNL     1      10.464  10.070 122.022  1.00  0.00    -0.275 N 
HETATM    9  C7  UNL     1       9.482   9.322 121.484  1.00  0.00     0.328 A 
ATOM     10  H4  UNL     1      11.425   9.995 121.691  1.00  0.00     0.173 HD
HETATM   11  O3  UNL     1       9.781   8.528 120.561  1.00  0.00    -0.247 OA
HETATM   12  N5  UNL     1       8.208   9.425 121.924  1.00  0.00    -0.294 N 
ATOM     13  H5  UNL     1       7.489   8.844 121.493  1.00  0.00     0.172 HD
ENDBRANCH   2   4
BRANCH   1  14
HETATM   14  C2  UNL     1       4.514  11.326 124.097  1.00  0.00     0.239 C 
HETATM   15  N2  UNL     1       4.050  12.566 124.687  1.00  0.00    -0.106 NA
HETATM   16  N1  UNL     1       2.904  12.158 125.388  1.00  0.00    -0.253 N 
HETATM   17  C1  UNL     1       3.284  10.899 125.977  1.00  0.00     0.333 C 
ATOM     18  H1  UNL     1       2.008  12.641 125.464  1.00  0.00     0.187 HD
HETATM   19  O1  UNL     1       2.739  10.367 126.979  1.00  0.00    -0.246 OA
HETATM   20  N6  UNL     1       4.375  10.404 125.208  1.00  0.00    -0.318 N 
ATOM     21  H6  UNL     1       4.939   9.576 125.397  1.00  0.00     0.166 HD
ENDBRANCH   1  14
TORSDOF 2
ENDMDL
MODEL 5
REMARK VINA RESULT: -5.313097765      1.263      1.507
REMARK  2 active torsions:
REMARK  status: ('A' for Active; 'I' for Inactive)
REMARK    1  A    between atoms: C2_6  and  C3_7 
REMARK    2  A    between atoms: N3_8  and  C4_10 
ROOT
HETATM    1  C3  UNL     1       8.290  10.902 123.477  1.00  0.00     0.106 C 
HETATM    2  N3  UNL     1       7.060  10.655 123.283  1.00  0.00    -0.352 N 
ATOM      3  H3  UNL     1       6.804  10.290 122.366  1.00  0.00     0.166 HD
ENDROOT
BRANCH   2   4
HETATM    4  C4  UNL     1       6.019  10.834 124.205  1.00  0.00     0.114 A 
HETATM    5  C5  UNL     1       5.059  11.795 123.965  1.00  0.00     0.123 A 
HETATM    6  C6  UNL     1       4.045  11.952 124.887  1.00  0.00     0.252 A 
HETATM    7  O2  UNL     1       3.145  12.814 124.713  1.00  0.00    -0.268 OA
HETATM    8  N4  UNL     1       3.971  11.200 126.001  1.00  0.00    -0.275 N 
HETATM    9  C7  UNL     1       4.927  10.274 126.198  1.00  0.00     0.328 A 
ATOM     10  H4  UNL     1       3.215  11.329 126.673  1.00  0.00     0.173 HD
HETATM   11  O3  UNL     1       4.866   9.569 127.234  1.00  0.00    -0.247 OA
HETATM   12  N5  UNL     1       5.929  10.106 125.306  1.00  0.00    -0.294 N 
ATOM     13  H5  UNL     1       6.638   9.395 125.488  1.00  0.00     0.172 HD
ENDBRANCH   2   4
BRANCH   1  14
HETATM   14  C2  UNL     1       9.246  10.644 122.371  1.00  0.00     0.239 C 
HETATM   15  N2  UNL     1       8.652   9.847 121.316  1.00  0.00    -0.106 NA
HETATM   16  N1  UNL     1       9.776   9.401 120.603  1.00  0.00    -0.253 N 
HETATM   17  C1  UNL     1      10.733   9.073 121.629  1.00  0.00     0.333 C 
ATOM     18  H1  UNL     1       9.889   9.326 119.592  1.00  0.00     0.187 HD
HETATM   19  O1  UNL     1      11.711   8.293 121.492  1.00  0.00    -0.246 OA
HETATM   20  N6  UNL     1      10.347   9.798 122.791  1.00  0.00    -0.318 N 
ATOM     21  H6  UNL     1      10.757   9.736 123.723  1.00  0.00     0.166 HD
ENDBRANCH   1  14
TORSDOF 2
ENDMDL
