MODEL 1
REMARK VINA RESULT: -4.768572145      0.000      0.000
REMARK  2 active torsions:
REMARK  status: ('A' for Active; 'I' for Inactive)
REMARK    1  A    between atoms: C2_3  and  C3_4 
REMARK    2  A    between atoms: C2_3  and  N3_7 
ROOT
HETATM    1  N3  UNL     1       5.418  11.356   6.372  1.00  0.00    -0.200 N 
HETATM    2  N4  UNL     1       6.630  10.836   6.716  1.00  0.00    -0.295 N 
ATOM      3  H4  UNL     1       7.132  11.294   7.476  1.00  0.00     0.187 HD
HETATM    4  C4  UNL     1       7.215   9.793   6.156  1.00  0.00     0.182 A 
HETATM    5  C5  UNL     1       6.541   9.168   5.128  1.00  0.00     0.266 A 
HETATM    6  O2  UNL     1       7.086   8.175   4.588  1.00  0.00    -0.267 OA
HETATM    7  N5  UNL     1       5.357   9.655   4.771  1.00  0.00    -0.273 N 
ATOM      8  H5  UNL     1       4.849   9.200   4.012  1.00  0.00     0.173 HD
HETATM    9  C6  UNL     1       4.793  10.736   5.381  1.00  0.00     0.349 A 
HETATM   10  O3  UNL     1       3.694  11.065   4.939  1.00  0.00    -0.245 OA
ENDROOT
BRANCH   1  11
HETATM   11  C2  UNL     1       4.950  12.481   7.085  1.00  0.00     0.139 C 
HETATM   12  C1  UNL     1       5.057  13.728   6.851  1.00  0.00     0.137 C 
HETATM   13  N1  UNL     1       5.626  14.551   5.883  1.00  0.00    -0.113 NA
BRANCH  11  14
HETATM   14  C3  UNL     1       4.192  12.160   8.339  1.00  0.00     0.284 C 
HETATM   15  N2  UNL     1       3.072  12.936   8.735  1.00  0.00    -0.056 NA
HETATM   16  O1  UNL     1       4.511  11.210   9.072  1.00  0.00    -0.269 OA
ENDBRANCH  11  14
ENDBRANCH   1  11
TORSDOF 2
ENDMDL
MODEL 2
REMARK VINA RESULT: -4.765492059      1.959      4.806
REMARK  2 active torsions:
REMARK  status: ('A' for Active; 'I' for Inactive)
REMARK    1  A    between atoms: C2_3  and  C3_4 
REMARK    2  A    between atoms: C2_3  and  N3_7 
ROOT
HETATM    1  N3  UNL     1       5.070  12.393   7.290  1.00  0.00    -0.200 N 
HETATM    2  N4  UNL     1       5.591  13.619   6.999  1.00  0.00    -0.295 N 
ATOM      3  H4  UNL     1       6.258  13.668   6.229  1.00  0.00     0.187 HD
HETATM    4  C4  UNL     1       5.312  14.749   7.621  1.00  0.00     0.182 A 
HETATM    5  C5  UNL     1       4.411  14.690   8.663  1.00  0.00     0.266 A 
HETATM    6  O2  UNL     1       4.136  15.758   9.262  1.00  0.00    -0.267 OA
HETATM    7  N5  UNL     1       3.887  13.507   8.969  1.00  0.00    -0.273 N 
ATOM      8  H5  UNL     1       3.219  13.452   9.738  1.00  0.00     0.173 HD
HETATM    9  C6  UNL     1       4.207  12.366   8.296  1.00  0.00     0.349 A 
HETATM   10  O3  UNL     1       3.639  11.352   8.697  1.00  0.00    -0.245 OA
ENDROOT
BRANCH   1  11
HETATM   11  C2  UNL     1       5.488  11.290   6.513  1.00  0.00     0.139 C 
HETATM   12  C1  UNL     1       4.915  10.668   5.562  1.00  0.00     0.137 C 
HETATM   13  N1  UNL     1       3.713  10.733   4.863  1.00  0.00    -0.113 NA
BRANCH  11  14
HETATM   14  C3  UNL     1       6.843  10.752   6.864  1.00  0.00     0.284 C 
HETATM   15  N2  UNL     1       8.023  11.464   6.524  1.00  0.00    -0.056 NA
HETATM   16  O1  UNL     1       6.985   9.673   7.461  1.00  0.00    -0.269 OA
ENDBRANCH  11  14
ENDBRANCH   1  11
TORSDOF 2
ENDMDL
MODEL 3
REMARK VINA RESULT: -4.573916488      1.299      2.173
REMARK  2 active torsions:
REMARK  status: ('A' for Active; 'I' for Inactive)
REMARK    1  A    between atoms: C2_3  and  C3_4 
REMARK    2  A    between atoms: C2_3  and  N3_7 
ROOT
HETATM    1  N3  UNL     1       5.629  11.171   6.312  1.00  0.00    -0.200 N 
HETATM    2  N4  UNL     1       6.866  10.636   6.519  1.00  0.00    -0.295 N 
ATOM      3  H4  UNL     1       7.438  11.061   7.249  1.00  0.00     0.187 HD
HETATM    4  C4  UNL     1       7.392   9.620   5.861  1.00  0.00     0.182 A 
HETATM    5  C5  UNL     1       6.624   9.042   4.873  1.00  0.00     0.266 A 
HETATM    6  O2  UNL     1       7.113   8.074   4.241  1.00  0.00    -0.267 OA
HETATM    7  N5  UNL     1       5.414   9.543   4.650  1.00  0.00    -0.273 N 
ATOM      8  H5  UNL     1       4.836   9.123   3.921  1.00  0.00     0.173 HD
HETATM    9  C6  UNL     1       4.913  10.596   5.356  1.00  0.00     0.349 A 
HETATM   10  O3  UNL     1       3.780  10.944   5.033  1.00  0.00    -0.245 OA
ENDROOT
BRANCH   1  11
HETATM   11  C2  UNL     1       5.233  12.263   7.115  1.00  0.00     0.139 C 
HETATM   12  C1  UNL     1       4.418  12.337   8.090  1.00  0.00     0.137 C 
HETATM   13  N1  UNL     1       3.581  11.482   8.802  1.00  0.00    -0.113 NA
BRANCH  11  14
HETATM   14  C3  UNL     1       5.881  13.569   6.763  1.00  0.00     0.284 C 
HETATM   15  N2  UNL     1       5.464  14.780   7.375  1.00  0.00    -0.056 NA
HETATM   16  O1  UNL     1       6.801  13.642   5.933  1.00  0.00    -0.269 OA
ENDBRANCH  11  14
ENDBRANCH   1  11
TORSDOF 2
ENDMDL
MODEL 4
REMARK VINA RESULT: -4.569764234      2.995      4.477
REMARK  2 active torsions:
REMARK  status: ('A' for Active; 'I' for Inactive)
REMARK    1  A    between atoms: C2_3  and  C3_4 
REMARK    2  A    between atoms: C2_3  and  N3_7 
ROOT
HETATM    1  N3  UNL     1       3.382  13.793   8.287  1.00  0.00    -0.200 N 
HETATM    2  N4  UNL     1       4.188  13.716   7.191  1.00  0.00    -0.295 N 
ATOM      3  H4  UNL     1       4.171  14.506   6.547  1.00  0.00     0.187 HD
HETATM    4  C4  UNL     1       4.990  12.713   6.887  1.00  0.00     0.182 A 
HETATM    5  C5  UNL     1       5.019  11.642   7.754  1.00  0.00     0.266 A 
HETATM    6  O2  UNL     1       5.779  10.682   7.476  1.00  0.00    -0.267 OA
HETATM    7  N5  UNL     1       4.242  11.690   8.831  1.00  0.00    -0.273 N 
ATOM      8  H5  UNL     1       4.255  10.903   9.480  1.00  0.00     0.173 HD
HETATM    9  C6  UNL     1       3.429  12.750   9.104  1.00  0.00     0.349 A 
HETATM   10  O3  UNL     1       2.773  12.646  10.137  1.00  0.00    -0.245 OA
ENDROOT
BRANCH   1  11
HETATM   11  C2  UNL     1       2.587  14.949   8.450  1.00  0.00     0.139 C 
HETATM   12  C1  UNL     1       1.338  15.140   8.289  1.00  0.00     0.137 C 
HETATM   13  N1  UNL     1       0.222  14.399   7.912  1.00  0.00    -0.113 NA
BRANCH  11  14
HETATM   14  C3  UNL     1       3.338  16.171   8.888  1.00  0.00     0.284 C 
HETATM   15  N2  UNL     1       4.731  16.117   9.153  1.00  0.00    -0.056 NA
HETATM   16  O1  UNL     1       2.776  17.268   9.034  1.00  0.00    -0.269 OA
ENDBRANCH  11  14
ENDBRANCH   1  11
TORSDOF 2
ENDMDL
MODEL 5
REMARK VINA RESULT: -4.562199303      3.132      4.636
REMARK  2 active torsions:
REMARK  status: ('A' for Active; 'I' for Inactive)
REMARK    1  A    between atoms: C2_3  and  C3_4 
REMARK    2  A    between atoms: C2_3  and  N3_7 
ROOT
HETATM    1  N3  UNL     1       3.012  13.864   8.431  1.00  0.00    -0.200 N 
HETATM    2  N4  UNL     1       3.778  13.816   7.304  1.00  0.00    -0.295 N 
ATOM      3  H4  UNL     1       3.674  14.583   6.641  1.00  0.00     0.187 HD
HETATM    4  C4  UNL     1       4.641  12.867   6.993  1.00  0.00     0.182 A 
HETATM    5  C5  UNL     1       4.787  11.828   7.886  1.00  0.00     0.266 A 
HETATM    6  O2  UNL     1       5.605  10.920   7.603  1.00  0.00    -0.267 OA
HETATM    7  N5  UNL     1       4.052  11.849   8.994  1.00  0.00    -0.273 N 
ATOM      8  H5  UNL     1       4.151  11.085   9.662  1.00  0.00     0.173 HD
HETATM    9  C6  UNL     1       3.171  12.852   9.272  1.00  0.00     0.349 A 
HETATM   10  O3  UNL     1       2.566  12.730  10.335  1.00  0.00    -0.245 OA
ENDROOT
BRANCH   1  11
HETATM   11  C2  UNL     1       2.138  14.962   8.596  1.00  0.00     0.139 C 
HETATM   12  C1  UNL     1       2.236  16.013   9.308  1.00  0.00     0.137 C 
HETATM   13  N1  UNL     1       3.146  16.576  10.198  1.00  0.00    -0.113 NA
BRANCH  11  14
HETATM   14  C3  UNL     1       0.872  14.883   7.797  1.00  0.00     0.284 C 
HETATM   15  N2  UNL     1       0.901  14.588   6.409  1.00  0.00    -0.056 NA
HETATM   16  O1  UNL     1      -0.241  15.069   8.312  1.00  0.00    -0.269 OA
ENDBRANCH  11  14
ENDBRANCH   1  11
TORSDOF 2
ENDMDL
