MODEL 1
REMARK VINA RESULT: -4.941922103      0.000      0.000
REMARK  4 active torsions:
REMARK  status: ('A' for Active; 'I' for Inactive)
REMARK    1  A    between atoms: N1_1  and  N2_4 
REMARK    2  A    between atoms: N2_4  and  C1_6 
REMARK    3  A    between atoms: C4_15  and  C5_16 
REMARK    4  A    between atoms: C5_16  and  N5_17 
ROOT
HETATM    1  C1  UNL     1      -0.169  15.090  15.812  1.00  0.00     0.141 A 
HETATM    2  N3  UNL     1      -1.494  15.223  15.945  1.00  0.00    -0.292 N 
ATOM      3  H3  UNL     1      -1.968  14.686  16.672  1.00  0.00     0.172 HD
HETATM    4  C2  UNL     1      -2.224  16.028  15.170  1.00  0.00     0.328 A 
HETATM    5  O1  UNL     1      -3.473  16.122  15.327  1.00  0.00    -0.247 OA
HETATM    6  N4  UNL     1      -1.581  16.715  14.242  1.00  0.00    -0.275 N 
ATOM      7  H4  UNL     1      -2.115  17.338  13.636  1.00  0.00     0.173 HD
HETATM    8  C3  UNL     1      -0.232  16.624  14.061  1.00  0.00     0.265 A 
HETATM    9  O2  UNL     1       0.289  17.320  13.148  1.00  0.00    -0.267 OA
HETATM   10  C4  UNL     1       0.548  15.817  14.826  1.00  0.00     0.099 A 
ENDROOT
BRANCH   1  11
HETATM   11  N2  UNL     1       0.540  14.173  16.644  1.00  0.00    -0.291 N 
ATOM     12  H2  UNL     1       0.820  13.253  16.305  1.00  0.00     0.188 HD
BRANCH  11  13
HETATM   13  N1  UNL     1       0.833  14.591  17.947  1.00  0.00    -0.344 N 
ATOM     14  H12 UNL     1       1.787  14.548  18.303  1.00  0.00     0.176 HD
ATOM     15  H11 UNL     1       0.055  14.934  18.510  1.00  0.00     0.176 HD
ENDBRANCH  11  13
ENDBRANCH   1  11
BRANCH  10  16
HETATM   16  C5  UNL     1       1.969  15.626  14.783  1.00  0.00     0.188 C 
BRANCH  16  17
HETATM   17  N5  UNL     1       2.671  14.795  14.191  1.00  0.00    -0.126 N 
HETATM   18  O3  UNL     1       3.273  13.753  14.965  1.00  0.00    -0.532 OA
HETATM   19  O4  UNL     1       2.983  14.722  12.891  1.00  0.00    -0.532 OA
ENDBRANCH  16  17
ENDBRANCH  10  16
TORSDOF 4
ENDMDL
MODEL 2
REMARK VINA RESULT: -4.538138984     11.529     13.209
REMARK  4 active torsions:
REMARK  status: ('A' for Active; 'I' for Inactive)
REMARK    1  A    between atoms: N1_1  and  N2_4 
REMARK    2  A    between atoms: N2_4  and  C1_6 
REMARK    3  A    between atoms: C4_15  and  C5_16 
REMARK    4  A    between atoms: C5_16  and  N5_17 
ROOT
HETATM    1  C1  UNL     1       6.796   9.900   5.983  1.00  0.00     0.141 A 
HETATM    2  N3  UNL     1       5.929  10.584   6.739  1.00  0.00    -0.292 N 
ATOM      3  H3  UNL     1       6.121  10.679   7.736  1.00  0.00     0.172 HD
HETATM    4  C2  UNL     1       4.824  11.147   6.246  1.00  0.00     0.328 A 
HETATM    5  O1  UNL     1       4.029  11.781   6.995  1.00  0.00    -0.247 OA
HETATM    6  N4  UNL     1       4.605  11.011   4.950  1.00  0.00    -0.275 N 
ATOM      7  H4  UNL     1       3.768  11.432   4.548  1.00  0.00     0.173 HD
HETATM    8  C3  UNL     1       5.455  10.329   4.128  1.00  0.00     0.265 A 
HETATM    9  O2  UNL     1       5.158  10.254   2.905  1.00  0.00    -0.267 OA
HETATM   10  C4  UNL     1       6.589   9.739   4.588  1.00  0.00     0.099 A 
ENDROOT
BRANCH   1  11
HETATM   11  N2  UNL     1       7.932   9.282   6.587  1.00  0.00    -0.291 N 
ATOM     12  H2  UNL     1       8.865   9.683   6.500  1.00  0.00     0.188 HD
BRANCH  11  13
HETATM   13  N1  UNL     1       7.708   8.102   7.305  1.00  0.00    -0.344 N 
ATOM     14  H12 UNL     1       7.041   7.409   6.967  1.00  0.00     0.176 HD
ATOM     15  H11 UNL     1       8.237   7.977   8.168  1.00  0.00     0.176 HD
ENDBRANCH  11  13
ENDBRANCH   1  11
BRANCH  10  16
HETATM   16  C5  UNL     1       7.590   9.014   3.862  1.00  0.00     0.188 C 
BRANCH  16  17
HETATM   17  N5  UNL     1       7.719   7.807   3.617  1.00  0.00    -0.126 N 
HETATM   18  O3  UNL     1       8.474   7.013   4.536  1.00  0.00    -0.532 OA
HETATM   19  O4  UNL     1       7.258   7.100   2.577  1.00  0.00    -0.532 OA
ENDBRANCH  16  17
ENDBRANCH  10  16
TORSDOF 4
ENDMDL
MODEL 3
REMARK VINA RESULT: -4.528523806      6.737      8.714
REMARK  4 active torsions:
REMARK  status: ('A' for Active; 'I' for Inactive)
REMARK    1  A    between atoms: N1_1  and  N2_4 
REMARK    2  A    between atoms: N2_4  and  C1_6 
REMARK    3  A    between atoms: C4_15  and  C5_16 
REMARK    4  A    between atoms: C5_16  and  N5_17 
ROOT
HETATM    1  C1  UNL     1       4.491  14.750   8.551  1.00  0.00     0.141 A 
HETATM    2  N3  UNL     1       4.102  15.066   9.792  1.00  0.00    -0.292 N 
ATOM      3  H3  UNL     1       4.199  16.033  10.103  1.00  0.00     0.172 HD
HETATM    4  C2  UNL     1       3.592  14.172  10.641  1.00  0.00     0.328 A 
HETATM    5  O1  UNL     1       3.240  14.510  11.805  1.00  0.00    -0.247 OA
HETATM    6  N4  UNL     1       3.473  12.929  10.208  1.00  0.00    -0.275 N 
ATOM      7  H4  UNL     1       3.086  12.225  10.837  1.00  0.00     0.173 HD
HETATM    8  C3  UNL     1       3.848  12.549   8.952  1.00  0.00     0.265 A 
HETATM    9  O2  UNL     1       3.696  11.339   8.633  1.00  0.00    -0.267 OA
HETATM   10  C4  UNL     1       4.374  13.425   8.057  1.00  0.00     0.099 A 
ENDROOT
BRANCH   1  11
HETATM   11  N2  UNL     1       5.073  15.750   7.714  1.00  0.00    -0.291 N 
ATOM     12  H2  UNL     1       4.566  16.142   6.921  1.00  0.00     0.188 HD
BRANCH  11  13
HETATM   13  N1  UNL     1       6.371  16.167   8.030  1.00  0.00    -0.344 N 
ATOM     14  H12 UNL     1       6.906  15.691   8.756  1.00  0.00     0.176 HD
ATOM     15  H11 UNL     1       6.744  16.958   7.506  1.00  0.00     0.176 HD
ENDBRANCH  11  13
ENDBRANCH   1  11
BRANCH  10  16
HETATM   16  C5  UNL     1       4.792  13.196   6.705  1.00  0.00     0.188 C 
BRANCH  16  17
HETATM   17  N5  UNL     1       5.864  12.797   6.230  1.00  0.00    -0.126 N 
HETATM   18  O3  UNL     1       7.004  13.654   6.333  1.00  0.00    -0.532 OA
HETATM   19  O4  UNL     1       6.133  11.650   5.594  1.00  0.00    -0.532 OA
ENDBRANCH  16  17
ENDBRANCH  10  16
TORSDOF 4
ENDMDL
MODEL 4
REMARK VINA RESULT: -4.524561434     12.005     14.121
REMARK  4 active torsions:
REMARK  status: ('A' for Active; 'I' for Inactive)
REMARK    1  A    between atoms: N1_1  and  N2_4 
REMARK    2  A    between atoms: N2_4  and  C1_6 
REMARK    3  A    between atoms: C4_15  and  C5_16 
REMARK    4  A    between atoms: C5_16  and  N5_17 
ROOT
HETATM    1  C1  UNL     1       7.625   8.686   5.381  1.00  0.00     0.141 A 
HETATM    2  N3  UNL     1       8.135   7.614   4.762  1.00  0.00    -0.292 N 
ATOM      3  H3  UNL     1       8.700   6.960   5.305  1.00  0.00     0.172 HD
HETATM    4  C2  UNL     1       7.939   7.362   3.467  1.00  0.00     0.328 A 
HETATM    5  O1  UNL     1       8.441   6.341   2.921  1.00  0.00    -0.247 OA
HETATM    6  N4  UNL     1       7.199   8.224   2.792  1.00  0.00    -0.275 N 
ATOM      7  H4  UNL     1       7.032   8.055   1.799  1.00  0.00     0.173 HD
HETATM    8  C3  UNL     1       6.648   9.331   3.368  1.00  0.00     0.265 A 
HETATM    9  O2  UNL     1       5.958  10.094   2.640  1.00  0.00    -0.267 OA
HETATM   10  C4  UNL     1       6.825   9.627   4.682  1.00  0.00     0.099 A 
ENDROOT
BRANCH   1  11
HETATM   11  N2  UNL     1       7.919   8.917   6.758  1.00  0.00    -0.291 N 
ATOM     12  H2  UNL     1       8.334   9.793   7.074  1.00  0.00     0.188 HD
BRANCH  11  13
HETATM   13  N1  UNL     1       7.612   7.889   7.656  1.00  0.00    -0.344 N 
ATOM     14  H12 UNL     1       8.297   7.164   7.867  1.00  0.00     0.176 HD
ATOM     15  H11 UNL     1       6.684   7.904   8.079  1.00  0.00     0.176 HD
ENDBRANCH  11  13
ENDBRANCH   1  11
BRANCH  10  16
HETATM   16  C5  UNL     1       6.302  10.725   5.441  1.00  0.00     0.188 C 
BRANCH  16  17
HETATM   17  N5  UNL     1       5.291  10.832   6.148  1.00  0.00    -0.126 N 
HETATM   18  O3  UNL     1       5.470  10.948   7.562  1.00  0.00    -0.532 OA
HETATM   19  O4  UNL     1       4.002  10.840   5.785  1.00  0.00    -0.532 OA
ENDBRANCH  16  17
ENDBRANCH  10  16
TORSDOF 4
ENDMDL
MODEL 5
REMARK VINA RESULT: -4.511081129      1.438      2.894
REMARK  4 active torsions:
REMARK  status: ('A' for Active; 'I' for Inactive)
REMARK    1  A    between atoms: N1_1  and  N2_4 
REMARK    2  A    between atoms: N2_4  and  C1_6 
REMARK    3  A    between atoms: C4_15  and  C5_16 
REMARK    4  A    between atoms: C5_16  and  N5_17 
ROOT
HETATM    1  C1  UNL     1      -0.072  16.602  14.285  1.00  0.00     0.141 A 
HETATM    2  N3  UNL     1      -1.405  16.720  14.335  1.00  0.00    -0.292 N 
ATOM      3  H3  UNL     1      -1.857  17.403  13.727  1.00  0.00     0.172 HD
HETATM    4  C2  UNL     1      -2.168  15.982  15.143  1.00  0.00     0.328 A 
HETATM    5  O1  UNL     1      -3.422  16.127  15.162  1.00  0.00    -0.247 OA
HETATM    6  N4  UNL     1      -1.554  15.102  15.913  1.00  0.00    -0.275 N 
ATOM      7  H4  UNL     1      -2.115  14.524  16.541  1.00  0.00     0.173 HD
HETATM    8  C3  UNL     1      -0.200  14.933  15.904  1.00  0.00     0.265 A 
HETATM    9  O2  UNL     1       0.291  14.067  16.677  1.00  0.00    -0.267 OA
HETATM   10  C4  UNL     1       0.615  15.663  15.099  1.00  0.00     0.099 A 
ENDROOT
BRANCH   1  11
HETATM   11  N2  UNL     1       0.685  17.459  13.431  1.00  0.00    -0.291 N 
ATOM     12  H2  UNL     1       1.205  18.255  13.802  1.00  0.00     0.188 HD
BRANCH  11  13
HETATM   13  N1  UNL     1       0.682  17.160  12.065  1.00  0.00    -0.344 N 
ATOM     14  H12 UNL     1       1.421  17.511  11.456  1.00  0.00     0.176 HD
ATOM     15  H11 UNL     1      -0.084  16.584  11.717  1.00  0.00     0.176 HD
ENDBRANCH  11  13
ENDBRANCH   1  11
BRANCH  10  16
HETATM   16  C5  UNL     1       2.039  15.595  14.951  1.00  0.00     0.188 C 
BRANCH  16  17
HETATM   17  N5  UNL     1       2.764  14.831  14.299  1.00  0.00    -0.126 N 
HETATM   18  O3  UNL     1       2.767  14.962  12.875  1.00  0.00    -0.532 OA
HETATM   19  O4  UNL     1       3.567  13.852  14.732  1.00  0.00    -0.532 OA
ENDBRANCH  16  17
ENDBRANCH  10  16
TORSDOF 4
ENDMDL
