MODEL 1
REMARK VINA RESULT: -4.482639223      0.000      0.000
REMARK  4 active torsions:
REMARK  status: ('A' for Active; 'I' for Inactive)
REMARK    1  A    between atoms: C3_6  and  N2_7 
REMARK    2  A    between atoms: N2_7  and  N3_8 
REMARK    3  A    between atoms: N2_7  and  N4_11 
REMARK    4  A    between atoms: N4_11  and  S1_13 
ROOT
HETATM    1  N1  UNL     1       8.138   9.340   6.441  1.00  0.00    -0.385 N 
ATOM      2  H11 UNL     1       8.537   8.719   5.737  1.00  0.00     0.157 HD
ATOM      3  H12 UNL     1       8.674   9.501   7.293  1.00  0.00     0.157 HD
HETATM    4  C1  UNL     1       6.992   9.885   6.225  1.00  0.00     0.103 A 
HETATM    5  C2  UNL     1       6.452  10.726   7.176  1.00  0.00     0.100 A 
HETATM    6  C3  UNL     1       5.230  11.352   7.027  1.00  0.00     0.149 A 
HETATM    7  N5  UNL     1       4.576  11.083   5.859  1.00  0.00    -0.336 N 
ATOM      8  H5  UNL     1       3.668  11.514   5.688  1.00  0.00     0.168 HD
HETATM    9  C4  UNL     1       5.100  10.265   4.929  1.00  0.00     0.183 A 
HETATM   10  N6  UNL     1       6.286   9.674   5.105  1.00  0.00    -0.339 N 
ATOM     11  H6  UNL     1       6.658   9.058   4.381  1.00  0.00     0.168 HD
ENDROOT
BRANCH   6  12
HETATM   12  N2  UNL     1       4.680  12.214   8.009  1.00  0.00    -0.176 N 
BRANCH  12  13
HETATM   13  N3  UNL     1       4.053  11.638   9.113  1.00  0.00    -0.322 N 
ATOM     14  H32 UNL     1       4.537  11.070   9.808  1.00  0.00     0.179 HD
ATOM     15  H31 UNL     1       3.052  11.792   9.233  1.00  0.00     0.179 HD
ENDBRANCH  12  13
BRANCH  12  16
HETATM   16  N4  UNL     1       4.796  13.579   7.816  1.00  0.00    -0.190 N 
ATOM     17  H4  UNL     1       5.665  14.096   7.940  1.00  0.00     0.203 HD
BRANCH  16  18
HETATM   18  S1  UNL     1       3.307  14.308   7.343  1.00  0.00     0.374 S 
HETATM   19  O1  UNL     1       2.136  13.826   8.456  1.00  0.00    -0.186 OA
HETATM   20  O2  UNL     1       2.942  13.724   5.798  1.00  0.00    -0.186 OA
ENDBRANCH  16  18
ENDBRANCH  12  16
ENDBRANCH   6  12
TORSDOF 4
ENDMDL
MODEL 2
REMARK VINA RESULT: -4.473271056      1.131      1.549
REMARK  4 active torsions:
REMARK  status: ('A' for Active; 'I' for Inactive)
REMARK    1  A    between atoms: C3_6  and  N2_7 
REMARK    2  A    between atoms: N2_7  and  N3_8 
REMARK    3  A    between atoms: N2_7  and  N4_11 
REMARK    4  A    between atoms: N4_11  and  S1_13 
ROOT
HETATM    1  N1  UNL     1       8.457   8.678   6.473  1.00  0.00    -0.385 N 
ATOM      2  H11 UNL     1       8.818   7.900   5.921  1.00  0.00     0.157 HD
ATOM      3  H12 UNL     1       8.985   8.963   7.297  1.00  0.00     0.157 HD
HETATM    4  C1  UNL     1       7.366   9.258   6.109  1.00  0.00     0.103 A 
HETATM    5  C2  UNL     1       6.877  10.310   6.856  1.00  0.00     0.100 A 
HETATM    6  C3  UNL     1       5.716  10.988   6.540  1.00  0.00     0.149 A 
HETATM    7  N5  UNL     1       5.069  10.545   5.422  1.00  0.00    -0.336 N 
ATOM      8  H5  UNL     1       4.205  11.003   5.134  1.00  0.00     0.168 HD
HETATM    9  C4  UNL     1       5.543   9.520   4.691  1.00  0.00     0.183 A 
HETATM   10  N6  UNL     1       6.671   8.885   5.026  1.00  0.00    -0.339 N 
ATOM     11  H6  UNL     1       7.006   8.110   4.452  1.00  0.00     0.168 HD
ENDROOT
BRANCH   6  12
HETATM   12  N2  UNL     1       5.219  12.068   7.311  1.00  0.00    -0.176 N 
BRANCH  12  13
HETATM   13  N3  UNL     1       5.586  13.362   6.945  1.00  0.00    -0.322 N 
ATOM     14  H32 UNL     1       5.856  13.629   5.998  1.00  0.00     0.179 HD
ATOM     15  H31 UNL     1       5.586  14.084   7.665  1.00  0.00     0.179 HD
ENDBRANCH  12  13
BRANCH  12  16
HETATM   16  N4  UNL     1       4.397  11.777   8.385  1.00  0.00    -0.190 N 
ATOM     17  H4  UNL     1       4.288  10.843   8.778  1.00  0.00     0.203 HD
BRANCH  16  18
HETATM   18  S1  UNL     1       3.577  13.170   8.987  1.00  0.00     0.374 S 
HETATM   19  O1  UNL     1       2.503  12.645  10.176  1.00  0.00    -0.186 OA
HETATM   20  O2  UNL     1       2.742  13.851   7.682  1.00  0.00    -0.186 OA
ENDBRANCH  16  18
ENDBRANCH  12  16
ENDBRANCH   6  12
TORSDOF 4
ENDMDL
MODEL 3
REMARK VINA RESULT: -4.467137390      3.845      5.212
REMARK  4 active torsions:
REMARK  status: ('A' for Active; 'I' for Inactive)
REMARK    1  A    between atoms: C3_6  and  N2_7 
REMARK    2  A    between atoms: N2_7  and  N3_8 
REMARK    3  A    between atoms: N2_7  and  N4_11 
REMARK    4  A    between atoms: N4_11  and  S1_13 
ROOT
HETATM    1  N1  UNL     1       3.333  12.706  10.200  1.00  0.00    -0.385 N 
ATOM      2  H11 UNL     1       3.059  13.515  10.759  1.00  0.00     0.157 HD
ATOM      3  H12 UNL     1       3.057  11.783  10.532  1.00  0.00     0.157 HD
HETATM    4  C1  UNL     1       4.006  12.885   9.118  1.00  0.00     0.103 A 
HETATM    5  C2  UNL     1       4.376  11.792   8.362  1.00  0.00     0.100 A 
HETATM    6  C3  UNL     1       5.098  11.892   7.189  1.00  0.00     0.149 A 
HETATM    7  N5  UNL     1       5.428  13.163   6.815  1.00  0.00    -0.336 N 
ATOM      8  H5  UNL     1       5.962  13.306   5.958  1.00  0.00     0.168 HD
HETATM    9  C4  UNL     1       5.069  14.232   7.548  1.00  0.00     0.183 A 
HETATM   10  N6  UNL     1       4.370  14.099   8.681  1.00  0.00    -0.339 N 
ATOM     11  H6  UNL     1       4.111  14.929   9.216  1.00  0.00     0.168 HD
ENDROOT
BRANCH   6  12
HETATM   12  N2  UNL     1       5.476  10.765   6.417  1.00  0.00    -0.176 N 
BRANCH  12  13
HETATM   13  N3  UNL     1       4.646  10.380   5.365  1.00  0.00    -0.322 N 
ATOM     14  H32 UNL     1       4.697  10.779   4.427  1.00  0.00     0.179 HD
ATOM     15  H31 UNL     1       3.949   9.658   5.542  1.00  0.00     0.179 HD
ENDBRANCH  12  13
BRANCH  12  16
HETATM   16  N4  UNL     1       6.647  10.110   6.752  1.00  0.00    -0.190 N 
ATOM     17  H4  UNL     1       6.924   9.898   7.710  1.00  0.00     0.203 HD
BRANCH  16  18
HETATM   18  S1  UNL     1       7.588   9.690   5.370  1.00  0.00     0.374 S 
HETATM   19  O1  UNL     1       6.957   8.255   4.750  1.00  0.00    -0.186 OA
HETATM   20  O2  UNL     1       9.177   9.465   5.905  1.00  0.00    -0.186 OA
ENDBRANCH  16  18
ENDBRANCH  12  16
ENDBRANCH   6  12
TORSDOF 4
ENDMDL
MODEL 4
REMARK VINA RESULT: -4.357308893      3.485      4.990
REMARK  4 active torsions:
REMARK  status: ('A' for Active; 'I' for Inactive)
REMARK    1  A    between atoms: C3_6  and  N2_7 
REMARK    2  A    between atoms: N2_7  and  N3_8 
REMARK    3  A    between atoms: N2_7  and  N4_11 
REMARK    4  A    between atoms: N4_11  and  S1_13 
ROOT
HETATM    1  N1  UNL     1       3.386  12.671  10.200  1.00  0.00    -0.385 N 
ATOM      2  H11 UNL     1       3.143  13.473  10.781  1.00  0.00     0.157 HD
ATOM      3  H12 UNL     1       3.110  11.746  10.527  1.00  0.00     0.157 HD
HETATM    4  C1  UNL     1       4.020  12.860   9.095  1.00  0.00     0.103 A 
HETATM    5  C2  UNL     1       4.348  11.775   8.309  1.00  0.00     0.100 A 
HETATM    6  C3  UNL     1       5.027  11.886   7.111  1.00  0.00     0.149 A 
HETATM    7  N5  UNL     1       5.359  13.159   6.746  1.00  0.00    -0.336 N 
ATOM      8  H5  UNL     1       5.863  13.309   5.871  1.00  0.00     0.168 HD
HETATM    9  C4  UNL     1       5.041  14.219   7.509  1.00  0.00     0.183 A 
HETATM   10  N6  UNL     1       4.383  14.077   8.665  1.00  0.00    -0.339 N 
ATOM     11  H6  UNL     1       4.155  14.900   9.223  1.00  0.00     0.168 HD
ENDROOT
BRANCH   6  12
HETATM   12  N2  UNL     1       5.362  10.767   6.308  1.00  0.00    -0.176 N 
BRANCH  12  13
HETATM   13  N3  UNL     1       4.476  10.395   5.297  1.00  0.00    -0.322 N 
ATOM     14  H32 UNL     1       4.016  11.058   4.674  1.00  0.00     0.179 HD
ATOM     15  H31 UNL     1       4.278   9.402   5.173  1.00  0.00     0.179 HD
ENDBRANCH  12  13
BRANCH  12  16
HETATM   16  N4  UNL     1       6.548  10.107   6.572  1.00  0.00    -0.190 N 
ATOM     17  H4  UNL     1       6.867   9.869   7.511  1.00  0.00     0.203 HD
BRANCH  16  18
HETATM   18  S1  UNL     1       7.429   9.730   5.139  1.00  0.00     0.374 S 
HETATM   19  O1  UNL     1       7.297  11.056   4.105  1.00  0.00    -0.186 OA
HETATM   20  O2  UNL     1       6.700   8.364   4.457  1.00  0.00    -0.186 OA
ENDBRANCH  16  18
ENDBRANCH  12  16
ENDBRANCH   6  12
TORSDOF 4
ENDMDL
MODEL 5
REMARK VINA RESULT: -4.305152070      3.312      4.858
REMARK  4 active torsions:
REMARK  status: ('A' for Active; 'I' for Inactive)
REMARK    1  A    between atoms: C3_6  and  N2_7 
REMARK    2  A    between atoms: N2_7  and  N3_8 
REMARK    3  A    between atoms: N2_7  and  N4_11 
REMARK    4  A    between atoms: N4_11  and  S1_13 
ROOT
HETATM    1  N1  UNL     1       3.303  12.709  10.198  1.00  0.00    -0.385 N 
ATOM      2  H11 UNL     1       3.011  13.518  10.747  1.00  0.00     0.157 HD
ATOM      3  H12 UNL     1       3.035  11.785  10.535  1.00  0.00     0.157 HD
HETATM    4  C1  UNL     1       3.986  12.888   9.122  1.00  0.00     0.103 A 
HETATM    5  C2  UNL     1       4.380  11.794   8.380  1.00  0.00     0.100 A 
HETATM    6  C3  UNL     1       5.114  11.894   7.214  1.00  0.00     0.149 A 
HETATM    7  N5  UNL     1       5.432  13.166   6.834  1.00  0.00    -0.336 N 
ATOM      8  H5  UNL     1       5.974  13.309   5.981  1.00  0.00     0.168 HD
HETATM    9  C4  UNL     1       5.049  14.236   7.553  1.00  0.00     0.183 A 
HETATM   10  N6  UNL     1       4.338  14.103   8.679  1.00  0.00    -0.339 N 
ATOM     11  H6  UNL     1       4.062  14.934   9.204  1.00  0.00     0.168 HD
ENDROOT
BRANCH   6  12
HETATM   12  N2  UNL     1       5.517  10.765   6.457  1.00  0.00    -0.176 N 
BRANCH  12  13
HETATM   13  N3  UNL     1       6.698  10.119   6.819  1.00  0.00    -0.322 N 
ATOM     14  H32 UNL     1       7.014  10.011   7.783  1.00  0.00     0.179 HD
ATOM     15  H31 UNL     1       7.280   9.731   6.077  1.00  0.00     0.179 HD
ENDBRANCH  12  13
BRANCH  12  16
HETATM   16  N4  UNL     1       4.716  10.369   5.402  1.00  0.00    -0.190 N 
ATOM     17  H4  UNL     1       3.701  10.291   5.460  1.00  0.00     0.203 HD
BRANCH  16  18
HETATM   18  S1  UNL     1       5.623  10.024   3.977  1.00  0.00     0.374 S 
HETATM   19  O1  UNL     1       6.403   8.549   4.223  1.00  0.00    -0.186 OA
HETATM   20  O2  UNL     1       6.748  11.274   3.794  1.00  0.00    -0.186 OA
ENDBRANCH  16  18
ENDBRANCH  12  16
ENDBRANCH   6  12
TORSDOF 4
ENDMDL
