MODEL 1
REMARK VINA RESULT: -6.654546605      0.000      0.000
REMARK  3 active torsions:
REMARK  status: ('A' for Active; 'I' for Inactive)
REMARK    1  A    between atoms: C3_3  and  C4_4 
REMARK       I    between atoms: C4_4  and  N1_6 
REMARK    2  A    between atoms: N1_6  and  N2_8 
REMARK    3  A    between atoms: C7_18  and  N6_19 
ROOT
HETATM    1  C1  UNL     1      30.759  47.440  -5.463  1.00  0.00     0.055 C 
HETATM    2  C2  UNL     1      30.156  46.990  -4.180  1.00  0.00     0.014 A 
HETATM    3  C3  UNL     1      30.576  47.498  -2.974  1.00  0.00     0.114 A 
HETATM    4  N3  UNL     1      30.003  47.063  -1.813  1.00  0.00    -0.329 N 
ATOM      5  H3  UNL     1      30.321  47.447  -0.923  1.00  0.00     0.168 HD
HETATM    6  C5  UNL     1      29.036  46.148  -1.821  1.00  0.00     0.190 A 
HETATM    7  C6  UNL     1      28.422  45.682  -0.580  1.00  0.00     0.137 C 
HETATM    8  N4  UNL     1      27.942  45.307   0.386  1.00  0.00    -0.188 NA
HETATM    9  N5  UNL     1      28.624  45.651  -2.980  1.00  0.00    -0.320 N 
ATOM     10  H5  UNL     1      27.882  44.951  -2.976  1.00  0.00     0.169 HD
HETATM   11  C7  UNL     1      29.152  46.039  -4.176  1.00  0.00     0.109 A 
ENDROOT
BRANCH   3  12
HETATM   12  C4  UNL     1      31.630  48.502  -2.921  1.00  0.00     0.286 C 
HETATM   13  O1  UNL     1      32.838  48.256  -2.711  1.00  0.00    -0.264 OA
HETATM   14  N1  UNL     1      31.307  49.887  -3.117  1.00  0.00    -0.271 N 
ATOM     15  H1  UNL     1      30.334  50.137  -3.291  1.00  0.00     0.189 HD
BRANCH  14  16
HETATM   16  N2  UNL     1      32.251  50.903  -3.081  1.00  0.00    -0.342 N 
ATOM     17  H22 UNL     1      32.953  50.862  -2.343  1.00  0.00     0.176 HD
ATOM     18  H21 UNL     1      32.272  51.674  -3.749  1.00  0.00     0.176 HD
ENDBRANCH  14  16
ENDBRANCH   3  12
BRANCH  11  19
HETATM   19  N6  UNL     1      28.669  45.486  -5.226  1.00  0.00    -0.385 N 
ATOM     20  H62 UNL     1      27.762  45.823  -5.548  1.00  0.00     0.157 HD
ATOM     21  H61 UNL     1      29.130  44.743  -5.754  1.00  0.00     0.157 HD
ENDBRANCH  11  19
TORSDOF 3
ENDMDL
MODEL 2
REMARK VINA RESULT: -6.647419844      2.459      4.902
REMARK  3 active torsions:
REMARK  status: ('A' for Active; 'I' for Inactive)
REMARK    1  A    between atoms: C3_3  and  C4_4 
REMARK       I    between atoms: C4_4  and  N1_6 
REMARK    2  A    between atoms: N1_6  and  N2_8 
REMARK    3  A    between atoms: C7_18  and  N6_19 
ROOT
HETATM    1  C1  UNL     1      30.054  47.897  -2.519  1.00  0.00     0.055 C 
HETATM    2  C2  UNL     1      29.885  46.829  -3.541  1.00  0.00     0.014 A 
HETATM    3  C3  UNL     1      28.858  45.920  -3.464  1.00  0.00     0.114 A 
HETATM    4  N3  UNL     1      28.731  44.951  -4.419  1.00  0.00    -0.329 N 
ATOM      5  H3  UNL     1      27.965  44.281  -4.354  1.00  0.00     0.168 HD
HETATM    6  C5  UNL     1      29.589  44.865  -5.434  1.00  0.00     0.190 A 
HETATM    7  C6  UNL     1      29.456  43.829  -6.456  1.00  0.00     0.137 C 
HETATM    8  N4  UNL     1      29.362  43.018  -7.254  1.00  0.00    -0.188 NA
HETATM    9  N5  UNL     1      30.585  45.738  -5.517  1.00  0.00    -0.320 N 
ATOM     10  H5  UNL     1      31.237  45.665  -6.298  1.00  0.00     0.169 HD
HETATM   11  C7  UNL     1      30.771  46.730  -4.599  1.00  0.00     0.109 A 
ENDROOT
BRANCH   3  12
HETATM   12  C4  UNL     1      27.897  45.979  -2.372  1.00  0.00     0.286 C 
HETATM   13  O1  UNL     1      26.844  46.653  -2.386  1.00  0.00    -0.264 OA
HETATM   14  N1  UNL     1      28.132  45.227  -1.172  1.00  0.00    -0.271 N 
ATOM     15  H1  UNL     1      28.979  44.661  -1.114  1.00  0.00     0.189 HD
BRANCH  14  16
HETATM   16  N2  UNL     1      27.268  45.229  -0.088  1.00  0.00    -0.342 N 
ATOM     17  H22 UNL     1      26.278  45.380  -0.280  1.00  0.00     0.176 HD
ATOM     18  H21 UNL     1      27.574  45.088   0.875  1.00  0.00     0.176 HD
ENDBRANCH  14  16
ENDBRANCH   3  12
BRANCH  11  19
HETATM   19  N6  UNL     1      31.769  47.511  -4.788  1.00  0.00    -0.385 N 
ATOM     20  H62 UNL     1      31.595  48.511  -4.690  1.00  0.00     0.157 HD
ATOM     21  H61 UNL     1      32.712  47.200  -5.025  1.00  0.00     0.157 HD
ENDBRANCH  11  19
TORSDOF 3
ENDMDL
MODEL 3
REMARK VINA RESULT: -6.607963597      2.685      4.503
REMARK  3 active torsions:
REMARK  status: ('A' for Active; 'I' for Inactive)
REMARK    1  A    between atoms: C3_3  and  C4_4 
REMARK       I    between atoms: C4_4  and  N1_6 
REMARK    2  A    between atoms: N1_6  and  N2_8 
REMARK    3  A    between atoms: C7_18  and  N6_19 
ROOT
HETATM    1  C1  UNL     1      31.427  46.916  -5.695  1.00  0.00     0.055 C 
HETATM    2  C2  UNL     1      30.199  47.125  -4.881  1.00  0.00     0.014 A 
HETATM    3  C3  UNL     1      29.153  46.235  -4.920  1.00  0.00     0.114 A 
HETATM    4  N3  UNL     1      28.039  46.457  -4.161  1.00  0.00    -0.329 N 
ATOM      5  H3  UNL     1      27.268  45.790  -4.197  1.00  0.00     0.168 HD
HETATM    6  C5  UNL     1      27.940  47.528  -3.376  1.00  0.00     0.190 A 
HETATM    7  C6  UNL     1      26.749  47.767  -2.564  1.00  0.00     0.137 C 
HETATM    8  N4  UNL     1      25.819  47.965  -1.932  1.00  0.00    -0.188 NA
HETATM    9  N5  UNL     1      28.945  48.394  -3.332  1.00  0.00    -0.320 N 
ATOM     10  H5  UNL     1      28.860  49.211  -2.727  1.00  0.00     0.169 HD
HETATM   11  C7  UNL     1      30.085  48.235  -4.062  1.00  0.00     0.109 A 
ENDROOT
BRANCH   3  12
HETATM   12  C4  UNL     1      29.220  45.051  -5.765  1.00  0.00     0.286 C 
HETATM   13  O1  UNL     1      29.062  45.050  -7.005  1.00  0.00    -0.264 OA
HETATM   14  N1  UNL     1      29.485  43.768  -5.176  1.00  0.00    -0.271 N 
ATOM     15  H1  UNL     1      29.620  43.719  -4.166  1.00  0.00     0.189 HD
BRANCH  14  16
HETATM   16  N2  UNL     1      29.564  42.593  -5.908  1.00  0.00    -0.342 N 
ATOM     17  H22 UNL     1      29.874  42.668  -6.877  1.00  0.00     0.176 HD
ATOM     18  H21 UNL     1      29.331  41.676  -5.527  1.00  0.00     0.176 HD
ENDBRANCH  14  16
ENDBRANCH   3  12
BRANCH  11  19
HETATM   19  N6  UNL     1      30.984  49.139  -3.934  1.00  0.00    -0.385 N 
ATOM     20  H62 UNL     1      31.841  48.870  -3.451  1.00  0.00     0.157 HD
ATOM     21  H61 UNL     1      30.897  50.095  -4.280  1.00  0.00     0.157 HD
ENDBRANCH  11  19
TORSDOF 3
ENDMDL
MODEL 4
REMARK VINA RESULT: -6.591036002      2.070      4.131
REMARK  3 active torsions:
REMARK  status: ('A' for Active; 'I' for Inactive)
REMARK    1  A    between atoms: C3_3  and  C4_4 
REMARK       I    between atoms: C4_4  and  N1_6 
REMARK    2  A    between atoms: N1_6  and  N2_8 
REMARK    3  A    between atoms: C7_18  and  N6_19 
ROOT
HETATM    1  C1  UNL     1      30.878  47.374  -5.542  1.00  0.00     0.055 C 
HETATM    2  C2  UNL     1      30.126  46.985  -4.319  1.00  0.00     0.014 A 
HETATM    3  C3  UNL     1      29.358  45.846  -4.282  1.00  0.00     0.114 A 
HETATM    4  N3  UNL     1      28.678  45.518  -3.143  1.00  0.00    -0.329 N 
ATOM      5  H3  UNL     1      28.111  44.670  -3.126  1.00  0.00     0.168 HD
HETATM    6  C5  UNL     1      28.743  46.283  -2.055  1.00  0.00     0.190 A 
HETATM    7  C6  UNL     1      28.017  45.933  -0.836  1.00  0.00     0.137 C 
HETATM    8  N4  UNL     1      27.447  45.671   0.117  1.00  0.00    -0.188 NA
HETATM    9  N5  UNL     1      29.482  47.385  -2.081  1.00  0.00    -0.320 N 
ATOM     10  H5  UNL     1      29.526  47.964  -1.243  1.00  0.00     0.169 HD
HETATM   11  C7  UNL     1      30.185  47.773  -3.183  1.00  0.00     0.109 A 
ENDROOT
BRANCH   3  12
HETATM   12  C4  UNL     1      29.260  44.981  -5.449  1.00  0.00     0.286 C 
HETATM   13  O1  UNL     1      28.811  45.332  -6.561  1.00  0.00    -0.264 OA
HETATM   14  N1  UNL     1      29.700  43.617  -5.364  1.00  0.00    -0.271 N 
ATOM     15  H1  UNL     1      30.075  43.283  -4.476  1.00  0.00     0.189 HD
BRANCH  14  16
HETATM   16  N2  UNL     1      29.641  42.728  -6.428  1.00  0.00    -0.342 N 
ATOM     17  H22 UNL     1      30.335  42.839  -7.167  1.00  0.00     0.176 HD
ATOM     18  H21 UNL     1      28.947  41.984  -6.500  1.00  0.00     0.176 HD
ENDBRANCH  14  16
ENDBRANCH   3  12
BRANCH  11  19
HETATM   19  N6  UNL     1      30.862  48.856  -3.084  1.00  0.00    -0.385 N 
ATOM     20  H62 UNL     1      31.704  48.821  -2.509  1.00  0.00     0.157 HD
ATOM     21  H61 UNL     1      30.616  49.737  -3.537  1.00  0.00     0.157 HD
ENDBRANCH  11  19
TORSDOF 3
ENDMDL
MODEL 5
REMARK VINA RESULT: -6.570737018      1.478      3.268
REMARK  3 active torsions:
REMARK  status: ('A' for Active; 'I' for Inactive)
REMARK    1  A    between atoms: C3_3  and  C4_4 
REMARK       I    between atoms: C4_4  and  N1_6 
REMARK    2  A    between atoms: N1_6  and  N2_8 
REMARK    3  A    between atoms: C7_18  and  N6_19 
ROOT
HETATM    1  C1  UNL     1      28.993  47.633  -1.035  1.00  0.00     0.055 C 
HETATM    2  C2  UNL     1      29.116  46.888  -2.316  1.00  0.00     0.014 A 
HETATM    3  C3  UNL     1      30.155  47.123  -3.185  1.00  0.00     0.114 A 
HETATM    4  N3  UNL     1      30.239  46.422  -4.355  1.00  0.00    -0.329 N 
ATOM      5  H3  UNL     1      31.014  46.603  -4.992  1.00  0.00     0.168 HD
HETATM    6  C5  UNL     1      29.327  45.506  -4.678  1.00  0.00     0.190 A 
HETATM    7  C6  UNL     1      29.415  44.756  -5.928  1.00  0.00     0.137 C 
HETATM    8  N4  UNL     1      29.473  44.171  -6.907  1.00  0.00    -0.188 NA
HETATM    9  N5  UNL     1      28.320  45.273  -3.846  1.00  0.00    -0.320 N 
ATOM     10  H5  UNL     1      27.627  44.569  -4.102  1.00  0.00     0.169 HD
HETATM   11  C7  UNL     1      28.174  45.935  -2.663  1.00  0.00     0.109 A 
ENDROOT
BRANCH   3  12
HETATM   12  C4  UNL     1      31.174  48.114  -2.869  1.00  0.00     0.286 C 
HETATM   13  O1  UNL     1      32.224  47.878  -2.233  1.00  0.00    -0.264 OA
HETATM   14  N1  UNL     1      31.005  49.473  -3.299  1.00  0.00    -0.271 N 
ATOM     15  H1  UNL     1      30.163  49.714  -3.822  1.00  0.00     0.189 HD
BRANCH  14  16
HETATM   16  N2  UNL     1      31.927  50.476  -3.039  1.00  0.00    -0.342 N 
ATOM     17  H22 UNL     1      32.137  51.125  -3.797  1.00  0.00     0.176 HD
ATOM     18  H21 UNL     1      32.394  50.590  -2.139  1.00  0.00     0.176 HD
ENDBRANCH  14  16
ENDBRANCH   3  12
BRANCH  11  19
HETATM   19  N6  UNL     1      27.160  45.620  -1.946  1.00  0.00    -0.385 N 
ATOM     20  H62 UNL     1      27.340  45.404  -0.966  1.00  0.00     0.157 HD
ATOM     21  H61 UNL     1      26.200  45.576  -2.289  1.00  0.00     0.157 HD
ENDBRANCH  11  19
TORSDOF 3
ENDMDL
