MODEL 1
REMARK VINA RESULT: -6.706420787      0.000      0.000
REMARK  2 active torsions:
REMARK  status: ('A' for Active; 'I' for Inactive)
REMARK    1  A    between atoms: O1_2  and  N1_3 
REMARK    2  A    between atoms: C6_14  and  N4_15 
ROOT
HETATM    1  N1  UNL     1      29.849  45.879  -5.854  1.00  0.00    -0.260 N 
ATOM      2  H1  UNL     1      30.218  46.078  -6.784  1.00  0.00     0.194 HD
HETATM    3  C2  UNL     1      30.201  46.663  -4.888  1.00  0.00     0.152 A 
HETATM    4  C3  UNL     1      31.087  47.820  -5.002  1.00  0.00     0.277 A 
HETATM    5  O2  UNL     1      31.629  48.205  -6.077  1.00  0.00    -0.266 OA
HETATM    6  N2  UNL     1      31.177  48.360  -3.699  1.00  0.00    -0.315 N 
ATOM      7  H2  UNL     1      31.730  49.183  -3.458  1.00  0.00     0.169 HD
HETATM    8  C4  UNL     1      30.405  47.620  -2.766  1.00  0.00     0.134 A 
HETATM    9  C5  UNL     1      29.812  46.595  -3.471  1.00  0.00     0.115 A 
HETATM   10  N3  UNL     1      29.013  45.734  -2.800  1.00  0.00    -0.187 N 
ATOM     11  H3  UNL     1      28.574  44.975  -3.321  1.00  0.00     0.184 HD
HETATM   12  C6  UNL     1      28.768  45.827  -1.486  1.00  0.00     0.679 A 
HETATM   13  N5  UNL     1      29.346  46.826  -0.804  1.00  0.00    -0.154 N 
ATOM     14  H5  UNL     1      29.168  46.908   0.197  1.00  0.00     0.187 HD
HETATM   15  C7  UNL     1      30.160  47.730  -1.401  1.00  0.00     0.288 A 
HETATM   16  O3  UNL     1      30.709  48.667  -0.787  1.00  0.00    -0.265 OA
ENDROOT
BRANCH   1  17
HETATM   17  O1  UNL     1      29.026  44.812  -5.719  1.00  0.00    -0.285 OA
HETATM   18  C1  UNL     1      29.363  43.500  -6.067  1.00  0.00     0.237 C 
ENDBRANCH   1  17
BRANCH  12  19
HETATM   19  N4  UNL     1      27.997  44.979  -0.893  1.00  0.00    -0.234 N 
ATOM     20  H42 UNL     1      28.385  44.216  -0.339  1.00  0.00     0.174 HD
ATOM     21  H41 UNL     1      26.982  45.052  -0.967  1.00  0.00     0.174 HD
ENDBRANCH  12  19
TORSDOF 2
ENDMDL
MODEL 2
REMARK VINA RESULT: -6.551816238      2.262      4.701
REMARK  2 active torsions:
REMARK  status: ('A' for Active; 'I' for Inactive)
REMARK    1  A    between atoms: O1_2  and  N1_3 
REMARK    2  A    between atoms: C6_14  and  N4_15 
ROOT
HETATM    1  N1  UNL     1      29.008  46.726  -3.530  1.00  0.00    -0.260 N 
ATOM      2  H1  UNL     1      29.034  47.652  -3.105  1.00  0.00     0.194 HD
HETATM    3  C2  UNL     1      29.650  46.556  -4.639  1.00  0.00     0.152 A 
HETATM    4  C3  UNL     1      30.419  47.577  -5.349  1.00  0.00     0.277 A 
HETATM    5  O2  UNL     1      30.554  48.773  -4.962  1.00  0.00    -0.266 OA
HETATM    6  N2  UNL     1      30.937  46.934  -6.497  1.00  0.00    -0.315 N 
ATOM      7  H2  UNL     1      31.521  47.394  -7.196  1.00  0.00     0.169 HD
HETATM    8  C4  UNL     1      30.545  45.571  -6.559  1.00  0.00     0.134 A 
HETATM    9  C5  UNL     1      29.770  45.333  -5.445  1.00  0.00     0.115 A 
HETATM   10  N3  UNL     1      29.267  44.089  -5.270  1.00  0.00    -0.187 N 
ATOM     11  H3  UNL     1      28.693  43.911  -4.445  1.00  0.00     0.184 HD
HETATM   12  C6  UNL     1      29.484  43.078  -6.123  1.00  0.00     0.679 A 
HETATM   13  N5  UNL     1      30.239  43.315  -7.205  1.00  0.00    -0.154 N 
ATOM     14  H5  UNL     1      30.412  42.554  -7.862  1.00  0.00     0.187 HD
HETATM   15  C7  UNL     1      30.780  44.532  -7.455  1.00  0.00     0.288 A 
HETATM   16  O3  UNL     1      31.485  44.775  -8.454  1.00  0.00    -0.265 OA
ENDROOT
BRANCH   1  17
HETATM   17  O1  UNL     1      28.303  45.760  -2.894  1.00  0.00    -0.285 OA
HETATM   18  C1  UNL     1      27.990  45.775  -1.530  1.00  0.00     0.237 C 
ENDBRANCH   1  17
BRANCH  12  19
HETATM   19  N4  UNL     1      28.980  41.910  -5.908  1.00  0.00    -0.234 N 
ATOM     20  H42 UNL     1      28.005  41.803  -5.631  1.00  0.00     0.174 HD
ATOM     21  H41 UNL     1      29.547  41.068  -6.010  1.00  0.00     0.174 HD
ENDBRANCH  12  19
TORSDOF 2
ENDMDL
MODEL 3
REMARK VINA RESULT: -6.316113697      0.992      1.009
REMARK  2 active torsions:
REMARK  status: ('A' for Active; 'I' for Inactive)
REMARK    1  A    between atoms: O1_2  and  N1_3 
REMARK    2  A    between atoms: C6_14  and  N4_15 
ROOT
HETATM    1  N1  UNL     1      30.348  45.359  -6.534  1.00  0.00    -0.260 N 
ATOM      2  H1  UNL     1      30.913  45.388  -7.382  1.00  0.00     0.194 HD
HETATM    3  C2  UNL     1      30.701  46.123  -5.552  1.00  0.00     0.152 A 
HETATM    4  C3  UNL     1      31.845  47.033  -5.542  1.00  0.00     0.277 A 
HETATM    5  O2  UNL     1      32.646  47.190  -6.506  1.00  0.00    -0.266 OA
HETATM    6  N2  UNL     1      31.830  47.649  -4.269  1.00  0.00    -0.315 N 
ATOM      7  H2  UNL     1      32.513  48.341  -3.961  1.00  0.00     0.169 HD
HETATM    8  C4  UNL     1      30.749  47.188  -3.473  1.00  0.00     0.134 A 
HETATM    9  C5  UNL     1      30.062  46.268  -4.235  1.00  0.00     0.115 A 
HETATM   10  N3  UNL     1      28.973  45.674  -3.695  1.00  0.00    -0.187 N 
ATOM     11  H3  UNL     1      28.464  44.993  -4.259  1.00  0.00     0.184 HD
HETATM   12  C6  UNL     1      28.529  45.934  -2.458  1.00  0.00     0.679 A 
HETATM   13  N5  UNL     1      29.200  46.830  -1.719  1.00  0.00    -0.154 N 
ATOM     14  H5  UNL     1      28.872  47.036  -0.776  1.00  0.00     0.187 HD
HETATM   15  C7  UNL     1      30.300  47.469  -2.186  1.00  0.00     0.288 A 
HETATM   16  O3  UNL     1      30.940  48.305  -1.517  1.00  0.00    -0.265 OA
ENDROOT
BRANCH   1  17
HETATM   17  O1  UNL     1      29.282  44.525  -6.515  1.00  0.00    -0.285 OA
HETATM   18  C1  UNL     1      29.366  43.131  -6.428  1.00  0.00     0.237 C 
ENDBRANCH   1  17
BRANCH  12  19
HETATM   19  N4  UNL     1      27.484  45.339  -1.990  1.00  0.00    -0.234 N 
ATOM     20  H42 UNL     1      26.559  45.757  -2.078  1.00  0.00     0.174 HD
ATOM     21  H41 UNL     1      27.561  44.436  -1.520  1.00  0.00     0.174 HD
ENDBRANCH  12  19
TORSDOF 2
ENDMDL
MODEL 4
REMARK VINA RESULT: -6.232512520      1.757      4.269
REMARK  2 active torsions:
REMARK  status: ('A' for Active; 'I' for Inactive)
REMARK    1  A    between atoms: O1_2  and  N1_3 
REMARK    2  A    between atoms: C6_14  and  N4_15 
ROOT
HETATM    1  N1  UNL     1      32.484  48.006  -3.172  1.00  0.00    -0.260 N 
ATOM      2  H1  UNL     1      32.939  48.624  -2.501  1.00  0.00     0.194 HD
HETATM    3  C2  UNL     1      31.291  47.592  -2.894  1.00  0.00     0.152 A 
HETATM    4  C3  UNL     1      30.524  47.930  -1.696  1.00  0.00     0.277 A 
HETATM    5  O2  UNL     1      30.938  48.680  -0.767  1.00  0.00    -0.266 OA
HETATM    6  N2  UNL     1      29.291  47.252  -1.830  1.00  0.00    -0.315 N 
ATOM      7  H2  UNL     1      28.538  47.294  -1.142  1.00  0.00     0.169 HD
HETATM    8  C4  UNL     1      29.226  46.507  -3.036  1.00  0.00     0.134 A 
HETATM    9  C5  UNL     1      30.426  46.704  -3.685  1.00  0.00     0.115 A 
HETATM   10  N3  UNL     1      30.617  46.092  -4.876  1.00  0.00    -0.187 N 
ATOM     11  H3  UNL     1      31.505  46.237  -5.358  1.00  0.00     0.184 HD
HETATM   12  C6  UNL     1      29.701  45.304  -5.457  1.00  0.00     0.679 A 
HETATM   13  N5  UNL     1      28.536  45.116  -4.822  1.00  0.00    -0.154 N 
ATOM     14  H5  UNL     1      27.830  44.519  -5.253  1.00  0.00     0.187 HD
HETATM   15  C7  UNL     1      28.265  45.692  -3.626  1.00  0.00     0.288 A 
HETATM   16  O3  UNL     1      27.188  45.531  -3.017  1.00  0.00    -0.265 OA
ENDROOT
BRANCH   1  17
HETATM   17  O1  UNL     1      33.171  47.676  -4.292  1.00  0.00    -0.285 OA
HETATM   18  C1  UNL     1      34.346  48.305  -4.715  1.00  0.00     0.237 C 
ENDBRANCH   1  17
BRANCH  12  19
HETATM   19  N4  UNL     1      29.935  44.744  -6.595  1.00  0.00    -0.234 N 
ATOM     20  H42 UNL     1      30.624  45.132  -7.239  1.00  0.00     0.174 HD
ATOM     21  H41 UNL     1      29.435  43.900  -6.876  1.00  0.00     0.174 HD
ENDBRANCH  12  19
TORSDOF 2
ENDMDL
MODEL 5
REMARK VINA RESULT: -6.211647012      2.496      4.166
REMARK  2 active torsions:
REMARK  status: ('A' for Active; 'I' for Inactive)
REMARK    1  A    between atoms: O1_2  and  N1_3 
REMARK    2  A    between atoms: C6_14  and  N4_15 
ROOT
HETATM    1  N1  UNL     1      31.532  45.414  -7.702  1.00  0.00    -0.260 N 
ATOM      2  H1  UNL     1      31.767  44.689  -8.380  1.00  0.00     0.194 HD
HETATM    3  C2  UNL     1      30.630  45.139  -6.817  1.00  0.00     0.152 A 
HETATM    4  C3  UNL     1      29.907  43.874  -6.695  1.00  0.00     0.277 A 
HETATM    5  O2  UNL     1      30.075  42.876  -7.451  1.00  0.00    -0.266 OA
HETATM    6  N2  UNL     1      29.034  44.040  -5.595  1.00  0.00    -0.315 N 
ATOM      7  H2  UNL     1      28.393  43.321  -5.261  1.00  0.00     0.169 HD
HETATM    8  C4  UNL     1      29.159  45.328  -5.012  1.00  0.00     0.134 A 
HETATM    9  C5  UNL     1      30.117  45.999  -5.740  1.00  0.00     0.115 A 
HETATM   10  N3  UNL     1      30.425  47.266  -5.380  1.00  0.00    -0.187 N 
ATOM     11  H3  UNL     1      31.134  47.764  -5.918  1.00  0.00     0.184 HD
HETATM   12  C6  UNL     1      29.845  47.902  -4.352  1.00  0.00     0.679 A 
HETATM   13  N5  UNL     1      28.913  47.246  -3.647  1.00  0.00    -0.154 N 
ATOM     14  H5  UNL     1      28.464  47.719  -2.862  1.00  0.00     0.187 HD
HETATM   15  C7  UNL     1      28.547  45.975  -3.942  1.00  0.00     0.288 A 
HETATM   16  O3  UNL     1      27.683  45.345  -3.300  1.00  0.00    -0.265 OA
ENDROOT
BRANCH   1  17
HETATM   17  O1  UNL     1      32.187  46.596  -7.791  1.00  0.00    -0.285 OA
HETATM   18  C1  UNL     1      33.504  46.807  -7.369  1.00  0.00     0.237 C 
ENDBRANCH   1  17
BRANCH  12  19
HETATM   19  N4  UNL     1      30.175  49.113  -4.051  1.00  0.00    -0.234 N 
ATOM     20  H42 UNL     1      29.605  49.902  -4.354  1.00  0.00     0.174 HD
ATOM     21  H41 UNL     1      31.014  49.307  -3.503  1.00  0.00     0.174 HD
ENDBRANCH  12  19
TORSDOF 2
ENDMDL
