MODEL 1
REMARK VINA RESULT: -6.355031171      0.000      0.000
REMARK  5 active torsions:
REMARK  status: ('A' for Active; 'I' for Inactive)
REMARK    1  A    between atoms: N1_2  and  C2_4 
REMARK    2  A    between atoms: C3_7  and  N3_8 
REMARK    3  A    between atoms: N3_8  and  N4_10 
REMARK    4  A    between atoms: C6_18  and  C7_19 
REMARK    5  A    between atoms: N7_20  and  N8_22 
ROOT
HETATM    1  C2  UNL     1      29.751  47.397  -3.906  1.00  0.00     0.131 A 
HETATM    2  N2  UNL     1      28.942  46.950  -2.929  1.00  0.00    -0.175 N 
ATOM      3  H2  UNL     1      28.834  47.516  -2.088  1.00  0.00     0.186 HD
HETATM    4  C3  UNL     1      28.271  45.790  -3.016  1.00  0.00     0.699 A 
HETATM    5  N5  UNL     1      28.438  45.070  -4.138  1.00  0.00    -0.179 N 
ATOM      6  H5  UNL     1      27.940  44.184  -4.230  1.00  0.00     0.185 HD
HETATM    7  C4  UNL     1      29.244  45.477  -5.156  1.00  0.00     0.145 A 
HETATM    8  C5  UNL     1      29.369  44.656  -6.316  1.00  0.00     0.119 C 
HETATM    9  N6  UNL     1      29.454  43.971  -7.251  1.00  0.00    -0.190 NA
HETATM   10  C6  UNL     1      29.937  46.660  -5.081  1.00  0.00     0.063 A 
ENDROOT
BRANCH  10  11
HETATM   11  C7  UNL     1      30.813  47.182  -6.094  1.00  0.00     0.124 C 
HETATM   12  N7  UNL     1      32.032  46.826  -6.184  1.00  0.00    -0.317 N 
ATOM     13  H7  UNL     1      32.401  46.148  -5.515  1.00  0.00     0.185 HD
BRANCH  12  14
HETATM   14  N8  UNL     1      32.877  47.332  -7.165  1.00  0.00    -0.345 N 
ATOM     15  H82 UNL     1      32.815  46.934  -8.103  1.00  0.00     0.176 HD
ATOM     16  H81 UNL     1      33.544  48.079  -6.970  1.00  0.00     0.176 HD
ENDBRANCH  12  14
ENDBRANCH  10  11
BRANCH   4  17
HETATM   17  N3  UNL     1      27.493  45.378  -2.059  1.00  0.00    -0.138 N 
ATOM     18  H3  UNL     1      26.479  45.431  -2.158  1.00  0.00     0.205 HD
BRANCH  17  19
HETATM   19  N4  UNL     1      28.063  44.860  -0.892  1.00  0.00    -0.331 N 
ATOM     20  H42 UNL     1      29.068  44.947  -0.744  1.00  0.00     0.177 HD
ATOM     21  H41 UNL     1      27.463  44.403  -0.205  1.00  0.00     0.177 HD
ENDBRANCH  17  19
ENDBRANCH   4  17
BRANCH   1  22
HETATM   22  N1  UNL     1      30.392  48.512  -3.814  1.00  0.00    -0.379 N 
HETATM   23  C1  UNL     1      31.428  48.600  -2.805  1.00  0.00     0.147 C 
ATOM     24  H1  UNL     1      30.179  49.299  -4.426  1.00  0.00     0.160 HD
ENDBRANCH   1  22
TORSDOF 5
ENDMDL
MODEL 2
REMARK VINA RESULT: -6.247991154      1.448      3.957
REMARK  5 active torsions:
REMARK  status: ('A' for Active; 'I' for Inactive)
REMARK    1  A    between atoms: N1_2  and  C2_4 
REMARK    2  A    between atoms: C3_7  and  N3_8 
REMARK    3  A    between atoms: N3_8  and  N4_10 
REMARK    4  A    between atoms: C6_18  and  C7_19 
REMARK    5  A    between atoms: N7_20  and  N8_22 
ROOT
HETATM    1  C2  UNL     1      29.124  46.113  -4.114  1.00  0.00     0.131 A 
HETATM    2  N2  UNL     1      29.555  47.286  -3.621  1.00  0.00    -0.175 N 
ATOM      3  H2  UNL     1      29.159  47.622  -2.743  1.00  0.00     0.186 HD
HETATM    4  C3  UNL     1      30.485  48.035  -4.235  1.00  0.00     0.699 A 
HETATM    5  N5  UNL     1      30.984  47.564  -5.389  1.00  0.00    -0.179 N 
ATOM      6  H5  UNL     1      31.692  48.113  -5.878  1.00  0.00     0.185 HD
HETATM    7  C4  UNL     1      30.583  46.382  -5.932  1.00  0.00     0.145 A 
HETATM    8  C5  UNL     1      31.161  45.948  -7.163  1.00  0.00     0.119 C 
HETATM    9  N6  UNL     1      31.646  45.617  -8.165  1.00  0.00    -0.190 NA
HETATM   10  C6  UNL     1      29.633  45.606  -5.316  1.00  0.00     0.063 A 
ENDROOT
BRANCH  10  11
HETATM   11  C7  UNL     1      29.138  44.347  -5.801  1.00  0.00     0.124 C 
HETATM   12  N7  UNL     1      29.641  43.235  -5.435  1.00  0.00    -0.317 N 
ATOM     13  H7  UNL     1      30.421  43.237  -4.776  1.00  0.00     0.185 HD
BRANCH  12  14
HETATM   14  N8  UNL     1      29.160  42.019  -5.906  1.00  0.00    -0.345 N 
ATOM     15  H82 UNL     1      28.150  41.867  -5.897  1.00  0.00     0.176 HD
ATOM     16  H81 UNL     1      29.783  41.290  -6.252  1.00  0.00     0.176 HD
ENDBRANCH  12  14
ENDBRANCH  10  11
BRANCH   4  17
HETATM   17  N3  UNL     1      30.888  49.168  -3.738  1.00  0.00    -0.138 N 
ATOM     18  H3  UNL     1      31.398  49.193  -2.855  1.00  0.00     0.205 HD
BRANCH  17  19
HETATM   19  N4  UNL     1      30.614  50.352  -4.430  1.00  0.00    -0.331 N 
ATOM     20  H42 UNL     1      31.176  50.598  -5.244  1.00  0.00     0.177 HD
ATOM     21  H41 UNL     1      29.852  50.950  -4.109  1.00  0.00     0.177 HD
ENDBRANCH  17  19
ENDBRANCH   4  17
BRANCH   1  22
HETATM   22  N1  UNL     1      28.231  45.400  -3.518  1.00  0.00    -0.379 N 
HETATM   23  C1  UNL     1      27.639  45.949  -2.315  1.00  0.00     0.147 C 
ATOM     24  H1  UNL     1      27.951  44.488  -3.878  1.00  0.00     0.160 HD
ENDBRANCH   1  22
TORSDOF 5
ENDMDL
MODEL 3
REMARK VINA RESULT: -6.240892407      0.992      3.280
REMARK  5 active torsions:
REMARK  status: ('A' for Active; 'I' for Inactive)
REMARK    1  A    between atoms: N1_2  and  C2_4 
REMARK    2  A    between atoms: C3_7  and  N3_8 
REMARK    3  A    between atoms: N3_8  and  N4_10 
REMARK    4  A    between atoms: C6_18  and  C7_19 
REMARK    5  A    between atoms: N7_20  and  N8_22 
ROOT
HETATM    1  C2  UNL     1      29.274  45.622  -4.954  1.00  0.00     0.131 A 
HETATM    2  N2  UNL     1      28.394  45.244  -4.011  1.00  0.00    -0.175 N 
ATOM      3  H2  UNL     1      27.674  44.565  -4.258  1.00  0.00     0.186 HD
HETATM    4  C3  UNL     1      28.424  45.722  -2.756  1.00  0.00     0.699 A 
HETATM    5  N5  UNL     1      29.385  46.615  -2.465  1.00  0.00    -0.179 N 
ATOM      6  H5  UNL     1      29.430  46.996  -1.519  1.00  0.00     0.185 HD
HETATM    7  C4  UNL     1      30.300  47.031  -3.383  1.00  0.00     0.145 A 
HETATM    8  C5  UNL     1      31.291  47.982  -2.997  1.00  0.00     0.119 C 
HETATM    9  N6  UNL     1      32.087  48.757  -2.658  1.00  0.00    -0.190 NA
HETATM   10  C6  UNL     1      30.282  46.550  -4.669  1.00  0.00     0.063 A 
ENDROOT
BRANCH  10  11
HETATM   11  C7  UNL     1      31.197  46.921  -5.713  1.00  0.00     0.124 C 
HETATM   12  N7  UNL     1      31.023  47.961  -6.428  1.00  0.00    -0.317 N 
ATOM     13  H7  UNL     1      30.208  48.550  -6.256  1.00  0.00     0.185 HD
BRANCH  12  14
HETATM   14  N8  UNL     1      31.910  48.317  -7.438  1.00  0.00    -0.345 N 
ATOM     15  H82 UNL     1      32.900  48.110  -7.300  1.00  0.00     0.176 HD
ATOM     16  H81 UNL     1      31.598  48.772  -8.295  1.00  0.00     0.176 HD
ENDBRANCH  12  14
ENDBRANCH  10  11
BRANCH   4  17
HETATM   17  N3  UNL     1      27.562  45.342  -1.859  1.00  0.00    -0.138 N 
ATOM     18  H3  UNL     1      26.561  45.410  -2.042  1.00  0.00     0.205 HD
BRANCH  17  19
HETATM   19  N4  UNL     1      28.026  44.838  -0.640  1.00  0.00    -0.331 N 
ATOM     20  H42 UNL     1      28.966  44.449  -0.584  1.00  0.00     0.177 HD
ATOM     21  H41 UNL     1      27.414  44.869   0.176  1.00  0.00     0.177 HD
ENDBRANCH  17  19
ENDBRANCH   4  17
BRANCH   1  22
HETATM   22  N1  UNL     1      29.238  45.157  -6.156  1.00  0.00    -0.379 N 
HETATM   23  C1  UNL     1      29.484  43.740  -6.327  1.00  0.00     0.147 C 
ATOM     24  H1  UNL     1      29.045  45.763  -6.953  1.00  0.00     0.160 HD
ENDBRANCH   1  22
TORSDOF 5
ENDMDL
MODEL 4
REMARK VINA RESULT: -6.109120622      0.903      3.267
REMARK  5 active torsions:
REMARK  status: ('A' for Active; 'I' for Inactive)
REMARK    1  A    between atoms: N1_2  and  C2_4 
REMARK    2  A    between atoms: C3_7  and  N3_8 
REMARK    3  A    between atoms: N3_8  and  N4_10 
REMARK    4  A    between atoms: C6_18  and  C7_19 
REMARK    5  A    between atoms: N7_20  and  N8_22 
ROOT
HETATM    1  C2  UNL     1      29.584  45.186  -5.516  1.00  0.00     0.131 A 
HETATM    2  N2  UNL     1      28.709  44.897  -4.538  1.00  0.00    -0.175 N 
ATOM      3  H2  UNL     1      28.241  43.992  -4.553  1.00  0.00     0.186 HD
HETATM    4  C3  UNL     1      28.425  45.752  -3.542  1.00  0.00     0.699 A 
HETATM    5  N5  UNL     1      29.059  46.936  -3.553  1.00  0.00    -0.179 N 
ATOM      6  H5  UNL     1      28.862  47.605  -2.808  1.00  0.00     0.185 HD
HETATM    7  C4  UNL     1      29.954  47.278  -4.520  1.00  0.00     0.145 A 
HETATM    8  C5  UNL     1      30.586  48.556  -4.464  1.00  0.00     0.119 C 
HETATM    9  N6  UNL     1      31.088  49.602  -4.395  1.00  0.00    -0.190 NA
HETATM   10  C6  UNL     1      30.254  46.415  -5.545  1.00  0.00     0.063 A 
ENDROOT
BRANCH  10  11
HETATM   11  C7  UNL     1      31.179  46.675  -6.614  1.00  0.00     0.124 C 
HETATM   12  N7  UNL     1      32.440  46.633  -6.442  1.00  0.00    -0.317 N 
ATOM     13  H7  UNL     1      32.807  46.408  -5.517  1.00  0.00     0.185 HD
BRANCH  12  14
HETATM   14  N8  UNL     1      33.332  46.884  -7.479  1.00  0.00    -0.345 N 
ATOM     15  H82 UNL     1      33.787  47.797  -7.508  1.00  0.00     0.176 HD
ATOM     16  H81 UNL     1      33.537  46.188  -8.196  1.00  0.00     0.176 HD
ENDBRANCH  12  14
ENDBRANCH  10  11
BRANCH   4  17
HETATM   17  N3  UNL     1      27.575  45.451  -2.604  1.00  0.00    -0.138 N 
ATOM     18  H3  UNL     1      26.572  45.475  -2.789  1.00  0.00     0.205 HD
BRANCH  17  19
HETATM   19  N4  UNL     1      28.054  45.094  -1.340  1.00  0.00    -0.331 N 
ATOM     20  H42 UNL     1      28.965  44.644  -1.257  1.00  0.00     0.177 HD
ATOM     21  H41 UNL     1      27.482  45.291  -0.518  1.00  0.00     0.177 HD
ENDBRANCH  17  19
ENDBRANCH   4  17
BRANCH   1  22
HETATM   22  N1  UNL     1      29.850  44.360  -6.469  1.00  0.00    -0.379 N 
HETATM   23  C1  UNL     1      29.473  42.975  -6.272  1.00  0.00     0.147 C 
ATOM     24  H1  UNL     1      30.307  44.669  -7.328  1.00  0.00     0.160 HD
ENDBRANCH   1  22
TORSDOF 5
ENDMDL
MODEL 5
REMARK VINA RESULT: -6.091725903      1.805      4.328
REMARK  5 active torsions:
REMARK  status: ('A' for Active; 'I' for Inactive)
REMARK    1  A    between atoms: N1_2  and  C2_4 
REMARK    2  A    between atoms: C3_7  and  N3_8 
REMARK    3  A    between atoms: N3_8  and  N4_10 
REMARK    4  A    between atoms: C6_18  and  C7_19 
REMARK    5  A    between atoms: N7_20  and  N8_22 
ROOT
HETATM    1  C2  UNL     1      29.459  45.547  -5.038  1.00  0.00     0.131 A 
HETATM    2  N2  UNL     1      30.094  46.687  -4.716  1.00  0.00    -0.175 N 
ATOM      3  H2  UNL     1      29.831  47.166  -3.855  1.00  0.00     0.186 HD
HETATM    4  C3  UNL     1      31.059  47.221  -5.481  1.00  0.00     0.699 A 
HETATM    5  N5  UNL     1      31.379  46.564  -6.609  1.00  0.00    -0.179 N 
ATOM      6  H5  UNL     1      32.109  46.949  -7.210  1.00  0.00     0.185 HD
HETATM    7  C4  UNL     1      30.768  45.407  -6.980  1.00  0.00     0.145 A 
HETATM    8  C5  UNL     1      31.163  44.768  -8.193  1.00  0.00     0.119 C 
HETATM    9  N6  UNL     1      31.503  44.266  -9.185  1.00  0.00    -0.190 NA
HETATM   10  C6  UNL     1      29.779  44.849  -6.208  1.00  0.00     0.063 A 
ENDROOT
BRANCH  10  11
HETATM   11  C7  UNL     1      29.070  43.635  -6.506  1.00  0.00     0.124 C 
HETATM   12  N7  UNL     1      29.365  42.525  -5.954  1.00  0.00    -0.317 N 
ATOM     13  H7  UNL     1      30.129  42.496  -5.278  1.00  0.00     0.185 HD
BRANCH  12  14
HETATM   14  N8  UNL     1      28.676  41.353  -6.244  1.00  0.00    -0.345 N 
ATOM     15  H82 UNL     1      28.037  41.357  -7.040  1.00  0.00     0.176 HD
ATOM     16  H81 UNL     1      28.795  40.506  -5.689  1.00  0.00     0.176 HD
ENDBRANCH  12  14
ENDBRANCH  10  11
BRANCH   4  17
HETATM   17  N3  UNL     1      31.661  48.326  -5.150  1.00  0.00    -0.138 N 
ATOM     18  H3  UNL     1      32.668  48.336  -4.986  1.00  0.00     0.205 HD
BRANCH  17  19
HETATM   19  N4  UNL     1      30.911  49.499  -5.023  1.00  0.00    -0.331 N 
ATOM     20  H42 UNL     1      30.983  50.220  -5.740  1.00  0.00     0.177 HD
ATOM     21  H41 UNL     1      30.302  49.614  -4.212  1.00  0.00     0.177 HD
ENDBRANCH  17  19
ENDBRANCH   4  17
BRANCH   1  22
HETATM   22  N1  UNL     1      28.533  45.041  -4.297  1.00  0.00    -0.379 N 
HETATM   23  C1  UNL     1      27.885  45.924  -3.349  1.00  0.00     0.147 C 
ATOM     24  H1  UNL     1      28.267  44.059  -4.376  1.00  0.00     0.160 HD
ENDBRANCH   1  22
TORSDOF 5
ENDMDL
