MODEL 1
REMARK VINA RESULT: -4.241287855      0.000      0.000
REMARK  4 active torsions:
REMARK  status: ('A' for Active; 'I' for Inactive)
REMARK    1  A    between atoms: N1_1  and  N2_4 
REMARK    2  A    between atoms: C1_6  and  C2_7 
REMARK    3  A    between atoms: C5_15  and  C6_16 
REMARK       I    between atoms: C6_16  and  N5_18 
REMARK    4  A    between atoms: N5_18  and  N6_20 
ROOT
HETATM    1  C2  UNL     1      -1.213 -16.720   3.970  1.00  0.00     0.084 A 
HETATM    2  N3  UNL     1      -1.292 -17.392   2.763  1.00  0.00    -0.319 N 
ATOM      3  H3  UNL     1      -0.577 -18.088   2.548  1.00  0.00     0.169 HD
HETATM    4  C3  UNL     1      -2.254 -17.175   1.867  1.00  0.00     0.261 A 
HETATM    5  O1  UNL     1      -2.285 -17.811   0.783  1.00  0.00    -0.267 OA
HETATM    6  C4  UNL     1      -3.226 -16.248   2.129  1.00  0.00     0.163 A 
HETATM    7  N4  UNL     1      -3.175 -15.597   3.269  1.00  0.00    -0.355 N 
ATOM      8  H4  UNL     1      -3.898 -14.904   3.466  1.00  0.00     0.165 HD
HETATM    9  C5  UNL     1      -2.178 -15.807   4.225  1.00  0.00     0.131 A 
ENDROOT
BRANCH   9  10
HETATM   10  C6  UNL     1      -2.319 -15.074   5.460  1.00  0.00     0.288 C 
HETATM   11  O2  UNL     1      -1.834 -13.999   5.787  1.00  0.00    -0.264 OA
HETATM   12  N5  UNL     1      -3.150 -15.660   6.492  1.00  0.00    -0.271 N 
ATOM     13  H5  UNL     1      -3.590 -16.558   6.291  1.00  0.00     0.189 HD
BRANCH  12  14
HETATM   14  N6  UNL     1      -3.390 -15.095   7.719  1.00  0.00    -0.342 N 
ATOM     15  H62 UNL     1      -2.746 -15.346   8.470  1.00  0.00     0.176 HD
ATOM     16  H61 UNL     1      -4.155 -14.453   7.925  1.00  0.00     0.176 HD
ENDBRANCH  12  14
ENDBRANCH   9  10
BRANCH   1  17
HETATM   17  C1  UNL     1      -0.084 -16.971   4.825  1.00  0.00     0.138 C 
HETATM   18  N2  UNL     1       1.122 -17.220   4.597  1.00  0.00    -0.316 N 
ATOM     19  H2  UNL     1       1.428 -17.268   3.625  1.00  0.00     0.185 HD
BRANCH  18  20
HETATM   20  N1  UNL     1       2.054 -17.431   5.580  1.00  0.00    -0.345 N 
ATOM     21  H12 UNL     1       1.931 -18.256   6.168  1.00  0.00     0.176 HD
ATOM     22  H11 UNL     1       2.849 -16.814   5.747  1.00  0.00     0.176 HD
ENDBRANCH  18  20
ENDBRANCH   1  17
TORSDOF 4
ENDMDL
MODEL 2
REMARK VINA RESULT: -4.114469771      2.915      5.562
REMARK  4 active torsions:
REMARK  status: ('A' for Active; 'I' for Inactive)
REMARK    1  A    between atoms: N1_1  and  N2_4 
REMARK    2  A    between atoms: C1_6  and  C2_7 
REMARK    3  A    between atoms: C5_15  and  C6_16 
REMARK       I    between atoms: C6_16  and  N5_18 
REMARK    4  A    between atoms: N5_18  and  N6_20 
ROOT
HETATM    1  C2  UNL     1      -4.771 -15.820   6.077  1.00  0.00     0.084 A 
HETATM    2  N3  UNL     1      -5.905 -15.991   6.852  1.00  0.00    -0.319 N 
ATOM      3  H3  UNL     1      -6.725 -16.419   6.423  1.00  0.00     0.169 HD
HETATM    4  C3  UNL     1      -5.977 -15.624   8.130  1.00  0.00     0.261 A 
HETATM    5  O1  UNL     1      -7.030 -15.799   8.796  1.00  0.00    -0.267 OA
HETATM    6  C4  UNL     1      -4.892 -15.048   8.732  1.00  0.00     0.163 A 
HETATM    7  N4  UNL     1      -3.802 -14.875   8.018  1.00  0.00    -0.355 N 
ATOM      8  H4  UNL     1      -2.992 -14.444   8.465  1.00  0.00     0.165 HD
HETATM    9  C5  UNL     1      -3.700 -15.253   6.677  1.00  0.00     0.131 A 
ENDROOT
BRANCH   9  10
HETATM   10  C6  UNL     1      -2.405 -15.075   6.065  1.00  0.00     0.288 C 
HETATM   11  O2  UNL     1      -1.834 -14.044   5.735  1.00  0.00    -0.264 OA
HETATM   12  N5  UNL     1      -1.631 -16.268   5.784  1.00  0.00    -0.271 N 
ATOM     13  H5  UNL     1      -2.042 -17.168   6.032  1.00  0.00     0.189 HD
BRANCH  12  14
HETATM   14  N6  UNL     1      -0.386 -16.275   5.209  1.00  0.00    -0.342 N 
ATOM     15  H62 UNL     1       0.408 -16.164   5.840  1.00  0.00     0.176 HD
ATOM     16  H61 UNL     1      -0.206 -16.382   4.210  1.00  0.00     0.176 HD
ENDBRANCH  12  14
ENDBRANCH   9  10
BRANCH   1  17
HETATM   17  C1  UNL     1      -4.830 -16.175   4.684  1.00  0.00     0.138 C 
HETATM   18  N2  UNL     1      -5.096 -15.524   3.648  1.00  0.00    -0.316 N 
ATOM     19  H2  UNL     1      -5.327 -14.535   3.746  1.00  0.00     0.185 HD
BRANCH  18  20
HETATM   20  N1  UNL     1      -5.095 -16.066   2.388  1.00  0.00    -0.345 N 
ATOM     21  H12 UNL     1      -4.989 -17.078   2.318  1.00  0.00     0.176 HD
ATOM     22  H11 UNL     1      -5.195 -15.515   1.536  1.00  0.00     0.176 HD
ENDBRANCH  18  20
ENDBRANCH   1  17
TORSDOF 4
ENDMDL
MODEL 3
REMARK VINA RESULT: -4.099158008      1.835      4.343
REMARK  4 active torsions:
REMARK  status: ('A' for Active; 'I' for Inactive)
REMARK    1  A    between atoms: N1_1  and  N2_4 
REMARK    2  A    between atoms: C1_6  and  C2_7 
REMARK    3  A    between atoms: C5_15  and  C6_16 
REMARK       I    between atoms: C6_16  and  N5_18 
REMARK    4  A    between atoms: N5_18  and  N6_20 
ROOT
HETATM    1  C2  UNL     1      -2.079 -15.714   5.734  1.00  0.00     0.084 A 
HETATM    2  N3  UNL     1      -2.293 -15.138   6.974  1.00  0.00    -0.319 N 
ATOM      3  H3  UNL     1      -1.481 -14.852   7.522  1.00  0.00     0.169 HD
HETATM    4  C3  UNL     1      -3.506 -14.938   7.487  1.00  0.00     0.261 A 
HETATM    5  O1  UNL     1      -3.652 -14.410   8.618  1.00  0.00    -0.267 OA
HETATM    6  C4  UNL     1      -4.612 -15.310   6.773  1.00  0.00     0.163 A 
HETATM    7  N4  UNL     1      -4.437 -15.859   5.592  1.00  0.00    -0.355 N 
ATOM      8  H4  UNL     1      -5.261 -16.138   5.059  1.00  0.00     0.165 HD
HETATM    9  C5  UNL     1      -3.176 -16.078   5.032  1.00  0.00     0.131 A 
ENDROOT
BRANCH   9  10
HETATM   10  C6  UNL     1      -3.162 -16.608   3.690  1.00  0.00     0.288 C 
HETATM   11  O2  UNL     1      -2.757 -17.689   3.283  1.00  0.00    -0.264 OA
HETATM   12  N5  UNL     1      -3.700 -15.771   2.636  1.00  0.00    -0.271 N 
ATOM     13  H5  UNL     1      -4.059 -14.853   2.899  1.00  0.00     0.189 HD
BRANCH  12  14
HETATM   14  N6  UNL     1      -3.764 -16.122   1.312  1.00  0.00    -0.342 N 
ATOM     15  H62 UNL     1      -4.442 -15.619   0.739  1.00  0.00     0.176 HD
ATOM     16  H61 UNL     1      -3.188 -16.840   0.872  1.00  0.00     0.176 HD
ENDBRANCH  12  14
ENDBRANCH   9  10
BRANCH   1  17
HETATM   17  C1  UNL     1      -0.725 -15.962   5.314  1.00  0.00     0.138 C 
HETATM   18  N2  UNL     1      -0.053 -17.009   5.172  1.00  0.00    -0.316 N 
ATOM     19  H2  UNL     1      -0.501 -17.901   5.381  1.00  0.00     0.185 HD
BRANCH  18  20
HETATM   20  N1  UNL     1       1.252 -17.023   4.751  1.00  0.00    -0.345 N 
ATOM     21  H12 UNL     1       1.824 -16.210   4.981  1.00  0.00     0.176 HD
ATOM     22  H11 UNL     1       1.669 -17.794   4.229  1.00  0.00     0.176 HD
ENDBRANCH  18  20
ENDBRANCH   1  17
TORSDOF 4
ENDMDL
MODEL 4
REMARK VINA RESULT: -4.087737759      1.503      3.485
REMARK  4 active torsions:
REMARK  status: ('A' for Active; 'I' for Inactive)
REMARK    1  A    between atoms: N1_1  and  N2_4 
REMARK    2  A    between atoms: C1_6  and  C2_7 
REMARK    3  A    between atoms: C5_15  and  C6_16 
REMARK       I    between atoms: C6_16  and  N5_18 
REMARK    4  A    between atoms: N5_18  and  N6_20 
ROOT
HETATM    1  C2  UNL     1      -1.841 -16.270   3.663  1.00  0.00     0.084 A 
HETATM    2  N3  UNL     1      -1.018 -17.004   2.829  1.00  0.00    -0.319 N 
ATOM      3  H3  UNL     1      -1.376 -17.282   1.915  1.00  0.00     0.169 HD
HETATM    4  C3  UNL     1       0.221 -17.366   3.159  1.00  0.00     0.261 A 
HETATM    5  O1  UNL     1       0.934 -18.034   2.368  1.00  0.00    -0.267 OA
HETATM    6  C4  UNL     1       0.729 -17.006   4.378  1.00  0.00     0.163 A 
HETATM    7  N4  UNL     1      -0.033 -16.308   5.189  1.00  0.00    -0.355 N 
ATOM      8  H4  UNL     1       0.343 -16.040   6.099  1.00  0.00     0.165 HD
HETATM    9  C5  UNL     1      -1.334 -15.914   4.865  1.00  0.00     0.131 A 
ENDROOT
BRANCH   9  10
HETATM   10  C6  UNL     1      -2.002 -15.076   5.831  1.00  0.00     0.288 C 
HETATM   11  O2  UNL     1      -2.016 -13.855   5.927  1.00  0.00    -0.264 OA
HETATM   12  N5  UNL     1      -2.786 -15.734   6.857  1.00  0.00    -0.271 N 
ATOM     13  H5  UNL     1      -2.824 -16.753   6.842  1.00  0.00     0.189 HD
BRANCH  12  14
HETATM   14  N6  UNL     1      -3.482 -15.087   7.846  1.00  0.00    -0.342 N 
ATOM     15  H62 UNL     1      -4.500 -15.111   7.777  1.00  0.00     0.176 HD
ATOM     16  H61 UNL     1      -3.056 -14.594   8.630  1.00  0.00     0.176 HD
ENDBRANCH  12  14
ENDBRANCH   9  10
BRANCH   1  17
HETATM   17  C1  UNL     1      -3.191 -16.007   3.240  1.00  0.00     0.138 C 
HETATM   18  N2  UNL     1      -3.796 -16.181   2.158  1.00  0.00    -0.316 N 
ATOM     19  H2  UNL     1      -3.281 -16.590   1.378  1.00  0.00     0.185 HD
BRANCH  18  20
HETATM   20  N1  UNL     1      -5.114 -15.854   1.962  1.00  0.00    -0.345 N 
ATOM     21  H12 UNL     1      -5.322 -15.186   1.219  1.00  0.00     0.176 HD
ATOM     22  H11 UNL     1      -5.880 -16.239   2.514  1.00  0.00     0.176 HD
ENDBRANCH  18  20
ENDBRANCH   1  17
TORSDOF 4
ENDMDL
MODEL 5
REMARK VINA RESULT: -4.037202249      2.040      4.242
REMARK  4 active torsions:
REMARK  status: ('A' for Active; 'I' for Inactive)
REMARK    1  A    between atoms: N1_1  and  N2_4 
REMARK    2  A    between atoms: C1_6  and  C2_7 
REMARK    3  A    between atoms: C5_15  and  C6_16 
REMARK       I    between atoms: C6_16  and  N5_18 
REMARK    4  A    between atoms: N5_18  and  N6_20 
ROOT
HETATM    1  C2  UNL     1      -1.732 -15.741   5.135  1.00  0.00     0.084 A 
HETATM    2  N3  UNL     1      -0.469 -16.171   5.499  1.00  0.00    -0.319 N 
ATOM      3  H3  UNL     1      -0.125 -15.934   6.430  1.00  0.00     0.169 HD
HETATM    4  C3  UNL     1       0.322 -16.879   4.694  1.00  0.00     0.261 A 
HETATM    5  O1  UNL     1       1.464 -17.249   5.068  1.00  0.00    -0.267 OA
HETATM    6  C4  UNL     1      -0.113 -17.212   3.440  1.00  0.00     0.163 A 
HETATM    7  N4  UNL     1      -1.310 -16.816   3.069  1.00  0.00    -0.355 N 
ATOM      8  H4  UNL     1      -1.636 -17.062   2.134  1.00  0.00     0.165 HD
HETATM    9  C5  UNL     1      -2.158 -16.074   3.896  1.00  0.00     0.131 A 
ENDROOT
BRANCH   9  10
HETATM   10  C6  UNL     1      -3.473 -15.798   3.369  1.00  0.00     0.288 C 
HETATM   11  O2  UNL     1      -4.446 -15.301   3.922  1.00  0.00    -0.264 OA
HETATM   12  N5  UNL     1      -3.722 -16.140   1.983  1.00  0.00    -0.271 N 
ATOM     13  H5  UNL     1      -2.956 -16.558   1.455  1.00  0.00     0.189 HD
BRANCH  12  14
HETATM   14  N6  UNL     1      -4.911 -15.942   1.329  1.00  0.00    -0.342 N 
ATOM     15  H62 UNL     1      -5.761 -16.060   1.882  1.00  0.00     0.176 HD
ATOM     16  H61 UNL     1      -5.000 -15.690   0.344  1.00  0.00     0.176 HD
ENDBRANCH  12  14
ENDBRANCH   9  10
BRANCH   1  17
HETATM   17  C1  UNL     1      -2.466 -14.909   6.051  1.00  0.00     0.138 C 
HETATM   18  N2  UNL     1      -3.348 -15.151   6.906  1.00  0.00    -0.316 N 
ATOM     19  H2  UNL     1      -3.651 -16.118   7.025  1.00  0.00     0.185 HD
BRANCH  18  20
HETATM   20  N1  UNL     1      -3.930 -14.190   7.692  1.00  0.00    -0.345 N 
ATOM     21  H12 UNL     1      -3.944 -13.237   7.328  1.00  0.00     0.176 HD
ATOM     22  H11 UNL     1      -4.342 -14.380   8.605  1.00  0.00     0.176 HD
ENDBRANCH  18  20
ENDBRANCH   1  17
TORSDOF 4
ENDMDL
