MODEL 1
REMARK VINA RESULT: -5.065823629      0.000      0.000
REMARK  2 active torsions:
REMARK  status: ('A' for Active; 'I' for Inactive)
REMARK       I    between atoms: C1_4  and  N3_6 
REMARK    1  A    between atoms: N3_6  and  S1_8 
REMARK    2  A    between atoms: S1_8  and  C2_11 
ROOT
HETATM    1  S1  UNL     1     -10.986 -11.712   3.559  1.00  0.00     0.299 S 
HETATM    2  O1  UNL     1     -11.612 -11.783   2.186  1.00  0.00    -0.197 OA
HETATM    3  O2  UNL     1     -12.038 -11.457   4.600  1.00  0.00    -0.197 OA
ENDROOT
BRANCH   1   4
HETATM    4  N3  UNL     1     -10.172 -13.168   3.955  1.00  0.00    -0.252 N 
HETATM    5  C1  UNL     1     -10.902 -14.162   4.689  1.00  0.00     0.195 C 
HETATM    6  N1  UNL     1     -10.578 -14.503   5.870  1.00  0.00    -0.373 N 
HETATM    7  N2  UNL     1     -12.014 -14.740   4.011  1.00  0.00    -0.063 NA
ATOM      8  H12 UNL     1     -11.097 -15.209   6.392  1.00  0.00     0.158 HD
ATOM      9  H11 UNL     1      -9.782 -14.089   6.355  1.00  0.00     0.158 HD
ATOM     10  H3  UNL     1      -9.203 -13.322   3.678  1.00  0.00     0.181 HD
ENDBRANCH   1   4
BRANCH   1  11
HETATM   11  C2  UNL     1      -9.877 -10.342   3.538  1.00  0.00     0.256 A 
HETATM   12  N4  UNL     1      -9.964  -9.283   2.726  1.00  0.00    -0.258 N 
HETATM   13  N5  UNL     1      -8.957  -8.486   3.017  1.00  0.00    -0.226 N 
ATOM     14  H4  UNL     1     -10.677  -9.123   2.014  1.00  0.00     0.191 HD
HETATM   15  N6  UNL     1      -8.224  -8.995   3.988  1.00  0.00    -0.226 N 
ATOM     16  H5  UNL     1      -8.769  -7.597   2.555  1.00  0.00     0.210 HD
HETATM   17  N7  UNL     1      -8.797 -10.143   4.305  1.00  0.00    -0.258 N 
ATOM     18  H6  UNL     1      -7.388  -8.587   4.406  1.00  0.00     0.210 HD
ATOM     19  H7  UNL     1      -8.466 -10.783   5.028  1.00  0.00     0.191 HD
ENDBRANCH   1  11
TORSDOF 2
ENDMDL
MODEL 2
REMARK VINA RESULT: -4.584794920      1.728      2.341
REMARK  2 active torsions:
REMARK  status: ('A' for Active; 'I' for Inactive)
REMARK       I    between atoms: C1_4  and  N3_6 
REMARK    1  A    between atoms: N3_6  and  S1_8 
REMARK    2  A    between atoms: S1_8  and  C2_11 
ROOT
HETATM    1  S1  UNL     1     -10.839 -12.351   3.670  1.00  0.00     0.299 S 
HETATM    2  O1  UNL     1     -12.032 -12.128   4.570  1.00  0.00    -0.197 OA
HETATM    3  O2  UNL     1      -9.881 -13.319   4.302  1.00  0.00    -0.197 OA
ENDROOT
BRANCH   1   4
HETATM    4  N3  UNL     1     -11.310 -12.971   2.143  1.00  0.00    -0.252 N 
HETATM    5  C1  UNL     1     -11.198 -14.387   1.936  1.00  0.00     0.195 C 
HETATM    6  N1  UNL     1     -10.395 -14.884   1.085  1.00  0.00    -0.373 N 
HETATM    7  N2  UNL     1     -12.045 -15.200   2.744  1.00  0.00    -0.063 NA
ATOM      8  H12 UNL     1     -10.315 -15.890   0.938  1.00  0.00     0.158 HD
ATOM      9  H11 UNL     1      -9.789 -14.302   0.506  1.00  0.00     0.158 HD
ATOM     10  H3  UNL     1     -11.657 -12.356   1.408  1.00  0.00     0.181 HD
ENDBRANCH   1   4
BRANCH   1  11
HETATM   11  C2  UNL     1     -10.032 -10.792   3.507  1.00  0.00     0.256 A 
HETATM   12  N4  UNL     1      -9.019 -10.357   4.264  1.00  0.00    -0.258 N 
HETATM   13  N5  UNL     1      -8.699  -9.155   3.833  1.00  0.00    -0.226 N 
ATOM     14  H4  UNL     1      -8.576 -10.863   5.031  1.00  0.00     0.191 HD
HETATM   15  N6  UNL     1      -9.471  -8.799   2.825  1.00  0.00    -0.226 N 
ATOM     16  H5  UNL     1      -7.956  -8.578   4.225  1.00  0.00     0.210 HD
HETATM   17  N7  UNL     1     -10.294  -9.814   2.629  1.00  0.00    -0.258 N 
ATOM     18  H6  UNL     1      -9.440  -7.922   2.305  1.00  0.00     0.210 HD
ATOM     19  H7  UNL     1     -11.022  -9.849   1.914  1.00  0.00     0.191 HD
ENDBRANCH   1  11
TORSDOF 2
ENDMDL
MODEL 3
REMARK VINA RESULT: -4.380295499     10.401     11.083
REMARK  2 active torsions:
REMARK  status: ('A' for Active; 'I' for Inactive)
REMARK       I    between atoms: C1_4  and  N3_6 
REMARK    1  A    between atoms: N3_6  and  S1_8 
REMARK    2  A    between atoms: S1_8  and  C2_11 
ROOT
HETATM    1  S1  UNL     1      -1.359 -16.361   4.067  1.00  0.00     0.299 S 
HETATM    2  O1  UNL     1      -1.358 -16.619   2.578  1.00  0.00    -0.197 OA
HETATM    3  O2  UNL     1      -1.222 -14.892   4.342  1.00  0.00    -0.197 OA
ENDROOT
BRANCH   1   4
HETATM    4  N3  UNL     1      -2.803 -16.920   4.802  1.00  0.00    -0.252 N 
HETATM    5  C1  UNL     1      -3.873 -15.979   4.968  1.00  0.00     0.195 C 
HETATM    6  N1  UNL     1      -4.281 -15.615   6.116  1.00  0.00    -0.373 N 
HETATM    7  N2  UNL     1      -4.450 -15.478   3.765  1.00  0.00    -0.063 NA
ATOM      8  H12 UNL     1      -5.041 -14.946   6.235  1.00  0.00     0.158 HD
ATOM      9  H11 UNL     1      -3.868 -15.973   6.977  1.00  0.00     0.158 HD
ATOM     10  H3  UNL     1      -2.898 -17.887   5.110  1.00  0.00     0.181 HD
ENDBRANCH   1   4
BRANCH   1  11
HETATM   11  C2  UNL     1       0.055 -17.186   4.721  1.00  0.00     0.256 A 
HETATM   12  N4  UNL     1       0.124 -18.486   5.030  1.00  0.00    -0.258 N 
HETATM   13  N5  UNL     1       1.338 -18.713   5.487  1.00  0.00    -0.226 N 
ATOM     14  H4  UNL     1      -0.623 -19.173   4.930  1.00  0.00     0.191 HD
HETATM   15  N6  UNL     1       2.054 -17.605   5.484  1.00  0.00    -0.226 N 
ATOM     16  H5  UNL     1       1.679 -19.621   5.801  1.00  0.00     0.210 HD
HETATM   17  N7  UNL     1       1.255 -16.664   5.010  1.00  0.00    -0.258 N 
ATOM     18  H6  UNL     1       3.022 -17.497   5.784  1.00  0.00     0.210 HD
ATOM     19  H7  UNL     1       1.514 -15.685   4.883  1.00  0.00     0.191 HD
ENDBRANCH   1  11
TORSDOF 2
ENDMDL
MODEL 4
REMARK VINA RESULT: -4.347966716      8.931      9.950
REMARK  2 active torsions:
REMARK  status: ('A' for Active; 'I' for Inactive)
REMARK       I    between atoms: C1_4  and  N3_6 
REMARK    1  A    between atoms: N3_6  and  S1_8 
REMARK    2  A    between atoms: S1_8  and  C2_11 
ROOT
HETATM    1  S1  UNL     1      -2.782 -15.214   6.118  1.00  0.00     0.299 S 
HETATM    2  O1  UNL     1      -3.983 -15.211   5.201  1.00  0.00    -0.197 OA
HETATM    3  O2  UNL     1      -1.860 -14.079   5.775  1.00  0.00    -0.197 OA
ENDROOT
BRANCH   1   4
HETATM    4  N3  UNL     1      -3.244 -15.060   7.761  1.00  0.00    -0.252 N 
HETATM    5  C1  UNL     1      -4.531 -15.570   8.142  1.00  0.00     0.195 C 
HETATM    6  N1  UNL     1      -5.463 -14.811   8.557  1.00  0.00    -0.373 N 
HETATM    7  N2  UNL     1      -4.697 -16.980   8.026  1.00  0.00    -0.063 NA
ATOM      8  H12 UNL     1      -6.377 -15.173   8.827  1.00  0.00     0.158 HD
ATOM      9  H11 UNL     1      -5.344 -13.801   8.640  1.00  0.00     0.158 HD
ATOM     10  H3  UNL     1      -2.627 -14.621   8.444  1.00  0.00     0.181 HD
ENDBRANCH   1   4
BRANCH   1  11
HETATM   11  C2  UNL     1      -1.933 -16.731   5.830  1.00  0.00     0.256 A 
HETATM   12  N4  UNL     1      -2.395 -17.951   6.126  1.00  0.00    -0.258 N 
HETATM   13  N5  UNL     1      -1.472 -18.816   5.761  1.00  0.00    -0.226 N 
ATOM     14  H4  UNL     1      -3.295 -18.169   6.554  1.00  0.00     0.191 HD
HETATM   15  N6  UNL     1      -0.431 -18.197   5.240  1.00  0.00    -0.226 N 
ATOM     16  H5  UNL     1      -1.552 -19.827   5.866  1.00  0.00     0.210 HD
HETATM   17  N7  UNL     1      -0.721 -16.908   5.286  1.00  0.00    -0.258 N 
ATOM     18  H6  UNL     1       0.421 -18.624   4.877  1.00  0.00     0.210 HD
ATOM     19  H7  UNL     1      -0.112 -16.159   4.956  1.00  0.00     0.191 HD
ENDBRANCH   1  11
TORSDOF 2
ENDMDL
MODEL 5
REMARK VINA RESULT: -4.278626104      1.829      2.602
REMARK  2 active torsions:
REMARK  status: ('A' for Active; 'I' for Inactive)
REMARK       I    between atoms: C1_4  and  N3_6 
REMARK    1  A    between atoms: N3_6  and  S1_8 
REMARK    2  A    between atoms: S1_8  and  C2_11 
ROOT
HETATM    1  S1  UNL     1     -10.790 -10.837   3.501  1.00  0.00     0.299 S 
HETATM    2  O1  UNL     1     -11.743 -10.380   4.580  1.00  0.00    -0.197 OA
HETATM    3  O2  UNL     1      -9.394 -10.940   4.046  1.00  0.00    -0.197 OA
ENDROOT
BRANCH   1   4
HETATM    4  N3  UNL     1     -11.241 -12.366   2.870  1.00  0.00    -0.252 N 
HETATM    5  C1  UNL     1     -10.808 -13.535   3.581  1.00  0.00     0.195 C 
HETATM    6  N1  UNL     1      -9.993 -14.370   3.076  1.00  0.00    -0.373 N 
HETATM    7  N2  UNL     1     -11.348 -13.699   4.890  1.00  0.00    -0.063 NA
ATOM      8  H12 UNL     1      -9.685 -15.200   3.582  1.00  0.00     0.158 HD
ATOM      9  H11 UNL     1      -9.606 -14.252   2.140  1.00  0.00     0.158 HD
ATOM     10  H3  UNL     1     -11.797 -12.442   2.019  1.00  0.00     0.181 HD
ENDBRANCH   1   4
BRANCH   1  11
HETATM   11  C2  UNL     1     -10.811  -9.595   2.250  1.00  0.00     0.256 A 
HETATM   12  N4  UNL     1     -10.040  -8.502   2.226  1.00  0.00    -0.258 N 
HETATM   13  N5  UNL     1     -10.354  -7.830   1.138  1.00  0.00    -0.226 N 
ATOM     14  H4  UNL     1      -9.340  -8.239   2.920  1.00  0.00     0.191 HD
HETATM   15  N6  UNL     1     -11.300  -8.451   0.461  1.00  0.00    -0.226 N 
ATOM     16  H5  UNL     1      -9.924  -6.949   0.857  1.00  0.00     0.210 HD
HETATM   17  N7  UNL     1     -11.579  -9.541   1.153  1.00  0.00    -0.258 N 
ATOM     18  H6  UNL     1     -11.727  -8.152  -0.416  1.00  0.00     0.210 HD
ATOM     19  H7  UNL     1     -12.276 -10.239   0.892  1.00  0.00     0.191 HD
ENDBRANCH   1  11
TORSDOF 2
ENDMDL
