MODEL 1
REMARK VINA RESULT: -8.327083317      0.000      0.000
REMARK  8 active torsions:
REMARK  status: ('A' for Active; 'I' for Inactive)
REMARK    1  A    between atoms: C2_2  and  N1_3 
REMARK    2  A    between atoms: C2_2  and  N2_7 
REMARK    3  A    between atoms: C3_8  and  N3_9 
REMARK    4  A    between atoms: C6_17  and  N6_18 
REMARK    5  A    between atoms: N6_18  and  N7_20 
REMARK    6  A    between atoms: N7_20  and  S1_22 
REMARK    7  A    between atoms: S1_22  and  C7_25 
REMARK    8  A    between atoms: C10_28  and  N8_29 
ROOT
HETATM    1  N2  UNL     1     -12.244  63.206  11.678  1.00  0.00    -0.144 N 
HETATM    2  C3  UNL     1     -13.126  63.387  12.678  1.00  0.00     0.684 A 
HETATM    3  N4  UNL     1     -13.556  62.218  13.152  1.00  0.00    -0.170 N 
HETATM    4  C4  UNL     1     -14.511  62.026  14.228  1.00  0.00     0.177 C 
HETATM    5  C5  UNL     1     -12.962  61.249  12.468  1.00  0.00     0.171 A 
HETATM    6  N5  UNL     1     -13.063  59.902  12.564  1.00  0.00    -0.172 N 
ATOM      7  H5  UNL     1     -13.675  59.466  13.253  1.00  0.00     0.186 HD
HETATM    8  C6  UNL     1     -12.328  59.163  11.724  1.00  0.00     0.702 A 
HETATM    9  N9  UNL     1     -11.510  59.707  10.806  1.00  0.00    -0.153 N 
ATOM     10  H9  UNL     1     -10.966  59.107  10.185  1.00  0.00     0.187 HD
HETATM   11  C13 UNL     1     -11.412  61.045  10.712  1.00  0.00     0.291 A 
HETATM   12  O5  UNL     1     -10.635  61.553   9.839  1.00  0.00    -0.265 OA
HETATM   13  C14 UNL     1     -12.142  61.865  11.547  1.00  0.00     0.167 A 
ENDROOT
BRANCH   8  14
HETATM   14  N6  UNL     1     -12.382  57.862  11.769  1.00  0.00    -0.122 N 
ATOM     15  H6  UNL     1     -13.201  57.389  11.386  1.00  0.00     0.206 HD
BRANCH  14  16
HETATM   16  N7  UNL     1     -11.356  57.094  12.323  1.00  0.00    -0.208 N 
ATOM     17  H7  UNL     1     -11.045  56.257  11.828  1.00  0.00     0.201 HD
BRANCH  16  18
HETATM   18  S1  UNL     1     -10.595  57.509  13.815  1.00  0.00     0.276 S 
HETATM   19  O1  UNL     1     -10.069  56.265  14.436  1.00  0.00    -0.199 OA
HETATM   20  O2  UNL     1     -11.576  58.118  14.775  1.00  0.00    -0.199 OA
BRANCH  18  21
HETATM   21  C7  UNL     1      -9.316  58.671  13.522  1.00  0.00     0.081 A 
HETATM   22  C8  UNL     1      -9.554  60.024  13.720  1.00  0.00     0.028 A 
HETATM   23  C9  UNL     1      -8.537  60.917  13.484  1.00  0.00     0.037 A 
HETATM   24  C10 UNL     1      -7.280  60.478  13.053  1.00  0.00     0.102 A 
HETATM   25  C11 UNL     1      -7.055  59.138  12.861  1.00  0.00     0.037 A 
HETATM   26  C12 UNL     1      -8.077  58.239  13.097  1.00  0.00     0.028 A 
BRANCH  24  27
HETATM   27  N8  UNL     1      -6.258  61.417  12.821  1.00  0.00    -0.116 N 
HETATM   28  O3  UNL     1      -5.075  61.028  12.736  1.00  0.00    -0.532 OA
HETATM   29  O4  UNL     1      -6.576  62.768  12.687  1.00  0.00    -0.532 OA
ENDBRANCH  24  27
ENDBRANCH  18  21
ENDBRANCH  16  18
ENDBRANCH  14  16
ENDBRANCH   8  14
BRANCH   2  30
HETATM   30  N3  UNL     1     -13.486  64.552  13.101  1.00  0.00    -0.234 N 
ATOM     31  H32 UNL     1     -14.182  65.156  12.664  1.00  0.00     0.174 HD
ATOM     32  H31 UNL     1     -13.097  64.989  13.937  1.00  0.00     0.174 HD
ENDBRANCH   2  30
BRANCH   1  33
HETATM   33  C2  UNL     1     -11.545  64.212  10.901  1.00  0.00     0.301 C 
HETATM   34  C1  UNL     1     -10.628  65.050  11.787  1.00  0.00     0.064 C 
BRANCH  33  35
HETATM   35  N1  UNL     1     -12.496  65.029  10.203  1.00  0.00    -0.058 N 
ATOM     36  H13 UNL     1     -12.116  65.955  10.004  1.00  0.00     0.276 HD
ATOM     37  H12 UNL     1     -12.635  64.706   9.245  1.00  0.00     0.276 HD
ATOM     38  H11 UNL     1     -13.380  65.089  10.708  1.00  0.00     0.276 HD
ENDBRANCH  33  35
ENDBRANCH   1  33
TORSDOF 8
ENDMDL
MODEL 2
REMARK VINA RESULT: -8.194708339      3.183      4.992
REMARK  8 active torsions:
REMARK  status: ('A' for Active; 'I' for Inactive)
REMARK    1  A    between atoms: C2_2  and  N1_3 
REMARK    2  A    between atoms: C2_2  and  N2_7 
REMARK    3  A    between atoms: C3_8  and  N3_9 
REMARK    4  A    between atoms: C6_17  and  N6_18 
REMARK    5  A    between atoms: N6_18  and  N7_20 
REMARK    6  A    between atoms: N7_20  and  S1_22 
REMARK    7  A    between atoms: S1_22  and  C7_25 
REMARK    8  A    between atoms: C10_28  and  N8_29 
ROOT
HETATM    1  N2  UNL     1     -16.249  57.838   9.795  1.00  0.00    -0.144 N 
HETATM    2  C3  UNL     1     -16.073  59.155   9.583  1.00  0.00     0.684 A 
HETATM    3  N4  UNL     1     -14.898  59.562  10.062  1.00  0.00    -0.170 N 
HETATM    4  C4  UNL     1     -14.373  60.915  10.012  1.00  0.00     0.177 C 
HETATM    5  C5  UNL     1     -14.283  58.516  10.598  1.00  0.00     0.171 A 
HETATM    6  N5  UNL     1     -13.079  58.409  11.208  1.00  0.00    -0.172 N 
ATOM      7  H5  UNL     1     -12.470  59.219  11.320  1.00  0.00     0.186 HD
HETATM    8  C6  UNL     1     -12.716  57.201  11.658  1.00  0.00     0.702 A 
HETATM    9  N9  UNL     1     -13.495  56.114  11.524  1.00  0.00    -0.153 N 
ATOM     10  H9  UNL     1     -13.180  55.211  11.880  1.00  0.00     0.187 HD
HETATM   11  C13 UNL     1     -14.691  56.222  10.917  1.00  0.00     0.291 A 
HETATM   12  O5  UNL     1     -15.424  55.188  10.795  1.00  0.00    -0.265 OA
HETATM   13  C14 UNL     1     -15.126  57.438  10.431  1.00  0.00     0.167 A 
ENDROOT
BRANCH   8  14
HETATM   14  N6  UNL     1     -11.570  57.035  12.253  1.00  0.00    -0.122 N 
ATOM     15  H6  UNL     1     -10.786  56.659  11.718  1.00  0.00     0.206 HD
BRANCH  14  16
HETATM   16  N7  UNL     1     -11.376  57.355  13.599  1.00  0.00    -0.208 N 
ATOM     17  H7  UNL     1     -11.414  56.608  14.293  1.00  0.00     0.201 HD
BRANCH  16  18
HETATM   18  S1  UNL     1     -11.076  58.970  14.128  1.00  0.00     0.276 S 
HETATM   19  O1  UNL     1     -11.275  59.024  15.601  1.00  0.00    -0.199 OA
HETATM   20  O2  UNL     1     -12.040  59.936  13.502  1.00  0.00    -0.199 OA
BRANCH  18  21
HETATM   21  C7  UNL     1      -9.450  59.445  13.683  1.00  0.00     0.081 A 
HETATM   22  C8  UNL     1      -8.463  58.479  13.538  1.00  0.00     0.028 A 
HETATM   23  C9  UNL     1      -7.195  58.873  13.189  1.00  0.00     0.037 A 
HETATM   24  C10 UNL     1      -6.894  60.224  12.980  1.00  0.00     0.102 A 
HETATM   25  C11 UNL     1      -7.876  61.172  13.125  1.00  0.00     0.037 A 
HETATM   26  C12 UNL     1      -9.152  60.776  13.476  1.00  0.00     0.028 A 
BRANCH  24  27
HETATM   27  N8  UNL     1      -5.586  60.598  12.622  1.00  0.00    -0.116 N 
HETATM   28  O3  UNL     1      -5.328  61.799  12.403  1.00  0.00    -0.532 OA
HETATM   29  O4  UNL     1      -4.592  59.625  12.516  1.00  0.00    -0.532 OA
ENDBRANCH  24  27
ENDBRANCH  18  21
ENDBRANCH  16  18
ENDBRANCH  14  16
ENDBRANCH   8  14
BRANCH   2  30
HETATM   30  N3  UNL     1     -16.946  59.898   8.989  1.00  0.00    -0.234 N 
ATOM     31  H32 UNL     1     -17.031  60.030   7.982  1.00  0.00     0.174 HD
ATOM     32  H31 UNL     1     -17.652  60.439   9.489  1.00  0.00     0.174 HD
ENDBRANCH   2  30
BRANCH   1  33
HETATM   33  C2  UNL     1     -17.383  57.010   9.430  1.00  0.00     0.301 C 
HETATM   34  C1  UNL     1     -18.130  56.527  10.670  1.00  0.00     0.064 C 
BRANCH  33  35
HETATM   35  N1  UNL     1     -16.938  55.912   8.621  1.00  0.00    -0.058 N 
ATOM     36  H13 UNL     1     -17.218  55.017   9.022  1.00  0.00     0.276 HD
ATOM     37  H12 UNL     1     -17.456  55.860   7.743  1.00  0.00     0.276 HD
ATOM     38  H11 UNL     1     -15.932  55.950   8.458  1.00  0.00     0.276 HD
ENDBRANCH  33  35
ENDBRANCH   1  33
TORSDOF 8
ENDMDL
MODEL 3
REMARK VINA RESULT: -8.163918253      3.137      4.977
REMARK  8 active torsions:
REMARK  status: ('A' for Active; 'I' for Inactive)
REMARK    1  A    between atoms: C2_2  and  N1_3 
REMARK    2  A    between atoms: C2_2  and  N2_7 
REMARK    3  A    between atoms: C3_8  and  N3_9 
REMARK    4  A    between atoms: C6_17  and  N6_18 
REMARK    5  A    between atoms: N6_18  and  N7_20 
REMARK    6  A    between atoms: N7_20  and  S1_22 
REMARK    7  A    between atoms: S1_22  and  C7_25 
REMARK    8  A    between atoms: C10_28  and  N8_29 
ROOT
HETATM    1  N2  UNL     1     -16.200  57.552  10.227  1.00  0.00    -0.144 N 
HETATM    2  C3  UNL     1     -16.426  58.780   9.726  1.00  0.00     0.684 A 
HETATM    3  N4  UNL     1     -15.732  59.702  10.392  1.00  0.00    -0.170 N 
HETATM    4  C4  UNL     1     -15.729  61.130  10.131  1.00  0.00     0.177 C 
HETATM    5  C5  UNL     1     -15.037  59.092  11.344  1.00  0.00     0.171 A 
HETATM    6  N5  UNL     1     -14.188  59.581  12.277  1.00  0.00    -0.172 N 
ATOM      7  H5  UNL     1     -13.985  60.579  12.335  1.00  0.00     0.186 HD
HETATM    8  C6  UNL     1     -13.623  58.709  13.122  1.00  0.00     0.702 A 
HETATM    9  N9  UNL     1     -13.869  57.388  13.070  1.00  0.00    -0.153 N 
ATOM     10  H9  UNL     1     -13.417  56.757  13.732  1.00  0.00     0.187 HD
HETATM   11  C13 UNL     1     -14.713  56.904  12.142  1.00  0.00     0.291 A 
HETATM   12  O5  UNL     1     -14.942  55.651  12.099  1.00  0.00    -0.265 OA
HETATM   13  C14 UNL     1     -15.329  57.748  11.242  1.00  0.00     0.167 A 
ENDROOT
BRANCH   8  14
HETATM   14  N6  UNL     1     -12.798  59.120  14.041  1.00  0.00    -0.122 N 
ATOM     15  H6  UNL     1     -12.864  60.084  14.369  1.00  0.00     0.206 HD
BRANCH  14  16
HETATM   16  N7  UNL     1     -11.824  58.285  14.595  1.00  0.00    -0.208 N 
ATOM     17  H7  UNL     1     -11.861  58.079  15.594  1.00  0.00     0.201 HD
BRANCH  16  18
HETATM   18  S1  UNL     1     -10.561  57.588  13.648  1.00  0.00     0.276 S 
HETATM   19  O1  UNL     1     -11.141  57.125  12.360  1.00  0.00    -0.199 OA
HETATM   20  O2  UNL     1      -9.963  56.394  14.333  1.00  0.00    -0.199 OA
BRANCH  18  21
HETATM   21  C7  UNL     1      -9.293  58.771  13.393  1.00  0.00     0.081 A 
HETATM   22  C8  UNL     1      -7.988  58.349  13.179  1.00  0.00     0.028 A 
HETATM   23  C9  UNL     1      -7.010  59.293  12.982  1.00  0.00     0.037 A 
HETATM   24  C10 UNL     1      -7.316  60.659  12.993  1.00  0.00     0.102 A 
HETATM   25  C11 UNL     1      -8.609  61.066  13.205  1.00  0.00     0.037 A 
HETATM   26  C12 UNL     1      -9.594  60.117  13.404  1.00  0.00     0.028 A 
BRANCH  24  27
HETATM   27  N8  UNL     1      -6.293  61.602  12.787  1.00  0.00    -0.116 N 
HETATM   28  O3  UNL     1      -5.119  61.209  12.622  1.00  0.00    -0.532 OA
HETATM   29  O4  UNL     1      -6.598  62.962  12.768  1.00  0.00    -0.532 OA
ENDBRANCH  24  27
ENDBRANCH  18  21
ENDBRANCH  16  18
ENDBRANCH  14  16
ENDBRANCH   8  14
BRANCH   2  30
HETATM   30  N3  UNL     1     -17.217  59.003   8.730  1.00  0.00    -0.234 N 
ATOM     31  H32 UNL     1     -18.161  58.632   8.624  1.00  0.00     0.174 HD
ATOM     32  H31 UNL     1     -16.962  59.589   7.935  1.00  0.00     0.174 HD
ENDBRANCH   2  30
BRANCH   1  33
HETATM   33  C2  UNL     1     -16.757  56.285   9.792  1.00  0.00     0.301 C 
HETATM   34  C1  UNL     1     -16.746  56.177   8.269  1.00  0.00     0.064 C 
BRANCH  33  35
HETATM   35  N1  UNL     1     -18.081  56.132  10.322  1.00  0.00    -0.058 N 
ATOM     36  H13 UNL     1     -18.789  56.409   9.642  1.00  0.00     0.276 HD
ATOM     37  H12 UNL     1     -18.333  55.148  10.420  1.00  0.00     0.276 HD
ATOM     38  H11 UNL     1     -18.193  56.634  11.202  1.00  0.00     0.276 HD
ENDBRANCH  33  35
ENDBRANCH   1  33
TORSDOF 8
ENDMDL
MODEL 4
REMARK VINA RESULT: -8.079407566      3.451      5.358
REMARK  8 active torsions:
REMARK  status: ('A' for Active; 'I' for Inactive)
REMARK    1  A    between atoms: C2_2  and  N1_3 
REMARK    2  A    between atoms: C2_2  and  N2_7 
REMARK    3  A    between atoms: C3_8  and  N3_9 
REMARK    4  A    between atoms: C6_17  and  N6_18 
REMARK    5  A    between atoms: N6_18  and  N7_20 
REMARK    6  A    between atoms: N7_20  and  S1_22 
REMARK    7  A    between atoms: S1_22  and  C7_25 
REMARK    8  A    between atoms: C10_28  and  N8_29 
ROOT
HETATM    1  N2  UNL     1     -16.223  57.287  10.031  1.00  0.00    -0.144 N 
HETATM    2  C3  UNL     1     -16.522  58.562   9.725  1.00  0.00     0.684 A 
HETATM    3  N4  UNL     1     -15.743  59.409  10.397  1.00  0.00    -0.170 N 
HETATM    4  C4  UNL     1     -15.783  60.858  10.320  1.00  0.00     0.177 C 
HETATM    5  C5  UNL     1     -14.919  58.701  11.157  1.00  0.00     0.171 A 
HETATM    6  N5  UNL     1     -13.947  59.089  12.016  1.00  0.00    -0.172 N 
ATOM      7  H5  UNL     1     -13.742  60.075  12.170  1.00  0.00     0.186 HD
HETATM    8  C6  UNL     1     -13.264  58.130  12.656  1.00  0.00     0.702 A 
HETATM    9  N9  UNL     1     -13.510  56.821  12.473  1.00  0.00    -0.153 N 
ATOM     10  H9  UNL     1     -12.966  56.123  12.980  1.00  0.00     0.187 HD
HETATM   11  C13 UNL     1     -14.475  56.438  11.619  1.00  0.00     0.291 A 
HETATM   12  O5  UNL     1     -14.703  55.196  11.452  1.00  0.00    -0.265 OA
HETATM   13  C14 UNL     1     -15.217  57.374  10.929  1.00  0.00     0.167 A 
ENDROOT
BRANCH   8  14
HETATM   14  N6  UNL     1     -12.318  58.441  13.494  1.00  0.00    -0.122 N 
ATOM     15  H6  UNL     1     -12.484  58.318  14.494  1.00  0.00     0.206 HD
BRANCH  14  16
HETATM   16  N7  UNL     1     -11.082  58.938  13.072  1.00  0.00    -0.208 N 
ATOM     17  H7  UNL     1     -10.232  58.458  13.367  1.00  0.00     0.201 HD
BRANCH  16  18
HETATM   18  S1  UNL     1     -10.945  60.335  12.069  1.00  0.00     0.276 S 
HETATM   19  O1  UNL     1     -11.968  61.324  12.499  1.00  0.00    -0.199 OA
HETATM   20  O2  UNL     1     -11.211  60.000  10.630  1.00  0.00    -0.199 OA
BRANCH  18  21
HETATM   21  C7  UNL     1      -9.325  60.993  12.192  1.00  0.00     0.081 A 
HETATM   22  C8  UNL     1      -8.290  60.197  12.663  1.00  0.00     0.028 A 
HETATM   23  C9  UNL     1      -7.028  60.733  12.751  1.00  0.00     0.037 A 
HETATM   24  C10 UNL     1      -6.783  62.059  12.376  1.00  0.00     0.102 A 
HETATM   25  C11 UNL     1      -7.813  62.838  11.913  1.00  0.00     0.037 A 
HETATM   26  C12 UNL     1      -9.082  62.300  11.823  1.00  0.00     0.028 A 
BRANCH  24  27
HETATM   27  N8  UNL     1      -5.480  62.580  12.478  1.00  0.00    -0.116 N 
HETATM   28  O3  UNL     1      -4.833  62.821  11.439  1.00  0.00    -0.532 OA
HETATM   29  O4  UNL     1      -4.927  62.821  13.735  1.00  0.00    -0.532 OA
ENDBRANCH  24  27
ENDBRANCH  18  21
ENDBRANCH  16  18
ENDBRANCH  14  16
ENDBRANCH   8  14
BRANCH   2  30
HETATM   30  N3  UNL     1     -17.447  58.890   8.886  1.00  0.00    -0.234 N 
ATOM     31  H32 UNL     1     -17.750  58.336   8.085  1.00  0.00     0.174 HD
ATOM     32  H31 UNL     1     -17.977  59.760   8.950  1.00  0.00     0.174 HD
ENDBRANCH   2  30
BRANCH   1  33
HETATM   33  C2  UNL     1     -16.831  56.072   9.521  1.00  0.00     0.301 C 
HETATM   34  C1  UNL     1     -16.926  56.104   7.998  1.00  0.00     0.064 C 
BRANCH  33  35
HETATM   35  N1  UNL     1     -18.118  55.886  10.126  1.00  0.00    -0.058 N 
ATOM     36  H13 UNL     1     -18.840  56.415   9.637  1.00  0.00     0.276 HD
ATOM     37  H12 UNL     1     -18.475  54.944   9.964  1.00  0.00     0.276 HD
ATOM     38  H11 UNL     1     -18.101  56.111  11.121  1.00  0.00     0.276 HD
ENDBRANCH  33  35
ENDBRANCH   1  33
TORSDOF 8
ENDMDL
MODEL 5
REMARK VINA RESULT: -8.042952488      2.743      4.764
REMARK  8 active torsions:
REMARK  status: ('A' for Active; 'I' for Inactive)
REMARK    1  A    between atoms: C2_2  and  N1_3 
REMARK    2  A    between atoms: C2_2  and  N2_7 
REMARK    3  A    between atoms: C3_8  and  N3_9 
REMARK    4  A    between atoms: C6_17  and  N6_18 
REMARK    5  A    between atoms: N6_18  and  N7_20 
REMARK    6  A    between atoms: N7_20  and  S1_22 
REMARK    7  A    between atoms: S1_22  and  C7_25 
REMARK    8  A    between atoms: C10_28  and  N8_29 
ROOT
HETATM    1  N2  UNL     1     -13.863  59.830  10.431  1.00  0.00    -0.144 N 
HETATM    2  C3  UNL     1     -15.069  60.257  10.848  1.00  0.00     0.684 A 
HETATM    3  N4  UNL     1     -15.025  61.542  11.197  1.00  0.00    -0.170 N 
HETATM    4  C4  UNL     1     -16.134  62.336  11.694  1.00  0.00     0.177 C 
HETATM    5  C5  UNL     1     -13.786  61.980  11.013  1.00  0.00     0.171 A 
HETATM    6  N5  UNL     1     -13.235  63.200  11.218  1.00  0.00    -0.172 N 
ATOM      7  H5  UNL     1     -13.791  63.978  11.572  1.00  0.00     0.186 HD
HETATM    8  C6  UNL     1     -11.934  63.348  10.937  1.00  0.00     0.702 A 
HETATM    9  N9  UNL     1     -11.175  62.343  10.467  1.00  0.00    -0.153 N 
ATOM     10  H9  UNL     1     -10.187  62.499  10.265  1.00  0.00     0.187 HD
HETATM   11  C13 UNL     1     -11.725  61.133  10.265  1.00  0.00     0.291 A 
HETATM   12  O5  UNL     1     -10.999  60.184   9.820  1.00  0.00    -0.265 OA
HETATM   13  C14 UNL     1     -13.059  60.911  10.534  1.00  0.00     0.167 A 
ENDROOT
BRANCH   8  14
HETATM   14  N6  UNL     1     -11.347  64.497  11.114  1.00  0.00    -0.122 N 
ATOM     15  H6  UNL     1     -11.921  65.337  11.194  1.00  0.00     0.206 HD
BRANCH  14  16
HETATM   16  N7  UNL     1      -9.959  64.619  11.197  1.00  0.00    -0.208 N 
ATOM     17  H7  UNL     1      -9.428  64.798  10.344  1.00  0.00     0.201 HD
BRANCH  16  18
HETATM   18  S1  UNL     1      -9.109  64.478  12.692  1.00  0.00     0.276 S 
HETATM   19  O1  UNL     1     -10.103  64.470  13.798  1.00  0.00    -0.199 OA
HETATM   20  O2  UNL     1      -8.194  65.649  12.911  1.00  0.00    -0.199 OA
BRANCH  18  21
HETATM   21  C7  UNL     1      -8.143  63.016  12.687  1.00  0.00     0.081 A 
HETATM   22  C8  UNL     1      -6.800  63.076  12.340  1.00  0.00     0.028 A 
HETATM   23  C9  UNL     1      -6.062  61.919  12.343  1.00  0.00     0.037 A 
HETATM   24  C10 UNL     1      -6.646  60.694  12.688  1.00  0.00     0.102 A 
HETATM   25  C11 UNL     1      -7.974  60.645  13.030  1.00  0.00     0.037 A 
HETATM   26  C12 UNL     1      -8.718  61.809  13.028  1.00  0.00     0.028 A 
BRANCH  24  27
HETATM   27  N8  UNL     1      -5.864  59.525  12.683  1.00  0.00    -0.116 N 
HETATM   28  O3  UNL     1      -6.425  58.411  12.698  1.00  0.00    -0.532 OA
HETATM   29  O4  UNL     1      -4.472  59.622  12.658  1.00  0.00    -0.532 OA
ENDBRANCH  24  27
ENDBRANCH  18  21
ENDBRANCH  16  18
ENDBRANCH  14  16
ENDBRANCH   8  14
BRANCH   2  30
HETATM   30  N3  UNL     1     -16.112  59.497  10.894  1.00  0.00    -0.234 N 
ATOM     31  H32 UNL     1     -16.467  59.021  11.723  1.00  0.00     0.174 HD
ATOM     32  H31 UNL     1     -16.694  59.297  10.080  1.00  0.00     0.174 HD
ENDBRANCH   2  30
BRANCH   1  33
HETATM   33  C2  UNL     1     -13.487  58.508   9.967  1.00  0.00     0.301 C 
HETATM   34  C1  UNL     1     -12.525  57.838  10.944  1.00  0.00     0.064 C 
BRANCH  33  35
HETATM   35  N1  UNL     1     -12.921  58.601   8.651  1.00  0.00    -0.058 N 
ATOM     36  H13 UNL     1     -12.185  59.306   8.611  1.00  0.00     0.276 HD
ATOM     37  H12 UNL     1     -12.364  57.777   8.425  1.00  0.00     0.276 HD
ATOM     38  H11 UNL     1     -13.639  58.770   7.946  1.00  0.00     0.276 HD
ENDBRANCH  33  35
ENDBRANCH   1  33
TORSDOF 8
ENDMDL
