MODEL 1
REMARK VINA RESULT: -7.511611765      0.000      0.000
REMARK  10 active torsions:
REMARK  status: ('A' for Active; 'I' for Inactive)
REMARK    1  A    between atoms: C2_2  and  N1_3 
REMARK    2  A    between atoms: C3_4  and  C4_5 
REMARK    3  A    between atoms: C4_5  and  N2_6 
REMARK    4  A    between atoms: N2_6  and  N3_8 
REMARK       I    between atoms: N3_8  and  C5_10 
REMARK    5  A    between atoms: C5_10  and  C6_12 
REMARK    6  A    between atoms: C6_12  and  S1_13 
REMARK    7  A    between atoms: S1_13  and  C7_14 
REMARK    8  A    between atoms: C8_19  and  N6_20 
REMARK    9  A    between atoms: C11_31  and  N9_32 
REMARK   10  A    between atoms: C13_38  and  N11_39 
ROOT
HETATM    1  N1  UNL     1      -9.693  60.433  12.725  1.00  0.00    -0.317 N 
HETATM    2  C3  UNL     1     -10.635  59.541  12.412  1.00  0.00     0.127 A 
HETATM    3  N7  UNL     1     -11.754  59.951  11.725  1.00  0.00    -0.335 N 
ATOM      4  H7  UNL     1     -12.465  59.256  11.494  1.00  0.00     0.168 HD
HETATM    5  C9  UNL     1     -11.952  61.201  11.349  1.00  0.00     0.134 A 
HETATM    6  C10 UNL     1     -13.104  61.565  10.654  1.00  0.00     0.288 A 
HETATM    7  O2  UNL     1     -13.920  60.641  10.417  1.00  0.00    -0.265 OA
HETATM    8  N8  UNL     1     -13.245  62.830  10.307  1.00  0.00    -0.154 N 
ATOM      9  H8  UNL     1     -14.087  63.100   9.797  1.00  0.00     0.187 HD
HETATM   10  C11 UNL     1     -12.341  63.780  10.586  1.00  0.00     0.679 A 
HETATM   11  N10 UNL     1     -11.229  63.400  11.262  1.00  0.00    -0.186 N 
ATOM     12  H10 UNL     1     -10.530  64.109  11.482  1.00  0.00     0.184 HD
HETATM   13  C12 UNL     1     -11.004  62.142  11.653  1.00  0.00     0.125 A 
HETATM   14  C13 UNL     1      -9.865  61.745  12.349  1.00  0.00     0.138 A 
ENDROOT
BRANCH   2  15
HETATM   15  C4  UNL     1     -10.488  58.140  12.758  1.00  0.00     0.155 C 
BRANCH  15  16
HETATM   16  N2  UNL     1     -11.249  57.207  12.504  1.00  0.00    -0.306 N 
ATOM     17  H2  UNL     1     -10.798  56.490  11.935  1.00  0.00     0.186 HD
BRANCH  16  18
HETATM   18  N3  UNL     1     -12.519  56.897  12.788  1.00  0.00    -0.270 N 
HETATM   19  C5  UNL     1     -13.522  56.979  11.739  1.00  0.00     0.245 C 
HETATM   20  O1  UNL     1     -13.178  57.335  10.596  1.00  0.00    -0.271 OA
ATOM     21  H3  UNL     1     -12.780  56.606  13.730  1.00  0.00     0.190 HD
BRANCH  19  22
HETATM   22  C6  UNL     1     -14.912  56.637  12.068  1.00  0.00     0.186 C 
BRANCH  22  23
HETATM   23  S1  UNL     1     -15.798  56.068  10.594  1.00  0.00    -0.094 SA
BRANCH  23  24
HETATM   24  C7  UNL     1     -16.368  57.535   9.700  1.00  0.00     0.130 A 
HETATM   25  N4  UNL     1     -16.490  58.780  10.132  1.00  0.00    -0.286 N 
HETATM   26  N5  UNL     1     -16.912  59.690   9.357  1.00  0.00    -0.279 N 
ATOM     27  H4  UNL     1     -16.243  59.008  11.095  1.00  0.00     0.188 HD
HETATM   28  C8  UNL     1     -17.230  59.366   8.099  1.00  0.00     0.159 A 
ATOM     29  H5  UNL     1     -17.007  60.650   9.687  1.00  0.00     0.189 HD
HETATM   30  S2  UNL     1     -16.894  57.690   8.077  1.00  0.00    -0.027 SA
BRANCH  28  31
HETATM   31  N6  UNL     1     -17.680  60.167   7.158  1.00  0.00    -0.379 N 
ATOM     32  H62 UNL     1     -18.379  60.909   7.191  1.00  0.00     0.158 HD
ATOM     33  H61 UNL     1     -17.398  60.191   6.178  1.00  0.00     0.158 HD
ENDBRANCH  28  31
ENDBRANCH  23  24
ENDBRANCH  22  23
ENDBRANCH  19  22
ENDBRANCH  16  18
ENDBRANCH  15  16
ENDBRANCH   2  15
BRANCH   1  34
HETATM   34  C2  UNL     1      -8.527  60.100  13.448  1.00  0.00     0.128 C 
HETATM   35  C1  UNL     1      -7.370  59.572  12.665  1.00  0.00     0.027 C 
ENDBRANCH   1  34
BRANCH  14  36
HETATM   36  N11 UNL     1      -8.984  62.510  12.655  1.00  0.00    -0.360 N 
HETATM   37  C14 UNL     1      -7.950  63.358  12.379  1.00  0.00     0.120 C 
ATOM     38  H11 UNL     1      -9.045  62.539  13.673  1.00  0.00     0.165 HD
ENDBRANCH  14  36
BRANCH  10  39
HETATM   39  N9  UNL     1     -12.508  65.025  10.228  1.00  0.00    -0.234 N 
ATOM     40  H92 UNL     1     -13.437  65.378   9.998  1.00  0.00     0.174 HD
ATOM     41  H91 UNL     1     -11.730  65.681  10.167  1.00  0.00     0.174 HD
ENDBRANCH  10  39
TORSDOF 10
ENDMDL
MODEL 2
REMARK VINA RESULT: -7.405282610      2.597      4.711
REMARK  10 active torsions:
REMARK  status: ('A' for Active; 'I' for Inactive)
REMARK    1  A    between atoms: C2_2  and  N1_3 
REMARK    2  A    between atoms: C3_4  and  C4_5 
REMARK    3  A    between atoms: C4_5  and  N2_6 
REMARK    4  A    between atoms: N2_6  and  N3_8 
REMARK       I    between atoms: N3_8  and  C5_10 
REMARK    5  A    between atoms: C5_10  and  C6_12 
REMARK    6  A    between atoms: C6_12  and  S1_13 
REMARK    7  A    between atoms: S1_13  and  C7_14 
REMARK    8  A    between atoms: C8_19  and  N6_20 
REMARK    9  A    between atoms: C11_31  and  N9_32 
REMARK   10  A    between atoms: C13_38  and  N11_39 
ROOT
HETATM    1  N1  UNL     1     -10.624  60.049  13.375  1.00  0.00    -0.317 N 
HETATM    2  C3  UNL     1     -10.197  58.787  13.299  1.00  0.00     0.127 A 
HETATM    3  N7  UNL     1      -8.858  58.534  13.109  1.00  0.00    -0.335 N 
ATOM      4  H7  UNL     1      -8.550  57.563  13.053  1.00  0.00     0.168 HD
HETATM    5  C9  UNL     1      -7.954  59.489  12.995  1.00  0.00     0.134 A 
HETATM    6  C10 UNL     1      -6.608  59.180  12.802  1.00  0.00     0.288 A 
HETATM    7  O2  UNL     1      -6.326  57.959  12.746  1.00  0.00    -0.265 OA
HETATM    8  N8  UNL     1      -5.753  60.178  12.696  1.00  0.00    -0.154 N 
ATOM      9  H8  UNL     1      -4.767  59.956  12.555  1.00  0.00     0.187 HD
HETATM   10  C11 UNL     1      -6.108  61.469  12.762  1.00  0.00     0.679 A 
HETATM   11  N10 UNL     1      -7.422  61.743  12.950  1.00  0.00    -0.186 N 
ATOM     12  H10 UNL     1      -7.710  62.720  13.005  1.00  0.00     0.184 HD
HETATM   13  C12 UNL     1      -8.357  60.797  13.069  1.00  0.00     0.125 A 
HETATM   14  C13 UNL     1      -9.709  61.070  13.261  1.00  0.00     0.138 A 
ENDROOT
BRANCH   2  15
HETATM   15  C4  UNL     1     -11.116  57.673  13.444  1.00  0.00     0.155 C 
BRANCH  15  16
HETATM   16  N2  UNL     1     -11.584  56.951  12.566  1.00  0.00    -0.306 N 
ATOM     17  H2  UNL     1     -11.382  55.964  12.735  1.00  0.00     0.186 HD
BRANCH  16  18
HETATM   18  N3  UNL     1     -12.292  57.133  11.446  1.00  0.00    -0.270 N 
HETATM   19  C5  UNL     1     -13.698  57.486  11.543  1.00  0.00     0.245 C 
HETATM   20  O1  UNL     1     -14.217  57.614  12.669  1.00  0.00    -0.271 OA
ATOM     21  H3  UNL     1     -11.849  57.026  10.534  1.00  0.00     0.190 HD
BRANCH  19  22
HETATM   22  C6  UNL     1     -14.462  57.681  10.303  1.00  0.00     0.186 C 
BRANCH  22  23
HETATM   23  S1  UNL     1     -13.431  58.458   9.031  1.00  0.00    -0.094 SA
BRANCH  23  24
HETATM   24  C7  UNL     1     -12.987  60.109   9.622  1.00  0.00     0.130 A 
HETATM   25  N4  UNL     1     -11.790  60.665   9.724  1.00  0.00    -0.286 N 
HETATM   26  N5  UNL     1     -11.666  61.846  10.166  1.00  0.00    -0.279 N 
ATOM     27  H4  UNL     1     -10.962  60.139   9.444  1.00  0.00     0.188 HD
HETATM   28  C8  UNL     1     -12.767  62.516  10.527  1.00  0.00     0.159 A 
ATOM     29  H5  UNL     1     -10.746  62.278  10.245  1.00  0.00     0.189 HD
HETATM   30  S2  UNL     1     -13.992  61.370  10.201  1.00  0.00    -0.027 SA
BRANCH  28  31
HETATM   31  N6  UNL     1     -12.835  63.739  11.004  1.00  0.00    -0.379 N 
ATOM     32  H62 UNL     1     -12.329  64.189  11.766  1.00  0.00     0.158 HD
ATOM     33  H61 UNL     1     -13.438  64.497  10.681  1.00  0.00     0.158 HD
ENDBRANCH  28  31
ENDBRANCH  23  24
ENDBRANCH  22  23
ENDBRANCH  19  22
ENDBRANCH  16  18
ENDBRANCH  15  16
ENDBRANCH   2  15
BRANCH   1  34
HETATM   34  C2  UNL     1     -11.982  60.394  13.546  1.00  0.00     0.128 C 
HETATM   35  C1  UNL     1     -12.494  60.467  14.947  1.00  0.00     0.027 C 
ENDBRANCH   1  34
BRANCH  14  36
HETATM   36  N11 UNL     1     -10.146  62.192  13.338  1.00  0.00    -0.360 N 
HETATM   37  C14 UNL     1     -10.092  63.542  13.140  1.00  0.00     0.120 C 
ATOM     38  H11 UNL     1     -11.044  62.061  13.804  1.00  0.00     0.165 HD
ENDBRANCH  14  36
BRANCH  10  39
HETATM   39  N9  UNL     1      -5.236  62.436  12.653  1.00  0.00    -0.234 N 
ATOM     40  H92 UNL     1      -4.575  62.454  11.877  1.00  0.00     0.174 HD
ATOM     41  H91 UNL     1      -5.185  63.199  13.328  1.00  0.00     0.174 HD
ENDBRANCH  10  39
TORSDOF 10
ENDMDL
MODEL 3
REMARK VINA RESULT: -7.236091675      2.885      5.556
REMARK  10 active torsions:
REMARK  status: ('A' for Active; 'I' for Inactive)
REMARK    1  A    between atoms: C2_2  and  N1_3 
REMARK    2  A    between atoms: C3_4  and  C4_5 
REMARK    3  A    between atoms: C4_5  and  N2_6 
REMARK    4  A    between atoms: N2_6  and  N3_8 
REMARK       I    between atoms: N3_8  and  C5_10 
REMARK    5  A    between atoms: C5_10  and  C6_12 
REMARK    6  A    between atoms: C6_12  and  S1_13 
REMARK    7  A    between atoms: S1_13  and  C7_14 
REMARK    8  A    between atoms: C8_19  and  N6_20 
REMARK    9  A    between atoms: C11_31  and  N9_32 
REMARK   10  A    between atoms: C13_38  and  N11_39 
ROOT
HETATM    1  N1  UNL     1      -9.988  59.657  12.356  1.00  0.00    -0.317 N 
HETATM    2  C3  UNL     1     -10.358  60.401  11.312  1.00  0.00     0.127 A 
HETATM    3  N7  UNL     1     -11.460  60.035  10.575  1.00  0.00    -0.335 N 
ATOM      4  H7  UNL     1     -11.729  60.615   9.780  1.00  0.00     0.168 HD
HETATM    5  C9  UNL     1     -12.188  58.968  10.848  1.00  0.00     0.134 A 
HETATM    6  C10 UNL     1     -13.297  58.639  10.070  1.00  0.00     0.288 A 
HETATM    7  O2  UNL     1     -13.547  59.413   9.114  1.00  0.00    -0.265 OA
HETATM    8  N8  UNL     1     -13.983  57.561  10.393  1.00  0.00    -0.154 N 
ATOM      9  H8  UNL     1     -14.796  57.318   9.826  1.00  0.00     0.187 HD
HETATM   10  C11 UNL     1     -13.671  56.766  11.427  1.00  0.00     0.679 A 
HETATM   11  N10 UNL     1     -12.590  57.108  12.169  1.00  0.00    -0.186 N 
ATOM     12  H10 UNL     1     -12.339  56.516  12.960  1.00  0.00     0.184 HD
HETATM   13  C12 UNL     1     -11.837  58.181  11.914  1.00  0.00     0.125 A 
HETATM   14  C13 UNL     1     -10.723  58.537  12.671  1.00  0.00     0.138 A 
ENDROOT
BRANCH   2  15
HETATM   15  C4  UNL     1      -9.636  61.609  10.956  1.00  0.00     0.155 C 
BRANCH  15  16
HETATM   16  N2  UNL     1     -10.006  62.777  11.056  1.00  0.00    -0.306 N 
ATOM     17  H2  UNL     1      -9.877  63.294  10.186  1.00  0.00     0.186 HD
BRANCH  16  18
HETATM   18  N3  UNL     1     -10.537  63.539  12.018  1.00  0.00    -0.270 N 
HETATM   19  C5  UNL     1     -11.530  64.540  11.666  1.00  0.00     0.245 C 
HETATM   20  O1  UNL     1     -11.869  64.666  10.473  1.00  0.00    -0.271 OA
ATOM     21  H3  UNL     1     -10.248  63.419  12.989  1.00  0.00     0.190 HD
BRANCH  19  22
HETATM   22  C6  UNL     1     -12.102  65.370  12.734  1.00  0.00     0.186 C 
BRANCH  22  23
HETATM   23  S1  UNL     1     -13.170  64.382  13.813  1.00  0.00    -0.094 SA
BRANCH  23  24
HETATM   24  C7  UNL     1     -14.288  63.433  12.752  1.00  0.00     0.130 A 
HETATM   25  N4  UNL     1     -15.491  63.758  12.306  1.00  0.00    -0.286 N 
HETATM   26  N5  UNL     1     -16.138  62.959  11.565  1.00  0.00    -0.279 N 
ATOM     27  H4  UNL     1     -15.900  64.657  12.560  1.00  0.00     0.188 HD
HETATM   28  C8  UNL     1     -15.581  61.786  11.244  1.00  0.00     0.159 A 
ATOM     29  H5  UNL     1     -17.065  63.206  11.219  1.00  0.00     0.189 HD
HETATM   30  S2  UNL     1     -14.081  61.880  12.057  1.00  0.00    -0.027 SA
BRANCH  28  31
HETATM   31  N6  UNL     1     -16.096  60.837  10.493  1.00  0.00    -0.379 N 
ATOM     32  H62 UNL     1     -16.307  60.816   9.496  1.00  0.00     0.158 HD
ATOM     33  H61 UNL     1     -16.393  59.907  10.788  1.00  0.00     0.158 HD
ENDBRANCH  28  31
ENDBRANCH  23  24
ENDBRANCH  22  23
ENDBRANCH  19  22
ENDBRANCH  16  18
ENDBRANCH  15  16
ENDBRANCH   2  15
BRANCH   1  34
HETATM   34  C2  UNL     1      -8.857  59.949  13.149  1.00  0.00     0.128 C 
HETATM   35  C1  UNL     1      -7.542  59.421  12.677  1.00  0.00     0.027 C 
ENDBRANCH   1  34
BRANCH  14  36
HETATM   36  N11 UNL     1     -10.348  57.901  13.623  1.00  0.00    -0.360 N 
HETATM   37  C14 UNL     1      -9.893  56.768  14.235  1.00  0.00     0.120 C 
ATOM     38  H11 UNL     1     -10.396  58.574  14.388  1.00  0.00     0.165 HD
ENDBRANCH  14  36
BRANCH  10  39
HETATM   39  N9  UNL     1     -14.372  55.704  11.723  1.00  0.00    -0.234 N 
ATOM     40  H92 UNL     1     -15.294  55.559  11.311  1.00  0.00     0.174 HD
ATOM     41  H91 UNL     1     -14.029  54.989  12.364  1.00  0.00     0.174 HD
ENDBRANCH  10  39
TORSDOF 10
ENDMDL
MODEL 4
REMARK VINA RESULT: -7.179737062      2.355      5.389
REMARK  10 active torsions:
REMARK  status: ('A' for Active; 'I' for Inactive)
REMARK    1  A    between atoms: C2_2  and  N1_3 
REMARK    2  A    between atoms: C3_4  and  C4_5 
REMARK    3  A    between atoms: C4_5  and  N2_6 
REMARK    4  A    between atoms: N2_6  and  N3_8 
REMARK       I    between atoms: N3_8  and  C5_10 
REMARK    5  A    between atoms: C5_10  and  C6_12 
REMARK    6  A    between atoms: C6_12  and  S1_13 
REMARK    7  A    between atoms: S1_13  and  C7_14 
REMARK    8  A    between atoms: C8_19  and  N6_20 
REMARK    9  A    between atoms: C11_31  and  N9_32 
REMARK   10  A    between atoms: C13_38  and  N11_39 
ROOT
HETATM    1  N1  UNL     1     -10.582  63.821  11.688  1.00  0.00    -0.317 N 
HETATM    2  C3  UNL     1     -11.229  62.656  11.620  1.00  0.00     0.127 A 
HETATM    3  N7  UNL     1     -10.546  61.486  11.855  1.00  0.00    -0.335 N 
ATOM      4  H7  UNL     1     -11.056  60.605  11.799  1.00  0.00     0.168 HD
HETATM    5  C9  UNL     1      -9.259  61.449  12.150  1.00  0.00     0.134 A 
HETATM    6  C10 UNL     1      -8.612  60.236  12.379  1.00  0.00     0.288 A 
HETATM    7  O2  UNL     1      -9.324  59.207  12.287  1.00  0.00    -0.265 OA
HETATM    8  N8  UNL     1      -7.326  60.265  12.668  1.00  0.00    -0.154 N 
ATOM      9  H8  UNL     1      -6.849  59.379  12.837  1.00  0.00     0.187 HD
HETATM   10  C11 UNL     1      -6.611  61.396  12.754  1.00  0.00     0.679 A 
HETATM   11  N10 UNL     1      -7.263  62.562  12.528  1.00  0.00    -0.186 N 
ATOM     12  H10 UNL     1      -6.735  63.433  12.590  1.00  0.00     0.184 HD
HETATM   13  C12 UNL     1      -8.563  62.627  12.228  1.00  0.00     0.125 A 
HETATM   14  C13 UNL     1      -9.240  63.822  11.993  1.00  0.00     0.138 A 
ENDROOT
BRANCH   2  15
HETATM   15  C4  UNL     1     -12.651  62.603  11.333  1.00  0.00     0.155 C 
BRANCH  15  16
HETATM   16  N2  UNL     1     -13.216  62.091  10.368  1.00  0.00    -0.306 N 
ATOM     17  H2  UNL     1     -13.373  62.764   9.617  1.00  0.00     0.186 HD
BRANCH  16  18
HETATM   18  N3  UNL     1     -13.675  60.875  10.055  1.00  0.00    -0.270 N 
HETATM   19  C5  UNL     1     -12.794  59.932   9.386  1.00  0.00     0.245 C 
HETATM   20  O1  UNL     1     -11.626  60.276   9.120  1.00  0.00    -0.271 OA
ATOM     21  H3  UNL     1     -14.633  60.611  10.284  1.00  0.00     0.190 HD
BRANCH  19  22
HETATM   22  C6  UNL     1     -13.314  58.601   9.048  1.00  0.00     0.186 C 
BRANCH  22  23
HETATM   23  S1  UNL     1     -14.139  57.853  10.477  1.00  0.00    -0.094 SA
BRANCH  23  24
HETATM   24  C7  UNL     1     -12.949  57.823  11.840  1.00  0.00     0.130 A 
HETATM   25  N4  UNL     1     -11.894  57.041  12.009  1.00  0.00    -0.286 N 
HETATM   26  N5  UNL     1     -11.165  57.161  13.038  1.00  0.00    -0.279 N 
ATOM     27  H4  UNL     1     -11.667  56.337  11.306  1.00  0.00     0.188 HD
HETATM   28  C8  UNL     1     -11.482  58.091  13.946  1.00  0.00     0.159 A 
ATOM     29  H5  UNL     1     -10.351  56.561  13.172  1.00  0.00     0.189 HD
HETATM   30  S2  UNL     1     -12.880  58.788  13.253  1.00  0.00    -0.027 SA
BRANCH  28  31
HETATM   31  N6  UNL     1     -10.849  58.360  15.067  1.00  0.00    -0.379 N 
ATOM     32  H62 UNL     1      -9.923  58.752  15.233  1.00  0.00     0.158 HD
ATOM     33  H61 UNL     1     -11.188  58.218  16.018  1.00  0.00     0.158 HD
ENDBRANCH  28  31
ENDBRANCH  23  24
ENDBRANCH  22  23
ENDBRANCH  19  22
ENDBRANCH  16  18
ENDBRANCH  15  16
ENDBRANCH   2  15
BRANCH   1  34
HETATM   34  C2  UNL     1     -11.203  65.064  11.438  1.00  0.00     0.128 C 
HETATM   35  C1  UNL     1     -11.891  65.723  12.589  1.00  0.00     0.027 C 
ENDBRANCH   1  34
BRANCH  14  36
HETATM   36  N11 UNL     1      -8.703  64.900  12.042  1.00  0.00    -0.360 N 
HETATM   37  C14 UNL     1      -8.115  65.945  12.696  1.00  0.00     0.120 C 
ATOM     38  H11 UNL     1      -8.668  65.188  11.065  1.00  0.00     0.165 HD
ENDBRANCH  14  36
BRANCH  10  39
HETATM   39  N9  UNL     1      -5.337  61.392  13.043  1.00  0.00    -0.234 N 
ATOM     40  H92 UNL     1      -4.637  61.323  12.305  1.00  0.00     0.174 HD
ATOM     41  H91 UNL     1      -4.998  61.459  14.003  1.00  0.00     0.174 HD
ENDBRANCH  10  39
TORSDOF 10
ENDMDL
MODEL 5
REMARK VINA RESULT: -7.175148132      3.153      6.243
REMARK  10 active torsions:
REMARK  status: ('A' for Active; 'I' for Inactive)
REMARK    1  A    between atoms: C2_2  and  N1_3 
REMARK    2  A    between atoms: C3_4  and  C4_5 
REMARK    3  A    between atoms: C4_5  and  N2_6 
REMARK    4  A    between atoms: N2_6  and  N3_8 
REMARK       I    between atoms: N3_8  and  C5_10 
REMARK    5  A    between atoms: C5_10  and  C6_12 
REMARK    6  A    between atoms: C6_12  and  S1_13 
REMARK    7  A    between atoms: S1_13  and  C7_14 
REMARK    8  A    between atoms: C8_19  and  N6_20 
REMARK    9  A    between atoms: C11_31  and  N9_32 
REMARK   10  A    between atoms: C13_38  and  N11_39 
ROOT
HETATM    1  N1  UNL     1     -14.600  58.546  10.578  1.00  0.00    -0.317 N 
HETATM    2  C3  UNL     1     -13.485  58.506  11.311  1.00  0.00     0.127 A 
HETATM    3  N7  UNL     1     -13.106  59.616  12.030  1.00  0.00    -0.335 N 
ATOM      4  H7  UNL     1     -12.251  59.567  12.585  1.00  0.00     0.168 HD
HETATM    5  C9  UNL     1     -13.796  60.741  12.037  1.00  0.00     0.134 A 
HETATM    6  C10 UNL     1     -13.369  61.838  12.782  1.00  0.00     0.288 A 
HETATM    7  O2  UNL     1     -12.306  61.682  13.431  1.00  0.00    -0.265 OA
HETATM    8  N8  UNL     1     -14.101  62.934  12.748  1.00  0.00    -0.154 N 
ATOM      9  H8  UNL     1     -13.792  63.739  13.293  1.00  0.00     0.187 HD
HETATM   10  C11 UNL     1     -15.231  63.048  12.036  1.00  0.00     0.679 A 
HETATM   11  N10 UNL     1     -15.626  61.967  11.320  1.00  0.00    -0.186 N 
ATOM     12  H10 UNL     1     -16.484  62.035  10.773  1.00  0.00     0.184 HD
HETATM   13  C12 UNL     1     -14.947  60.817  11.296  1.00  0.00     0.125 A 
HETATM   14  C13 UNL     1     -15.345  59.703  10.561  1.00  0.00     0.138 A 
ENDROOT
BRANCH   2  15
HETATM   15  C4  UNL     1     -12.680  57.301  11.388  1.00  0.00     0.155 C 
BRANCH  15  16
HETATM   16  N2  UNL     1     -11.940  56.935  12.299  1.00  0.00    -0.306 N 
ATOM     17  H2  UNL     1     -12.321  56.133  12.802  1.00  0.00     0.186 HD
BRANCH  16  18
HETATM   18  N3  UNL     1     -10.761  57.324  12.796  1.00  0.00    -0.270 N 
HETATM   19  C5  UNL     1     -10.726  58.070  14.043  1.00  0.00     0.245 C 
HETATM   20  O1  UNL     1     -11.797  58.330  14.625  1.00  0.00    -0.271 OA
ATOM     21  H3  UNL     1      -9.895  57.100  12.306  1.00  0.00     0.190 HD
BRANCH  19  22
HETATM   22  C6  UNL     1      -9.423  58.492  14.575  1.00  0.00     0.186 C 
BRANCH  22  23
HETATM   23  S1  UNL     1      -8.272  58.867  13.227  1.00  0.00    -0.094 SA
BRANCH  23  24
HETATM   24  C7  UNL     1      -8.849  60.381  12.421  1.00  0.00     0.130 A 
HETATM   25  N4  UNL     1      -9.884  60.554  11.615  1.00  0.00    -0.286 N 
HETATM   26  N5  UNL     1     -10.141  61.699  11.137  1.00  0.00    -0.279 N 
ATOM     27  H4  UNL     1     -10.479  59.760  11.377  1.00  0.00     0.188 HD
HETATM   28  C8  UNL     1      -9.346  62.724  11.463  1.00  0.00     0.159 A 
ATOM     29  H5  UNL     1     -10.938  61.836  10.515  1.00  0.00     0.189 HD
HETATM   30  S2  UNL     1      -8.210  61.969  12.492  1.00  0.00    -0.027 SA
BRANCH  28  31
HETATM   31  N6  UNL     1      -9.454  63.974  11.068  1.00  0.00    -0.379 N 
ATOM     32  H62 UNL     1      -9.821  64.373  10.205  1.00  0.00     0.158 HD
ATOM     33  H61 UNL     1      -9.175  64.811  11.580  1.00  0.00     0.158 HD
ENDBRANCH  28  31
ENDBRANCH  23  24
ENDBRANCH  22  23
ENDBRANCH  19  22
ENDBRANCH  16  18
ENDBRANCH  15  16
ENDBRANCH   2  15
BRANCH   1  34
HETATM   34  C2  UNL     1     -15.046  57.461   9.794  1.00  0.00     0.128 C 
HETATM   35  C1  UNL     1     -15.930  56.459  10.462  1.00  0.00     0.027 C 
ENDBRANCH   1  34
BRANCH  14  36
HETATM   36  N11 UNL     1     -16.343  59.687   9.885  1.00  0.00    -0.360 N 
HETATM   37  C14 UNL     1     -17.025  59.808   8.708  1.00  0.00     0.120 C 
ATOM     38  H11 UNL     1     -17.076  59.461  10.556  1.00  0.00     0.165 HD
ENDBRANCH  14  36
BRANCH  10  39
HETATM   39  N9  UNL     1     -15.936  64.148  12.022  1.00  0.00    -0.234 N 
ATOM     40  H92 UNL     1     -15.477  65.059  12.023  1.00  0.00     0.174 HD
ATOM     41  H91 UNL     1     -16.956  64.139  12.009  1.00  0.00     0.174 HD
ENDBRANCH  10  39
TORSDOF 10
ENDMDL
