MODEL 1
REMARK VINA RESULT: -7.087082232      0.000      0.000
REMARK  10 active torsions:
REMARK  status: ('A' for Active; 'I' for Inactive)
REMARK    1  A    between atoms: O1_2  and  C2_3 
REMARK    2  A    between atoms: C2_3  and  O2_4 
REMARK    3  A    between atoms: C2_3  and  C3_6 
REMARK    4  A    between atoms: C4_7  and  C5_8 
REMARK    5  A    between atoms: C7_14  and  C8_15 
REMARK       I    between atoms: C8_15  and  N2_17 
REMARK    6  A    between atoms: N2_17  and  C9_18 
REMARK    7  A    between atoms: C9_18  and  C10_19 
REMARK    8  A    between atoms: C9_18  and  C11_22 
REMARK    9  A    between atoms: C13_28  and  N4_29 
REMARK   10  A    between atoms: N4_29  and  C14_31 
ROOT
HETATM    1  C3  UNL     1     -13.219  58.704  10.627  1.00  0.00     0.100 A 
HETATM    2  C4  UNL     1     -13.007  57.832  11.606  1.00  0.00     0.133 A 
HETATM    3  N1  UNL     1     -11.862  57.940  12.535  1.00  0.00    -0.316 N 
HETATM    4  C6  UNL     1     -11.579  57.079  13.630  1.00  0.00     0.210 C 
HETATM    5  S1  UNL     1      -9.763  57.401  13.849  1.00  0.00    -0.099 SA
HETATM    6  C7  UNL     1      -9.824  58.949  12.982  1.00  0.00     0.128 C 
HETATM    7  C12 UNL     1     -10.983  58.984  12.383  1.00  0.00     0.134 A 
HETATM    8  N3  UNL     1     -11.251  59.942  11.309  1.00  0.00    -0.326 N 
ATOM      9  H3  UNL     1     -10.621  60.736  11.187  1.00  0.00     0.169 HD
HETATM   10  C13 UNL     1     -12.242  59.815  10.525  1.00  0.00     0.125 A 
ENDROOT
BRANCH   6  11
HETATM   11  C8  UNL     1      -8.811  60.001  13.153  1.00  0.00     0.333 C 
HETATM   12  O5  UNL     1      -7.649  59.570  13.529  1.00  0.00    -0.251 OA
HETATM   13  N2  UNL     1      -9.094  61.316  12.948  1.00  0.00    -0.383 NA
BRANCH  13  14
HETATM   14  C9  UNL     1      -9.382  62.649  12.742  1.00  0.00     0.367 C 
BRANCH  14  15
HETATM   15  C10 UNL     1      -9.370  63.082  11.351  1.00  0.00     0.221 C 
HETATM   16  O6  UNL     1      -9.014  64.269  10.965  1.00  0.00    -0.645 OA
HETATM   17  O7  UNL     1      -9.754  62.218  10.315  1.00  0.00    -0.645 OA
ENDBRANCH  14  15
BRANCH  14  18
HETATM   18  C11 UNL     1     -10.630  63.092  13.468  1.00  0.00     0.221 C 
HETATM   19  O8  UNL     1     -11.692  62.381  13.050  1.00  0.00    -0.645 OA
HETATM   20  O9  UNL     1     -10.872  64.005  14.378  1.00  0.00    -0.645 OA
ENDBRANCH  14  18
ENDBRANCH  13  14
ENDBRANCH   6  11
BRANCH   2  21
HETATM   21  C5  UNL     1     -13.881  56.707  11.768  1.00  0.00     0.228 C 
HETATM   22  O3  UNL     1     -13.717  55.582  11.264  1.00  0.00    -0.643 OA
HETATM   23  O4  UNL     1     -15.055  56.753  12.534  1.00  0.00    -0.643 OA
ENDBRANCH   2  21
BRANCH  10  24
HETATM   24  N4  UNL     1     -12.387  60.857   9.556  1.00  0.00    -0.338 N 
ATOM     25  H4  UNL     1     -11.915  60.809   8.653  1.00  0.00     0.168 HD
BRANCH  24  26
HETATM   26  C14 UNL     1     -13.211  61.960   9.898  1.00  0.00     0.174 C 
HETATM   27  N5  UNL     1     -12.720  63.084  10.284  1.00  0.00    -0.395 N 
ATOM     28  H52 UNL     1     -11.705  63.168  10.341  1.00  0.00     0.156 HD
ATOM     29  H51 UNL     1     -13.313  63.876  10.530  1.00  0.00     0.156 HD
ENDBRANCH  24  26
ENDBRANCH  10  24
BRANCH   1  30
HETATM   30  C2  UNL     1     -14.227  58.711   9.623  1.00  0.00     0.194 C 
BRANCH  30  31
HETATM   31  O1  UNL     1     -15.537  59.073   9.621  1.00  0.00    -0.335 OA
HETATM   32  C1  UNL     1     -16.626  58.157   9.637  1.00  0.00     0.212 C 
ENDBRANCH  30  31
BRANCH  30  33
HETATM   33  O2  UNL     1     -13.903  58.300   8.432  1.00  0.00    -0.340 OA
ATOM     34  H2  UNL     1     -14.696  58.074   7.959  1.00  0.00     0.220 HD
ENDBRANCH  30  33
ENDBRANCH   1  30
TORSDOF 10
ENDMDL
MODEL 2
REMARK VINA RESULT: -7.080673417      2.234      6.482
REMARK  10 active torsions:
REMARK  status: ('A' for Active; 'I' for Inactive)
REMARK    1  A    between atoms: O1_2  and  C2_3 
REMARK    2  A    between atoms: C2_3  and  O2_4 
REMARK    3  A    between atoms: C2_3  and  C3_6 
REMARK    4  A    between atoms: C4_7  and  C5_8 
REMARK    5  A    between atoms: C7_14  and  C8_15 
REMARK       I    between atoms: C8_15  and  N2_17 
REMARK    6  A    between atoms: N2_17  and  C9_18 
REMARK    7  A    between atoms: C9_18  and  C10_19 
REMARK    8  A    between atoms: C9_18  and  C11_22 
REMARK    9  A    between atoms: C13_28  and  N4_29 
REMARK   10  A    between atoms: N4_29  and  C14_31 
ROOT
HETATM    1  C3  UNL     1      -8.249  62.840  12.681  1.00  0.00     0.100 A 
HETATM    2  C4  UNL     1      -7.343  61.869  12.684  1.00  0.00     0.133 A 
HETATM    3  N1  UNL     1      -7.709  60.438  12.751  1.00  0.00    -0.316 N 
HETATM    4  C6  UNL     1      -6.812  59.335  12.719  1.00  0.00     0.210 C 
HETATM    5  S1  UNL     1      -7.867  58.022  13.500  1.00  0.00    -0.099 SA
HETATM    6  C7  UNL     1      -9.381  58.888  13.163  1.00  0.00     0.128 C 
HETATM    7  C12 UNL     1      -9.037  60.097  12.812  1.00  0.00     0.134 A 
HETATM    8  N3  UNL     1     -10.016  61.184  12.789  1.00  0.00    -0.326 N 
ATOM      9  H3  UNL     1     -11.010  60.955  12.817  1.00  0.00     0.169 HD
HETATM   10  C13 UNL     1      -9.666  62.404  12.736  1.00  0.00     0.125 A 
ENDROOT
BRANCH   6  11
HETATM   11  C8  UNL     1     -10.689  58.217  13.106  1.00  0.00     0.333 C 
HETATM   12  O5  UNL     1     -10.765  57.131  13.806  1.00  0.00    -0.251 OA
HETATM   13  N2  UNL     1     -11.716  58.702  12.358  1.00  0.00    -0.383 NA
BRANCH  13  14
HETATM   14  C9  UNL     1     -12.757  59.194  11.598  1.00  0.00     0.367 C 
BRANCH  14  15
HETATM   15  C10 UNL     1     -13.512  60.282  12.204  1.00  0.00     0.221 C 
HETATM   16  O6  UNL     1     -12.985  61.193  12.965  1.00  0.00    -0.645 OA
HETATM   17  O7  UNL     1     -14.893  60.416  11.998  1.00  0.00    -0.645 OA
ENDBRANCH  14  15
BRANCH  14  18
HETATM   18  C11 UNL     1     -12.343  59.505  10.179  1.00  0.00     0.221 C 
HETATM   19  O8  UNL     1     -11.284  60.333  10.172  1.00  0.00    -0.645 OA
HETATM   20  O9  UNL     1     -12.805  59.152   9.003  1.00  0.00    -0.645 OA
ENDBRANCH  14  18
ENDBRANCH  13  14
ENDBRANCH   6  11
BRANCH   2  21
HETATM   21  C5  UNL     1      -5.946  62.191  12.662  1.00  0.00     0.228 C 
HETATM   22  O3  UNL     1      -5.171  62.120  13.631  1.00  0.00    -0.643 OA
HETATM   23  O4  UNL     1      -5.280  62.636  11.511  1.00  0.00    -0.643 OA
ENDBRANCH   2  21
BRANCH  10  24
HETATM   24  N4  UNL     1     -10.744  63.343  12.679  1.00  0.00    -0.338 N 
ATOM     25  H4  UNL     1     -11.202  63.675  13.528  1.00  0.00     0.168 HD
BRANCH  24  26
HETATM   26  C14 UNL     1     -11.152  63.795  11.398  1.00  0.00     0.174 C 
HETATM   27  N5  UNL     1     -12.078  63.203  10.730  1.00  0.00    -0.395 N 
ATOM     28  H52 UNL     1     -12.522  62.386  11.149  1.00  0.00     0.156 HD
ATOM     29  H51 UNL     1     -12.371  63.528   9.808  1.00  0.00     0.156 HD
ENDBRANCH  24  26
ENDBRANCH  10  24
BRANCH   1  30
HETATM   30  C2  UNL     1      -8.066  64.251  12.680  1.00  0.00     0.194 C 
BRANCH  30  31
HETATM   31  O1  UNL     1      -8.335  65.225  13.588  1.00  0.00    -0.335 OA
HETATM   32  C1  UNL     1      -8.923  66.482  13.270  1.00  0.00     0.212 C 
ENDBRANCH  30  31
BRANCH  30  33
HETATM   33  O2  UNL     1      -7.533  64.795  11.625  1.00  0.00    -0.340 OA
ATOM     34  H2  UNL     1      -8.224  65.178  11.096  1.00  0.00     0.220 HD
ENDBRANCH  30  33
ENDBRANCH   1  30
TORSDOF 10
ENDMDL
MODEL 3
REMARK VINA RESULT: -7.013364782      2.213      6.698
REMARK  10 active torsions:
REMARK  status: ('A' for Active; 'I' for Inactive)
REMARK    1  A    between atoms: O1_2  and  C2_3 
REMARK    2  A    between atoms: C2_3  and  O2_4 
REMARK    3  A    between atoms: C2_3  and  C3_6 
REMARK    4  A    between atoms: C4_7  and  C5_8 
REMARK    5  A    between atoms: C7_14  and  C8_15 
REMARK       I    between atoms: C8_15  and  N2_17 
REMARK    6  A    between atoms: N2_17  and  C9_18 
REMARK    7  A    between atoms: C9_18  and  C10_19 
REMARK    8  A    between atoms: C9_18  and  C11_22 
REMARK    9  A    between atoms: C13_28  and  N4_29 
REMARK   10  A    between atoms: N4_29  and  C14_31 
ROOT
HETATM    1  C3  UNL     1     -10.549  60.742  12.787  1.00  0.00     0.100 A 
HETATM    2  C4  UNL     1     -10.759  59.485  13.161  1.00  0.00     0.133 A 
HETATM    3  N1  UNL     1     -11.554  58.535  12.352  1.00  0.00    -0.316 N 
HETATM    4  C6  UNL     1     -11.795  57.167  12.654  1.00  0.00     0.210 C 
HETATM    5  S1  UNL     1     -13.324  56.866  11.642  1.00  0.00    -0.099 SA
HETATM    6  C7  UNL     1     -13.028  58.263  10.586  1.00  0.00     0.128 C 
HETATM    7  C12 UNL     1     -12.096  58.968  11.168  1.00  0.00     0.134 A 
HETATM    8  N3  UNL     1     -11.835  60.351  10.770  1.00  0.00    -0.326 N 
ATOM      9  H3  UNL     1     -12.214  60.691   9.886  1.00  0.00     0.169 HD
HETATM   10  C13 UNL     1     -11.152  61.142  11.492  1.00  0.00     0.125 A 
ENDROOT
BRANCH   6  11
HETATM   11  C8  UNL     1     -13.613  58.387   9.242  1.00  0.00     0.333 C 
HETATM   12  O5  UNL     1     -12.769  58.716   8.318  1.00  0.00    -0.251 OA
HETATM   13  N2  UNL     1     -14.940  58.188   9.012  1.00  0.00    -0.383 NA
BRANCH  13  14
HETATM   14  C9  UNL     1     -16.285  57.988   8.779  1.00  0.00     0.367 C 
BRANCH  14  15
HETATM   15  C10 UNL     1     -16.672  57.923   7.377  1.00  0.00     0.221 C 
HETATM   16  O6  UNL     1     -17.657  58.596   6.866  1.00  0.00    -0.645 OA
HETATM   17  O7  UNL     1     -15.986  57.104   6.468  1.00  0.00    -0.645 OA
ENDBRANCH  14  15
BRANCH  14  18
HETATM   18  C11 UNL     1     -16.847  56.838   9.583  1.00  0.00     0.221 C 
HETATM   19  O8  UNL     1     -16.939  57.176  10.881  1.00  0.00    -0.645 OA
HETATM   20  O9  UNL     1     -17.233  55.623   9.276  1.00  0.00    -0.645 OA
ENDBRANCH  14  18
ENDBRANCH  13  14
ENDBRANCH   6  11
BRANCH   2  21
HETATM   21  C5  UNL     1     -10.242  59.012  14.412  1.00  0.00     0.228 C 
HETATM   22  O3  UNL     1     -10.853  59.006  15.494  1.00  0.00    -0.643 OA
HETATM   23  O4  UNL     1      -8.948  58.489  14.556  1.00  0.00    -0.643 OA
ENDBRANCH   2  21
BRANCH  10  24
HETATM   24  N4  UNL     1     -10.953  62.448  10.942  1.00  0.00    -0.338 N 
ATOM     25  H4  UNL     1     -10.103  62.682  10.430  1.00  0.00     0.168 HD
BRANCH  24  26
HETATM   26  C14 UNL     1     -11.983  63.403  11.135  1.00  0.00     0.174 C 
HETATM   27  N5  UNL     1     -12.842  63.674  10.217  1.00  0.00    -0.395 N 
ATOM     28  H52 UNL     1     -12.765  63.178   9.329  1.00  0.00     0.156 HD
ATOM     29  H51 UNL     1     -13.582  64.362  10.356  1.00  0.00     0.156 HD
ENDBRANCH  24  26
ENDBRANCH  10  24
BRANCH   1  30
HETATM   30  C2  UNL     1      -9.866  61.788  13.468  1.00  0.00     0.194 C 
BRANCH  30  31
HETATM   31  O1  UNL     1      -8.556  62.135  13.565  1.00  0.00    -0.335 OA
HETATM   32  C1  UNL     1      -7.503  61.521  12.830  1.00  0.00     0.212 C 
ENDBRANCH  30  31
BRANCH  30  33
HETATM   33  O2  UNL     1     -10.576  62.628  14.164  1.00  0.00    -0.340 OA
ATOM     34  H2  UNL     1     -11.413  62.752  13.733  1.00  0.00     0.220 HD
ENDBRANCH  30  33
ENDBRANCH   1  30
TORSDOF 10
ENDMDL
MODEL 4
REMARK VINA RESULT: -7.009838602      2.267      6.735
REMARK  10 active torsions:
REMARK  status: ('A' for Active; 'I' for Inactive)
REMARK    1  A    between atoms: O1_2  and  C2_3 
REMARK    2  A    between atoms: C2_3  and  O2_4 
REMARK    3  A    between atoms: C2_3  and  C3_6 
REMARK    4  A    between atoms: C4_7  and  C5_8 
REMARK    5  A    between atoms: C7_14  and  C8_15 
REMARK       I    between atoms: C8_15  and  N2_17 
REMARK    6  A    between atoms: N2_17  and  C9_18 
REMARK    7  A    between atoms: C9_18  and  C10_19 
REMARK    8  A    between atoms: C9_18  and  C11_22 
REMARK    9  A    between atoms: C13_28  and  N4_29 
REMARK   10  A    between atoms: N4_29  and  C14_31 
ROOT
HETATM    1  C3  UNL     1     -10.731  60.859  12.788  1.00  0.00     0.100 A 
HETATM    2  C4  UNL     1     -10.891  59.588  13.139  1.00  0.00     0.133 A 
HETATM    3  N1  UNL     1     -11.617  58.614  12.297  1.00  0.00    -0.316 N 
HETATM    4  C6  UNL     1     -11.801  57.231  12.574  1.00  0.00     0.210 C 
HETATM    5  S1  UNL     1     -13.285  56.872  11.515  1.00  0.00    -0.099 SA
HETATM    6  C7  UNL     1     -13.027  58.297  10.486  1.00  0.00     0.128 C 
HETATM    7  C12 UNL     1     -12.146  59.036  11.103  1.00  0.00     0.134 A 
HETATM    8  N3  UNL     1     -11.941  60.436  10.731  1.00  0.00    -0.326 N 
ATOM      9  H3  UNL     1     -12.310  60.770   9.840  1.00  0.00     0.169 HD
HETATM   10  C13 UNL     1     -11.316  61.248  11.482  1.00  0.00     0.125 A 
ENDROOT
BRANCH   6  11
HETATM   11  C8  UNL     1     -13.580  58.412   9.128  1.00  0.00     0.333 C 
HETATM   12  O5  UNL     1     -12.727  58.795   8.232  1.00  0.00    -0.251 OA
HETATM   13  N2  UNL     1     -14.888  58.152   8.857  1.00  0.00    -0.383 NA
BRANCH  13  14
HETATM   14  C9  UNL     1     -16.214  57.890   8.584  1.00  0.00     0.367 C 
BRANCH  14  15
HETATM   15  C10 UNL     1     -17.028  59.055   8.268  1.00  0.00     0.221 C 
HETATM   16  O6  UNL     1     -16.891  60.212   8.842  1.00  0.00    -0.645 OA
HETATM   17  O7  UNL     1     -18.040  58.998   7.299  1.00  0.00    -0.645 OA
ENDBRANCH  14  15
BRANCH  14  18
HETATM   18  C11 UNL     1     -16.389  56.779   7.575  1.00  0.00     0.221 C 
HETATM   19  O8  UNL     1     -15.831  57.121   6.401  1.00  0.00    -0.645 OA
HETATM   20  O9  UNL     1     -16.967  55.602   7.616  1.00  0.00    -0.645 OA
ENDBRANCH  14  18
ENDBRANCH  13  14
ENDBRANCH   6  11
BRANCH   2  21
HETATM   21  C5  UNL     1     -10.386  59.122  14.398  1.00  0.00     0.228 C 
HETATM   22  O3  UNL     1     -11.045  59.007  15.446  1.00  0.00    -0.643 OA
HETATM   23  O4  UNL     1      -9.052  58.736  14.593  1.00  0.00    -0.643 OA
ENDBRANCH   2  21
BRANCH  10  24
HETATM   24  N4  UNL     1     -11.164  62.570  10.954  1.00  0.00    -0.338 N 
ATOM     25  H4  UNL     1     -10.258  62.912  10.637  1.00  0.00     0.168 HD
BRANCH  24  26
HETATM   26  C14 UNL     1     -12.323  63.385  10.889  1.00  0.00     0.174 C 
HETATM   27  N5  UNL     1     -12.287  64.584  10.425  1.00  0.00    -0.395 N 
ATOM     28  H52 UNL     1     -11.390  64.944  10.100  1.00  0.00     0.156 HD
ATOM     29  H51 UNL     1     -13.120  65.171  10.378  1.00  0.00     0.156 HD
ENDBRANCH  24  26
ENDBRANCH  10  24
BRANCH   1  30
HETATM   30  C2  UNL     1     -10.118  61.926  13.501  1.00  0.00     0.194 C 
BRANCH  30  31
HETATM   31  O1  UNL     1      -8.829  62.334  13.639  1.00  0.00    -0.335 OA
HETATM   32  C1  UNL     1      -7.765  61.950  12.776  1.00  0.00     0.212 C 
ENDBRANCH  30  31
BRANCH  30  33
HETATM   33  O2  UNL     1     -10.886  62.721  14.188  1.00  0.00    -0.340 OA
ATOM     34  H2  UNL     1     -11.693  62.264  14.394  1.00  0.00     0.220 HD
ENDBRANCH  30  33
ENDBRANCH   1  30
TORSDOF 10
ENDMDL
MODEL 5
REMARK VINA RESULT: -6.963731357      2.190      4.442
REMARK  10 active torsions:
REMARK  status: ('A' for Active; 'I' for Inactive)
REMARK    1  A    between atoms: O1_2  and  C2_3 
REMARK    2  A    between atoms: C2_3  and  O2_4 
REMARK    3  A    between atoms: C2_3  and  C3_6 
REMARK    4  A    between atoms: C4_7  and  C5_8 
REMARK    5  A    between atoms: C7_14  and  C8_15 
REMARK       I    between atoms: C8_15  and  N2_17 
REMARK    6  A    between atoms: N2_17  and  C9_18 
REMARK    7  A    between atoms: C9_18  and  C10_19 
REMARK    8  A    between atoms: C9_18  and  C11_22 
REMARK    9  A    between atoms: C13_28  and  N4_29 
REMARK   10  A    between atoms: N4_29  and  C14_31 
ROOT
HETATM    1  C3  UNL     1     -12.737  59.024  11.705  1.00  0.00     0.100 A 
HETATM    2  C4  UNL     1     -13.197  60.235  11.412  1.00  0.00     0.133 A 
HETATM    3  N1  UNL     1     -12.381  61.457  11.572  1.00  0.00    -0.316 N 
HETATM    4  C6  UNL     1     -12.776  62.784  11.247  1.00  0.00     0.210 C 
HETATM    5  S1  UNL     1     -11.594  63.753  12.303  1.00  0.00    -0.099 SA
HETATM    6  C7  UNL     1     -10.461  62.396  12.466  1.00  0.00     0.128 C 
HETATM    7  C12 UNL     1     -11.097  61.339  12.041  1.00  0.00     0.134 A 
HETATM    8  N3  UNL     1     -10.608  59.992  12.339  1.00  0.00    -0.326 N 
ATOM      9  H3  UNL     1      -9.650  59.876  12.672  1.00  0.00     0.169 HD
HETATM   10  C13 UNL     1     -11.339  58.963  12.194  1.00  0.00     0.125 A 
ENDROOT
BRANCH   6  11
HETATM   11  C8  UNL     1      -9.043  62.577  12.813  1.00  0.00     0.333 C 
HETATM   12  O5  UNL     1      -8.739  63.766  13.224  1.00  0.00    -0.251 OA
HETATM   13  N2  UNL     1      -8.135  61.571  12.685  1.00  0.00    -0.383 NA
BRANCH  13  14
HETATM   14  C9  UNL     1      -7.215  60.552  12.555  1.00  0.00     0.367 C 
BRANCH  14  15
HETATM   15  C10 UNL     1      -5.837  60.912  12.863  1.00  0.00     0.221 C 
HETATM   16  O6  UNL     1      -5.471  62.089  13.271  1.00  0.00    -0.645 OA
HETATM   17  O7  UNL     1      -4.794  59.984  12.733  1.00  0.00    -0.645 OA
ENDBRANCH  14  15
BRANCH  14  18
HETATM   18  C11 UNL     1      -7.647  59.287  13.259  1.00  0.00     0.221 C 
HETATM   19  O8  UNL     1      -8.505  59.575  14.252  1.00  0.00    -0.645 OA
HETATM   20  O9  UNL     1      -7.350  58.019  13.104  1.00  0.00    -0.645 OA
ENDBRANCH  14  18
ENDBRANCH  13  14
ENDBRANCH   6  11
BRANCH   2  21
HETATM   21  C5  UNL     1     -14.548  60.400  10.959  1.00  0.00     0.228 C 
HETATM   22  O3  UNL     1     -15.517  60.718  11.669  1.00  0.00    -0.643 OA
HETATM   23  O4  UNL     1     -14.936  60.212   9.625  1.00  0.00    -0.643 OA
ENDBRANCH   2  21
BRANCH  10  24
HETATM   24  N4  UNL     1     -10.698  57.717  12.488  1.00  0.00    -0.338 N 
ATOM     25  H4  UNL     1     -10.148  57.226  11.784  1.00  0.00     0.168 HD
BRANCH  24  26
HETATM   26  C14 UNL     1     -10.858  57.192  13.796  1.00  0.00     0.174 C 
HETATM   27  N5  UNL     1      -9.872  56.693  14.455  1.00  0.00    -0.395 N 
ATOM     28  H52 UNL     1      -8.955  56.682  14.008  1.00  0.00     0.156 HD
ATOM     29  H51 UNL     1      -9.987  56.315  15.395  1.00  0.00     0.156 HD
ENDBRANCH  24  26
ENDBRANCH  10  24
BRANCH   1  30
HETATM   30  C2  UNL     1     -13.403  57.767  11.664  1.00  0.00     0.194 C 
BRANCH  30  31
HETATM   31  O1  UNL     1     -14.437  57.238  12.370  1.00  0.00    -0.335 OA
HETATM   32  C1  UNL     1     -15.066  55.998  12.069  1.00  0.00     0.212 C 
ENDBRANCH  30  31
BRANCH  30  33
HETATM   33  O2  UNL     1     -12.994  56.888  10.796  1.00  0.00    -0.340 OA
ATOM     34  H2  UNL     1     -12.368  57.302  10.214  1.00  0.00     0.220 HD
ENDBRANCH  30  33
ENDBRANCH   1  30
TORSDOF 10
ENDMDL
