MODEL 1
REMARK VINA RESULT: -7.881708530      0.000      0.000
REMARK  8 active torsions:
REMARK  status: ('A' for Active; 'I' for Inactive)
REMARK    1  A    between atoms: C2_2  and  N1_3 
REMARK    2  A    between atoms: C3_4  and  C4_5 
REMARK    3  A    between atoms: C4_5  and  C5_6 
REMARK    4  A    between atoms: C5_6  and  N2_7 
REMARK    5  A    between atoms: N2_7  and  C6_9 
REMARK    6  A    between atoms: C7_12  and  N4_13 
REMARK    7  A    between atoms: C11_26  and  C12_27 
REMARK    8  A    between atoms: C12_27  and  C13_28 
ROOT
HETATM    1  C6  UNL     1      -8.647  62.442  11.599  1.00  0.00     0.139 A 
HETATM    2  N3  UNL     1      -7.486  62.698  12.202  1.00  0.00    -0.176 N 
ATOM      3  H3  UNL     1      -7.160  63.660  12.296  1.00  0.00     0.186 HD
HETATM    4  C7  UNL     1      -6.745  61.684  12.686  1.00  0.00     0.677 A 
HETATM    5  N5  UNL     1      -7.129  60.408  12.588  1.00  0.00    -0.201 N 
ATOM      6  H5  UNL     1      -6.535  59.672  12.971  1.00  0.00     0.183 HD
HETATM    7  C8  UNL     1      -8.276  60.085  11.998  1.00  0.00     0.132 A 
HETATM    8  C9  UNL     1      -9.054  61.125  11.492  1.00  0.00     0.104 A 
HETATM    9  C10 UNL     1     -10.293  60.814  10.851  1.00  0.00     0.104 C 
HETATM   10  N6  UNL     1     -11.305  60.561  10.350  1.00  0.00    -0.191 NA
ENDROOT
BRANCH   1  11
HETATM   11  N2  UNL     1      -9.406  63.337  11.115  1.00  0.00    -0.374 N 
ATOM     12  H2  UNL     1      -9.798  63.184  10.185  1.00  0.00     0.161 HD
BRANCH  11  13
HETATM   13  C5  UNL     1      -9.751  64.573  11.814  1.00  0.00     0.129 C 
BRANCH  13  14
HETATM   14  C4  UNL     1     -11.050  65.048  11.220  1.00  0.00     0.098 C 
BRANCH  14  15
HETATM   15  C3  UNL     1     -12.122  64.051  11.217  1.00  0.00     0.101 A 
HETATM   16  N1  UNL     1     -12.726  63.482  12.289  1.00  0.00    -0.324 N 
HETATM   17  C11 UNL     1     -13.649  62.625  11.834  1.00  0.00     0.106 A 
HETATM   18  N8  UNL     1     -13.611  62.669  10.462  1.00  0.00    -0.287 N 
HETATM   19  N7  UNL     1     -12.696  63.523  10.129  1.00  0.00    -0.287 N 
ATOM     20  H8  UNL     1     -14.196  62.129   9.824  1.00  0.00     0.188 HD
ATOM     21  H7  UNL     1     -12.447  63.761   9.169  1.00  0.00     0.188 HD
BRANCH  16  22
HETATM   22  C2  UNL     1     -12.473  63.743  13.688  1.00  0.00     0.127 C 
HETATM   23  C1  UNL     1     -13.367  64.875  14.203  1.00  0.00     0.027 C 
ENDBRANCH  16  22
BRANCH  17  24
HETATM   24  C12 UNL     1     -14.587  61.698  12.497  1.00  0.00     0.155 C 
BRANCH  24  25
HETATM   25  C13 UNL     1     -13.959  60.344  12.493  1.00  0.00     0.094 A 
HETATM   26  N9  UNL     1     -12.882  60.161  13.325  1.00  0.00    -0.329 N 
HETATM   27  C14 UNL     1     -12.224  59.013  13.412  1.00  0.00     0.155 A 
ATOM     28  H9  UNL     1     -12.574  60.944  13.903  1.00  0.00     0.168 HD
HETATM   29  N10 UNL     1     -11.166  58.599  14.136  1.00  0.00    -0.174 N 
HETATM   30  C16 UNL     1     -12.653  57.968  12.625  1.00  0.00     0.161 A 
HETATM   31  C15 UNL     1     -10.915  57.316  13.825  1.00  0.00     0.678 A 
ATOM     32  H10 UNL     1     -10.643  59.164  14.805  1.00  0.00     0.186 HD
HETATM   33  N11 UNL     1      -9.972  56.590  14.324  1.00  0.00    -0.234 N 
HETATM   34  N12 UNL     1     -11.818  56.934  12.908  1.00  0.00    -0.183 N 
ATOM     35 2H11 UNL     1      -9.287  56.880  15.021  1.00  0.00     0.174 HD
ATOM     36 1H11 UNL     1      -9.782  55.616  14.087  1.00  0.00     0.174 HD
ATOM     37  H12 UNL     1     -11.869  56.007  12.487  1.00  0.00     0.184 HD
HETATM   38  C17 UNL     1     -13.723  58.117  11.783  1.00  0.00     0.279 A 
HETATM   39  O1  UNL     1     -14.127  57.171  11.057  1.00  0.00    -0.265 OA
HETATM   40  N13 UNL     1     -14.358  59.326  11.740  1.00  0.00    -0.306 N 
HETATM   41  C18 UNL     1     -15.484  59.500  10.843  1.00  0.00     0.161 C 
ENDBRANCH  24  25
ENDBRANCH  17  24
ENDBRANCH  14  15
ENDBRANCH  13  14
ENDBRANCH  11  13
ENDBRANCH   1  11
BRANCH   4  42
HETATM   42  N4  UNL     1      -5.621  61.971  13.266  1.00  0.00    -0.234 N 
ATOM     43  H42 UNL     1      -5.454  62.921  13.598  1.00  0.00     0.174 HD
ATOM     44  H41 UNL     1      -4.931  61.227  13.372  1.00  0.00     0.174 HD
ENDBRANCH   4  42
TORSDOF 8
ENDMDL
MODEL 2
REMARK VINA RESULT: -7.797155139      2.361      4.287
REMARK  8 active torsions:
REMARK  status: ('A' for Active; 'I' for Inactive)
REMARK    1  A    between atoms: C2_2  and  N1_3 
REMARK    2  A    between atoms: C3_4  and  C4_5 
REMARK    3  A    between atoms: C4_5  and  C5_6 
REMARK    4  A    between atoms: C5_6  and  N2_7 
REMARK    5  A    between atoms: N2_7  and  C6_9 
REMARK    6  A    between atoms: C7_12  and  N4_13 
REMARK    7  A    between atoms: C11_26  and  C12_27 
REMARK    8  A    between atoms: C12_27  and  C13_28 
ROOT
HETATM    1  C6  UNL     1      -7.671  61.605  12.298  1.00  0.00     0.139 A 
HETATM    2  N3  UNL     1      -6.420  61.797  12.718  1.00  0.00    -0.176 N 
ATOM      3  H3  UNL     1      -5.868  61.009  13.055  1.00  0.00     0.186 HD
HETATM    4  C7  UNL     1      -5.889  63.033  12.694  1.00  0.00     0.677 A 
HETATM    5  N5  UNL     1      -6.571  64.097  12.260  1.00  0.00    -0.201 N 
ATOM      6  H5  UNL     1      -6.127  65.015  12.260  1.00  0.00     0.183 HD
HETATM    7  C8  UNL     1      -7.823  63.973  11.828  1.00  0.00     0.132 A 
HETATM    8  C9  UNL     1      -8.386  62.698  11.846  1.00  0.00     0.104 A 
HETATM    9  C10 UNL     1      -9.730  62.529  11.389  1.00  0.00     0.104 C 
HETATM   10  N6  UNL     1     -10.811  62.391  11.001  1.00  0.00    -0.191 NA
ENDROOT
BRANCH   1  11
HETATM   11  N2  UNL     1      -8.248  60.474  12.286  1.00  0.00    -0.374 N 
ATOM     12  H2  UNL     1      -8.564  60.104  11.389  1.00  0.00     0.161 HD
BRANCH  11  13
HETATM   13  C5  UNL     1      -8.487  59.673  13.485  1.00  0.00     0.129 C 
BRANCH  13  14
HETATM   14  C4  UNL     1      -9.439  58.580  13.082  1.00  0.00     0.098 C 
BRANCH  14  15
HETATM   15  C3  UNL     1     -10.718  59.049  12.545  1.00  0.00     0.101 A 
HETATM   16  N1  UNL     1     -11.849  59.337  13.233  1.00  0.00    -0.324 N 
HETATM   17  C11 UNL     1     -12.778  59.730  12.352  1.00  0.00     0.106 A 
HETATM   18  N8  UNL     1     -12.208  59.684  11.105  1.00  0.00    -0.287 N 
HETATM   19  N7  UNL     1     -10.987  59.277  11.253  1.00  0.00    -0.287 N 
ATOM     20  H8  UNL     1     -12.662  59.927  10.224  1.00  0.00     0.188 HD
ATOM     21  H7  UNL     1     -10.322  59.148  10.491  1.00  0.00     0.188 HD
BRANCH  16  22
HETATM   22  C2  UNL     1     -12.055  59.273  14.663  1.00  0.00     0.127 C 
HETATM   23  C1  UNL     1     -11.682  60.600  15.329  1.00  0.00     0.027 C 
ENDBRANCH  16  22
BRANCH  17  24
HETATM   24  C12 UNL     1     -14.193  60.131  12.481  1.00  0.00     0.155 C 
BRANCH  24  25
HETATM   25  C13 UNL     1     -14.968  59.376  11.454  1.00  0.00     0.094 A 
HETATM   26  N9  UNL     1     -15.030  58.013  11.607  1.00  0.00    -0.329 N 
HETATM   27  C14 UNL     1     -15.677  57.221  10.761  1.00  0.00     0.155 A 
ATOM     28  H9  UNL     1     -14.558  57.590  12.406  1.00  0.00     0.168 HD
HETATM   29  N10 UNL     1     -15.875  55.890  10.700  1.00  0.00    -0.174 N 
HETATM   30  C16 UNL     1     -16.307  57.808   9.688  1.00  0.00     0.161 A 
HETATM   31  C15 UNL     1     -16.617  55.621   9.612  1.00  0.00     0.678 A 
ATOM     32  H10 UNL     1     -15.521  55.203  11.366  1.00  0.00     0.186 HD
HETATM   33  N11 UNL     1     -17.003  54.450   9.234  1.00  0.00    -0.234 N 
HETATM   34  N12 UNL     1     -16.879  56.786   8.999  1.00  0.00    -0.183 N 
ATOM     35 2H11 UNL     1     -16.805  53.565   9.700  1.00  0.00     0.174 HD
ATOM     36 1H11 UNL     1     -17.567  54.246   8.408  1.00  0.00     0.174 HD
ATOM     37  H12 UNL     1     -17.425  56.888   8.144  1.00  0.00     0.184 HD
HETATM   38  C17 UNL     1     -16.264  59.165   9.506  1.00  0.00     0.279 A 
HETATM   39  O1  UNL     1     -16.836  59.717   8.529  1.00  0.00    -0.265 OA
HETATM   40  N13 UNL     1     -15.582  59.926  10.413  1.00  0.00    -0.306 N 
HETATM   41  C18 UNL     1     -15.519  61.362  10.223  1.00  0.00     0.161 C 
ENDBRANCH  24  25
ENDBRANCH  17  24
ENDBRANCH  14  15
ENDBRANCH  13  14
ENDBRANCH  11  13
ENDBRANCH   1  11
BRANCH   4  42
HETATM   42  N4  UNL     1      -4.669  63.182  13.110  1.00  0.00    -0.234 N 
ATOM     43  H42 UNL     1      -3.896  62.859  12.528  1.00  0.00     0.174 HD
ATOM     44  H41 UNL     1      -4.521  63.623  14.018  1.00  0.00     0.174 HD
ENDBRANCH   4  42
TORSDOF 8
ENDMDL
MODEL 3
REMARK VINA RESULT: -7.783380646      2.916      6.992
REMARK  8 active torsions:
REMARK  status: ('A' for Active; 'I' for Inactive)
REMARK    1  A    between atoms: C2_2  and  N1_3 
REMARK    2  A    between atoms: C3_4  and  C4_5 
REMARK    3  A    between atoms: C4_5  and  C5_6 
REMARK    4  A    between atoms: C5_6  and  N2_7 
REMARK    5  A    between atoms: N2_7  and  C6_9 
REMARK    6  A    between atoms: C7_12  and  N4_13 
REMARK    7  A    between atoms: C11_26  and  C12_27 
REMARK    8  A    between atoms: C12_27  and  C13_28 
ROOT
HETATM    1  C6  UNL     1     -15.845  57.922   9.371  1.00  0.00     0.139 A 
HETATM    2  N3  UNL     1     -15.528  57.444  10.575  1.00  0.00    -0.176 N 
ATOM      3  H3  UNL     1     -15.066  58.043  11.257  1.00  0.00     0.186 HD
HETATM    4  C7  UNL     1     -15.822  56.168  10.886  1.00  0.00     0.677 A 
HETATM    5  N5  UNL     1     -16.428  55.343  10.027  1.00  0.00    -0.201 N 
ATOM      6  H5  UNL     1     -16.631  54.384  10.307  1.00  0.00     0.183 HD
HETATM    7  C8  UNL     1     -16.769  55.758   8.811  1.00  0.00     0.132 A 
HETATM    8  C9  UNL     1     -16.472  57.078   8.475  1.00  0.00     0.104 A 
HETATM    9  C10 UNL     1     -16.826  57.557   7.175  1.00  0.00     0.104 C 
HETATM   10  N6  UNL     1     -17.130  57.949   6.129  1.00  0.00    -0.191 NA
ENDROOT
BRANCH   1  11
HETATM   11  N2  UNL     1     -15.605  59.111   8.996  1.00  0.00    -0.374 N 
ATOM     12  H2  UNL     1     -15.332  59.263   8.025  1.00  0.00     0.161 HD
BRANCH  11  13
HETATM   13  C5  UNL     1     -15.698  60.274   9.876  1.00  0.00     0.129 C 
BRANCH  13  14
HETATM   14  C4  UNL     1     -14.349  60.939   9.844  1.00  0.00     0.098 C 
BRANCH  14  15
HETATM   15  C3  UNL     1     -13.322  60.280  10.652  1.00  0.00     0.101 A 
HETATM   16  N1  UNL     1     -13.114  60.400  11.986  1.00  0.00    -0.324 N 
HETATM   17  C11 UNL     1     -12.071  59.625  12.312  1.00  0.00     0.106 A 
HETATM   18  N8  UNL     1     -11.633  59.019  11.161  1.00  0.00    -0.287 N 
HETATM   19  N7  UNL     1     -12.395  59.428  10.196  1.00  0.00    -0.287 N 
ATOM     20  H8  UNL     1     -10.853  58.367  11.081  1.00  0.00     0.188 HD
ATOM     21  H7  UNL     1     -12.301  59.141   9.222  1.00  0.00     0.188 HD
BRANCH  16  22
HETATM   22  C2  UNL     1     -13.873  61.188  12.931  1.00  0.00     0.127 C 
HETATM   23  C1  UNL     1     -13.286  62.597  13.064  1.00  0.00     0.027 C 
ENDBRANCH  16  22
BRANCH  17  24
HETATM   24  C12 UNL     1     -11.357  59.366  13.577  1.00  0.00     0.155 C 
BRANCH  24  25
HETATM   25  C13 UNL     1      -9.912  59.657  13.343  1.00  0.00     0.094 A 
HETATM   26  N9  UNL     1      -9.573  60.973  13.141  1.00  0.00    -0.329 N 
HETATM   27  C14 UNL     1      -8.328  61.369  12.911  1.00  0.00     0.155 A 
ATOM     28  H9  UNL     1     -10.311  61.676  13.168  1.00  0.00     0.168 HD
HETATM   29  N10 UNL     1      -7.760  62.571  12.689  1.00  0.00    -0.174 N 
HETATM   30  C16 UNL     1      -7.344  60.407  12.878  1.00  0.00     0.161 A 
HETATM   31  C15 UNL     1      -6.440  62.391  12.516  1.00  0.00     0.678 A 
ATOM     32  H10 UNL     1      -8.250  63.465  12.657  1.00  0.00     0.186 HD
HETATM   33  N11 UNL     1      -5.577  63.320  12.281  1.00  0.00    -0.234 N 
HETATM   34  N12 UNL     1      -6.189  61.077  12.630  1.00  0.00    -0.183 N 
ATOM     35 2H11 UNL     1      -5.768  64.318  12.194  1.00  0.00     0.174 HD
ATOM     36 1H11 UNL     1      -4.574  63.183  12.149  1.00  0.00     0.174 HD
ATOM     37  H12 UNL     1      -5.268  60.647  12.545  1.00  0.00     0.184 HD
HETATM   38  C17 UNL     1      -7.649  59.086  13.075  1.00  0.00     0.279 A 
HETATM   39  O1  UNL     1      -6.760  58.194  13.047  1.00  0.00    -0.265 OA
HETATM   40  N13 UNL     1      -8.951  58.742  13.307  1.00  0.00    -0.306 N 
HETATM   41  C18 UNL     1      -9.287  57.346  13.504  1.00  0.00     0.161 C 
ENDBRANCH  24  25
ENDBRANCH  17  24
ENDBRANCH  14  15
ENDBRANCH  13  14
ENDBRANCH  11  13
ENDBRANCH   1  11
BRANCH   4  42
HETATM   42  N4  UNL     1     -15.499  55.737  12.066  1.00  0.00    -0.234 N 
ATOM     43  H42 UNL     1     -14.628  55.219  12.192  1.00  0.00     0.174 HD
ATOM     44  H41 UNL     1     -16.134  55.931  12.840  1.00  0.00     0.174 HD
ENDBRANCH   4  42
TORSDOF 8
ENDMDL
MODEL 4
REMARK VINA RESULT: -7.756086812      2.905      7.110
REMARK  8 active torsions:
REMARK  status: ('A' for Active; 'I' for Inactive)
REMARK    1  A    between atoms: C2_2  and  N1_3 
REMARK    2  A    between atoms: C3_4  and  C4_5 
REMARK    3  A    between atoms: C4_5  and  C5_6 
REMARK    4  A    between atoms: C5_6  and  N2_7 
REMARK    5  A    between atoms: N2_7  and  C6_9 
REMARK    6  A    between atoms: C7_12  and  N4_13 
REMARK    7  A    between atoms: C11_26  and  C12_27 
REMARK    8  A    between atoms: C12_27  and  C13_28 
ROOT
HETATM    1  C6  UNL     1     -16.507  59.242   9.366  1.00  0.00     0.139 A 
HETATM    2  N3  UNL     1     -17.199  59.883   8.425  1.00  0.00    -0.176 N 
ATOM      3  H3  UNL     1     -17.470  60.857   8.562  1.00  0.00     0.186 HD
HETATM    4  C7  UNL     1     -17.541  59.242   7.292  1.00  0.00     0.677 A 
HETATM    5  N5  UNL     1     -17.210  57.967   7.064  1.00  0.00    -0.201 N 
ATOM      6  H5  UNL     1     -17.490  57.522   6.190  1.00  0.00     0.183 HD
HETATM    7  C8  UNL     1     -16.520  57.272   7.964  1.00  0.00     0.132 A 
HETATM    8  C9  UNL     1     -16.159  57.924   9.141  1.00  0.00     0.104 A 
HETATM    9  C10 UNL     1     -15.417  57.206  10.130  1.00  0.00     0.104 C 
HETATM   10  N6  UNL     1     -14.799  56.628  10.920  1.00  0.00    -0.191 NA
ENDROOT
BRANCH   1  11
HETATM   11  N2  UNL     1     -16.145  59.771  10.462  1.00  0.00    -0.374 N 
ATOM     12  H2  UNL     1     -16.185  59.201  11.308  1.00  0.00     0.161 HD
BRANCH  11  13
HETATM   13  C5  UNL     1     -15.673  61.149  10.582  1.00  0.00     0.129 C 
BRANCH  13  14
HETATM   14  C4  UNL     1     -14.223  61.138  10.178  1.00  0.00     0.098 C 
BRANCH  14  15
HETATM   15  C3  UNL     1     -13.356  60.330  11.037  1.00  0.00     0.101 A 
HETATM   16  N1  UNL     1     -12.879  60.647  12.265  1.00  0.00    -0.324 N 
HETATM   17  C11 UNL     1     -12.125  59.626  12.691  1.00  0.00     0.106 A 
HETATM   18  N8  UNL     1     -12.139  58.666  11.709  1.00  0.00    -0.287 N 
HETATM   19  N7  UNL     1     -12.877  59.114  10.743  1.00  0.00    -0.287 N 
ATOM     20  H8  UNL     1     -11.658  57.767  11.736  1.00  0.00     0.188 HD
ATOM     21  H7  UNL     1     -13.068  58.610   9.877  1.00  0.00     0.188 HD
BRANCH  16  22
HETATM   22  C2  UNL     1     -13.135  61.848  13.029  1.00  0.00     0.127 C 
HETATM   23  C1  UNL     1     -14.230  61.609  14.072  1.00  0.00     0.027 C 
ENDBRANCH  16  22
BRANCH  17  24
HETATM   24  C12 UNL     1     -11.323  59.395  13.909  1.00  0.00     0.155 C 
BRANCH  24  25
HETATM   25  C13 UNL     1      -9.894  59.646  13.560  1.00  0.00     0.094 A 
HETATM   26  N9  UNL     1      -9.534  60.953  13.336  1.00  0.00    -0.329 N 
HETATM   27  C14 UNL     1      -8.301  61.315  13.008  1.00  0.00     0.155 A 
ATOM     28  H9  UNL     1     -10.247  61.677  13.426  1.00  0.00     0.168 HD
HETATM   29  N10 UNL     1      -7.719  62.501  12.746  1.00  0.00    -0.174 N 
HETATM   30  C16 UNL     1      -7.352  60.325  12.891  1.00  0.00     0.161 A 
HETATM   31  C15 UNL     1      -6.423  62.284  12.465  1.00  0.00     0.678 A 
ATOM     32  H10 UNL     1      -8.183  63.410  12.758  1.00  0.00     0.186 HD
HETATM   33  N11 UNL     1      -5.555  63.190  12.165  1.00  0.00    -0.234 N 
HETATM   34  N12 UNL     1      -6.201  60.963  12.553  1.00  0.00    -0.183 N 
ATOM     35 2H11 UNL     1      -5.723  64.194  12.099  1.00  0.00     0.174 HD
ATOM     36 1H11 UNL     1      -4.570  63.025  11.952  1.00  0.00     0.174 HD
ATOM     37  H12 UNL     1      -5.304  60.508  12.391  1.00  0.00     0.184 HD
HETATM   38  C17 UNL     1      -7.678  59.012  13.106  1.00  0.00     0.279 A 
HETATM   39  O1  UNL     1      -6.821  58.095  13.003  1.00  0.00    -0.265 OA
HETATM   40  N13 UNL     1      -8.967  58.704  13.442  1.00  0.00    -0.306 N 
HETATM   41  C18 UNL     1      -9.326  57.317  13.659  1.00  0.00     0.161 C 
ENDBRANCH  24  25
ENDBRANCH  17  24
ENDBRANCH  14  15
ENDBRANCH  13  14
ENDBRANCH  11  13
ENDBRANCH   1  11
BRANCH   4  42
HETATM   42  N4  UNL     1     -18.215  59.897   6.398  1.00  0.00    -0.234 N 
ATOM     43  H42 UNL     1     -19.218  60.035   6.526  1.00  0.00     0.174 HD
ATOM     44  H41 UNL     1     -17.714  60.256   5.586  1.00  0.00     0.174 HD
ENDBRANCH   4  42
TORSDOF 8
ENDMDL
MODEL 5
REMARK VINA RESULT: -7.754002038      2.360      6.123
REMARK  8 active torsions:
REMARK  status: ('A' for Active; 'I' for Inactive)
REMARK    1  A    between atoms: C2_2  and  N1_3 
REMARK    2  A    between atoms: C3_4  and  C4_5 
REMARK    3  A    between atoms: C4_5  and  C5_6 
REMARK    4  A    between atoms: C5_6  and  N2_7 
REMARK    5  A    between atoms: N2_7  and  C6_9 
REMARK    6  A    between atoms: C7_12  and  N4_13 
REMARK    7  A    between atoms: C11_26  and  C12_27 
REMARK    8  A    between atoms: C12_27  and  C13_28 
ROOT
HETATM    1  C6  UNL     1     -13.508  60.363  10.129  1.00  0.00     0.139 A 
HETATM    2  N3  UNL     1     -12.273  60.111   9.693  1.00  0.00    -0.176 N 
ATOM      3  H3  UNL     1     -12.065  59.227   9.230  1.00  0.00     0.186 HD
HETATM    4  C7  UNL     1     -11.303  61.028   9.864  1.00  0.00     0.677 A 
HETATM    5  N5  UNL     1     -11.526  62.202  10.463  1.00  0.00    -0.201 N 
ATOM      6  H5  UNL     1     -10.760  62.866  10.571  1.00  0.00     0.183 HD
HETATM    7  C8  UNL     1     -12.735  62.514  10.921  1.00  0.00     0.132 A 
HETATM    8  C9  UNL     1     -13.749  61.574  10.750  1.00  0.00     0.104 A 
HETATM    9  C10 UNL     1     -15.061  61.878  11.231  1.00  0.00     0.104 C 
HETATM   10  N6  UNL     1     -16.127  62.133  11.603  1.00  0.00    -0.191 NA
ENDROOT
BRANCH   1  11
HETATM   11  N2  UNL     1     -14.480  59.556  10.008  1.00  0.00    -0.374 N 
ATOM     12  H2  UNL     1     -15.365  59.918   9.652  1.00  0.00     0.161 HD
BRANCH  11  13
HETATM   13  C5  UNL     1     -14.403  58.137  10.351  1.00  0.00     0.129 C 
BRANCH  13  14
HETATM   14  C4  UNL     1     -14.373  58.064  11.853  1.00  0.00     0.098 C 
BRANCH  14  15
HETATM   15  C3  UNL     1     -13.036  57.918  12.432  1.00  0.00     0.101 A 
HETATM   16  N1  UNL     1     -12.543  58.521  13.541  1.00  0.00    -0.324 N 
HETATM   17  C11 UNL     1     -11.281  58.107  13.708  1.00  0.00     0.106 A 
HETATM   18  N8  UNL     1     -10.995  57.235  12.687  1.00  0.00    -0.287 N 
HETATM   19  N7  UNL     1     -12.055  57.145  11.949  1.00  0.00    -0.287 N 
ATOM     20  H8  UNL     1     -10.111  56.749  12.539  1.00  0.00     0.188 HD
ATOM     21  H7  UNL     1     -12.133  56.565  11.113  1.00  0.00     0.188 HD
BRANCH  16  22
HETATM   22  C2  UNL     1     -13.229  59.433  14.430  1.00  0.00     0.127 C 
HETATM   23  C1  UNL     1     -12.893  60.887  14.086  1.00  0.00     0.027 C 
ENDBRANCH  16  22
BRANCH  17  24
HETATM   24  C12 UNL     1     -10.230  58.429  14.694  1.00  0.00     0.155 C 
BRANCH  24  25
HETATM   25  C13 UNL     1      -9.225  59.294  14.010  1.00  0.00     0.094 A 
HETATM   26  N9  UNL     1      -9.579  60.604  13.799  1.00  0.00    -0.329 N 
HETATM   27  C14 UNL     1      -8.784  61.477  13.194  1.00  0.00     0.155 A 
ATOM     28  H9  UNL     1     -10.494  60.919  14.122  1.00  0.00     0.168 HD
HETATM   29  N10 UNL     1      -8.905  62.782  12.880  1.00  0.00    -0.174 N 
HETATM   30  C16 UNL     1      -7.554  61.034  12.764  1.00  0.00     0.161 A 
HETATM   31  C15 UNL     1      -7.778  63.175  12.261  1.00  0.00     0.678 A 
ATOM     32  H10 UNL     1      -9.714  63.371  13.078  1.00  0.00     0.186 HD
HETATM   33  N11 UNL     1      -7.537  64.361  11.817  1.00  0.00    -0.234 N 
HETATM   34  N12 UNL     1      -6.960  62.113  12.191  1.00  0.00    -0.183 N 
ATOM     35 2H11 UNL     1      -8.159  65.168  11.870  1.00  0.00     0.174 HD
ATOM     36 1H11 UNL     1      -6.682  64.659  11.347  1.00  0.00     0.174 HD
ATOM     37  H12 UNL     1      -6.031  62.116  11.771  1.00  0.00     0.184 HD
HETATM   38  C17 UNL     1      -7.170  59.734  12.958  1.00  0.00     0.279 A 
HETATM   39  O1  UNL     1      -6.048  59.313  12.570  1.00  0.00    -0.265 OA
HETATM   40  N13 UNL     1      -8.034  58.883  13.588  1.00  0.00    -0.306 N 
HETATM   41  C18 UNL     1      -7.644  57.501  13.787  1.00  0.00     0.161 C 
ENDBRANCH  24  25
ENDBRANCH  17  24
ENDBRANCH  14  15
ENDBRANCH  13  14
ENDBRANCH  11  13
ENDBRANCH   1  11
BRANCH   4  42
HETATM   42  N4  UNL     1     -10.114  60.749   9.428  1.00  0.00    -0.234 N 
ATOM     43  H42 UNL     1      -9.998  60.042   8.701  1.00  0.00     0.174 HD
ATOM     44  H41 UNL     1      -9.323  61.251   9.830  1.00  0.00     0.174 HD
ENDBRANCH   4  42
TORSDOF 8
ENDMDL
