MODEL 1
REMARK VINA RESULT: -6.642477410      0.000      0.000
REMARK  10 active torsions:
REMARK  status: ('A' for Active; 'I' for Inactive)
REMARK    1  A    between atoms: N1_1  and  C1_4 
REMARK    2  A    between atoms: N3_9  and  C3_10 
REMARK    3  A    between atoms: C3_10  and  C4_11 
REMARK    4  A    between atoms: C4_11  and  C5_12 
REMARK    5  A    between atoms: C5_12  and  N4_13 
REMARK    6  A    between atoms: C5_12  and  C6_17 
REMARK    7  A    between atoms: C6_17  and  C7_18 
REMARK    8  A    between atoms: C7_18  and  C8_19 
REMARK    9  A    between atoms: C8_19  and  N5_20 
REMARK   10  A    between atoms: N5_20  and  N6_21 
ROOT
HETATM    1  C3  UNL     1      -2.877  -2.785  18.626  1.00  0.00     0.141 C 
ENDROOT
BRANCH   1   2
HETATM    2  N3  UNL     1      -3.500  -3.814  19.420  1.00  0.00    -0.250 N 
HETATM    3  C2  UNL     1      -3.657  -5.082  19.004  1.00  0.00     0.344 A 
HETATM    4  N2  UNL     1      -4.250  -6.006  19.795  1.00  0.00    -0.141 N 
HETATM    5  O1  UNL     1      -3.236  -5.387  17.858  1.00  0.00    -0.246 OA
HETATM    6  C1  UNL     1      -4.698  -5.675  21.017  1.00  0.00     0.683 A 
ATOM      7  H2  UNL     1      -4.359  -6.963  19.460  1.00  0.00     0.189 HD
HETATM    8  N7  UNL     1      -4.548  -4.411  21.446  1.00  0.00    -0.141 N 
HETATM    9  C9  UNL     1      -3.955  -3.512  20.642  1.00  0.00     0.344 A 
ATOM     10  H7  UNL     1      -4.880  -4.137  22.370  1.00  0.00     0.189 HD
HETATM   11  O2  UNL     1      -3.827  -2.340  21.066  1.00  0.00    -0.246 OA
BRANCH   6  12
HETATM   12  N1  UNL     1      -5.269  -6.564  21.777  1.00  0.00    -0.234 N 
ATOM     13  H12 UNL     1      -6.261  -6.491  22.001  1.00  0.00     0.174 HD
ATOM     14  H11 UNL     1      -4.732  -7.343  22.160  1.00  0.00     0.174 HD
ENDBRANCH   6  12
ENDBRANCH   1   2
BRANCH   1  15
HETATM   15  C4  UNL     1      -1.400  -2.906  18.759  1.00  0.00     0.053 C 
BRANCH  15  16
HETATM   16  C5  UNL     1      -0.725  -3.574  17.596  1.00  0.00     0.185 C 
BRANCH  16  17
HETATM   17  N4  UNL     1      -0.077  -4.790  17.986  1.00  0.00    -0.075 N 
ATOM     18  H43 UNL     1       0.350  -5.256  17.185  1.00  0.00     0.274 HD
ATOM     19  H42 UNL     1       0.765  -4.604  18.530  1.00  0.00     0.274 HD
ATOM     20  H41 UNL     1      -0.711  -5.414  18.483  1.00  0.00     0.274 HD
ENDBRANCH  16  17
BRANCH  16  21
HETATM   21  C6  UNL     1       0.268  -2.693  16.900  1.00  0.00     0.034 C 
BRANCH  21  22
HETATM   22  C7  UNL     1       1.570  -3.474  16.811  1.00  0.00     0.020 C 
BRANCH  22  23
HETATM   23  C8  UNL     1       2.763  -2.592  17.089  1.00  0.00     0.134 C 
BRANCH  23  24
HETATM   24  N5  UNL     1       2.389  -1.713  18.189  1.00  0.00    -0.148 NA
BRANCH  24  25
HETATM   25  N6  UNL     1       2.696  -0.375  17.911  1.00  0.00    -0.348 N 
ATOM     26  H62 UNL     1       2.047   0.395  18.078  1.00  0.00     0.172 HD
ATOM     27  H61 UNL     1       3.636  -0.274  17.527  1.00  0.00     0.172 HD
ENDBRANCH  24  25
ENDBRANCH  23  24
ENDBRANCH  22  23
ENDBRANCH  21  22
ENDBRANCH  16  21
ENDBRANCH  15  16
ENDBRANCH   1  15
TORSDOF 10
ENDMDL
MODEL 2
REMARK VINA RESULT: -6.502150742      1.279      1.470
REMARK  10 active torsions:
REMARK  status: ('A' for Active; 'I' for Inactive)
REMARK    1  A    between atoms: N1_1  and  C1_4 
REMARK    2  A    between atoms: N3_9  and  C3_10 
REMARK    3  A    between atoms: C3_10  and  C4_11 
REMARK    4  A    between atoms: C4_11  and  C5_12 
REMARK    5  A    between atoms: C5_12  and  N4_13 
REMARK    6  A    between atoms: C5_12  and  C6_17 
REMARK    7  A    between atoms: C6_17  and  C7_18 
REMARK    8  A    between atoms: C7_18  and  C8_19 
REMARK    9  A    between atoms: C8_19  and  N5_20 
REMARK   10  A    between atoms: N5_20  and  N6_21 
ROOT
HETATM    1  C3  UNL     1      -2.841  -2.813  18.671  1.00  0.00     0.141 C 
ENDROOT
BRANCH   1   2
HETATM    2  N3  UNL     1      -3.477  -3.863  19.425  1.00  0.00    -0.250 N 
HETATM    3  C2  UNL     1      -3.599  -5.127  18.985  1.00  0.00     0.344 A 
HETATM    4  N2  UNL     1      -4.207  -6.071  19.740  1.00  0.00    -0.141 N 
HETATM    5  O1  UNL     1      -3.131  -5.408  17.852  1.00  0.00    -0.246 OA
HETATM    6  C1  UNL     1      -4.706  -5.766  20.949  1.00  0.00     0.683 A 
ATOM      7  H2  UNL     1      -4.289  -7.025  19.387  1.00  0.00     0.189 HD
HETATM    8  N7  UNL     1      -4.591  -4.506  21.402  1.00  0.00    -0.141 N 
HETATM    9  C9  UNL     1      -3.982  -3.587  20.634  1.00  0.00     0.344 A 
ATOM     10  H7  UNL     1      -4.961  -4.251  22.317  1.00  0.00     0.189 HD
HETATM   11  O2  UNL     1      -3.889  -2.419  21.079  1.00  0.00    -0.246 OA
BRANCH   6  12
HETATM   12  N1  UNL     1      -5.290  -6.675  21.674  1.00  0.00    -0.234 N 
ATOM     13  H12 UNL     1      -5.721  -7.487  21.234  1.00  0.00     0.174 HD
ATOM     14  H11 UNL     1      -5.326  -6.586  22.690  1.00  0.00     0.174 HD
ENDBRANCH   6  12
ENDBRANCH   1   2
BRANCH   1  15
HETATM   15  C4  UNL     1      -1.420  -2.711  19.096  1.00  0.00     0.053 C 
BRANCH  15  16
HETATM   16  C5  UNL     1      -0.428  -3.146  18.057  1.00  0.00     0.185 C 
BRANCH  16  17
HETATM   17  N4  UNL     1      -0.188  -4.556  18.108  1.00  0.00    -0.075 N 
ATOM     18  H43 UNL     1      -0.898  -5.033  18.665  1.00  0.00     0.274 HD
ATOM     19  H42 UNL     1      -0.370  -4.998  17.207  1.00  0.00     0.274 HD
ATOM     20  H41 UNL     1       0.751  -4.769  18.443  1.00  0.00     0.274 HD
ENDBRANCH  16  17
BRANCH  16  21
HETATM   21  C6  UNL     1       0.883  -2.425  18.148  1.00  0.00     0.034 C 
BRANCH  21  22
HETATM   22  C7  UNL     1       1.243  -1.975  16.741  1.00  0.00     0.020 C 
BRANCH  22  23
HETATM   23  C8  UNL     1       0.009  -1.649  15.934  1.00  0.00     0.134 C 
BRANCH  23  24
HETATM   24  N5  UNL     1       0.334  -0.484  15.121  1.00  0.00    -0.148 NA
BRANCH  24  25
HETATM   25  N6  UNL     1       0.750   0.598  15.908  1.00  0.00    -0.348 N 
ATOM     26  H62 UNL     1       0.707   0.598  16.927  1.00  0.00     0.172 HD
ATOM     27  H61 UNL     1       1.095   1.370  15.337  1.00  0.00     0.172 HD
ENDBRANCH  24  25
ENDBRANCH  23  24
ENDBRANCH  22  23
ENDBRANCH  21  22
ENDBRANCH  16  21
ENDBRANCH  15  16
ENDBRANCH   1  15
TORSDOF 10
ENDMDL
MODEL 3
REMARK VINA RESULT: -6.450103284      1.266      2.361
REMARK  10 active torsions:
REMARK  status: ('A' for Active; 'I' for Inactive)
REMARK    1  A    between atoms: N1_1  and  C1_4 
REMARK    2  A    between atoms: N3_9  and  C3_10 
REMARK    3  A    between atoms: C3_10  and  C4_11 
REMARK    4  A    between atoms: C4_11  and  C5_12 
REMARK    5  A    between atoms: C5_12  and  N4_13 
REMARK    6  A    between atoms: C5_12  and  C6_17 
REMARK    7  A    between atoms: C6_17  and  C7_18 
REMARK    8  A    between atoms: C7_18  and  C8_19 
REMARK    9  A    between atoms: C8_19  and  N5_20 
REMARK   10  A    between atoms: N5_20  and  N6_21 
ROOT
HETATM    1  C3  UNL     1      -2.795  -2.802  18.605  1.00  0.00     0.141 C 
ENDROOT
BRANCH   1   2
HETATM    2  N3  UNL     1      -3.454  -3.777  19.437  1.00  0.00    -0.250 N 
HETATM    3  C2  UNL     1      -3.962  -3.500  20.649  1.00  0.00     0.344 A 
HETATM    4  N2  UNL     1      -4.570  -4.459  21.386  1.00  0.00    -0.141 N 
HETATM    5  O1  UNL     1      -3.856  -2.323  21.081  1.00  0.00    -0.246 OA
HETATM    6  C1  UNL     1      -4.679  -5.714  20.921  1.00  0.00     0.683 A 
ATOM      7  H2  UNL     1      -4.949  -4.226  22.304  1.00  0.00     0.189 HD
HETATM    8  N7  UNL     1      -4.175  -6.005  19.710  1.00  0.00    -0.141 N 
HETATM    9  C9  UNL     1      -3.576  -5.035  18.998  1.00  0.00     0.344 A 
ATOM     10  H7  UNL     1      -4.246  -6.951  19.335  1.00  0.00     0.189 HD
HETATM   11  O2  UNL     1      -3.115  -5.334  17.871  1.00  0.00    -0.246 OA
BRANCH   6  12
HETATM   12  N1  UNL     1      -5.264  -6.635  21.629  1.00  0.00    -0.234 N 
ATOM     13  H12 UNL     1      -5.881  -6.379  22.400  1.00  0.00     0.174 HD
ATOM     14  H11 UNL     1      -5.113  -7.623  21.424  1.00  0.00     0.174 HD
ENDBRANCH   6  12
ENDBRANCH   1   2
BRANCH   1  15
HETATM   15  C4  UNL     1      -1.383  -2.666  19.052  1.00  0.00     0.053 C 
BRANCH  15  16
HETATM   16  C5  UNL     1      -0.366  -3.099  18.036  1.00  0.00     0.185 C 
BRANCH  16  17
HETATM   17  N4  UNL     1      -0.133  -4.510  18.085  1.00  0.00    -0.075 N 
ATOM     18  H43 UNL     1       0.573  -4.745  18.783  1.00  0.00     0.274 HD
ATOM     19  H42 UNL     1      -0.928  -5.005  18.490  1.00  0.00     0.274 HD
ATOM     20  H41 UNL     1       0.112  -4.886  17.170  1.00  0.00     0.274 HD
ENDBRANCH  16  17
BRANCH  16  21
HETATM   21  C6  UNL     1       0.944  -2.382  18.165  1.00  0.00     0.034 C 
BRANCH  21  22
HETATM   22  C7  UNL     1       1.272  -1.804  16.797  1.00  0.00     0.020 C 
BRANCH  22  23
HETATM   23  C8  UNL     1       0.020  -1.516  16.005  1.00  0.00     0.134 C 
BRANCH  23  24
HETATM   24  N5  UNL     1       0.366  -0.492  15.028  1.00  0.00    -0.148 NA
BRANCH  24  25
HETATM   25  N6  UNL     1       1.506   0.226  15.411  1.00  0.00    -0.348 N 
ATOM     26  H62 UNL     1       1.924   0.159  16.339  1.00  0.00     0.172 HD
ATOM     27  H61 UNL     1       1.856   0.812  14.653  1.00  0.00     0.172 HD
ENDBRANCH  24  25
ENDBRANCH  23  24
ENDBRANCH  22  23
ENDBRANCH  21  22
ENDBRANCH  16  21
ENDBRANCH  15  16
ENDBRANCH   1  15
TORSDOF 10
ENDMDL
MODEL 4
REMARK VINA RESULT: -6.449592023      1.448      1.876
REMARK  10 active torsions:
REMARK  status: ('A' for Active; 'I' for Inactive)
REMARK    1  A    between atoms: N1_1  and  C1_4 
REMARK    2  A    between atoms: N3_9  and  C3_10 
REMARK    3  A    between atoms: C3_10  and  C4_11 
REMARK    4  A    between atoms: C4_11  and  C5_12 
REMARK    5  A    between atoms: C5_12  and  N4_13 
REMARK    6  A    between atoms: C5_12  and  C6_17 
REMARK    7  A    between atoms: C6_17  and  C7_18 
REMARK    8  A    between atoms: C7_18  and  C8_19 
REMARK    9  A    between atoms: C8_19  and  N5_20 
REMARK   10  A    between atoms: N5_20  and  N6_21 
ROOT
HETATM    1  C3  UNL     1      -2.761  -2.660  18.496  1.00  0.00     0.141 C 
ENDROOT
BRANCH   1   2
HETATM    2  N3  UNL     1      -3.374  -3.700  19.284  1.00  0.00    -0.250 N 
HETATM    3  C2  UNL     1      -3.462  -4.980  18.887  1.00  0.00     0.344 A 
HETATM    4  N2  UNL     1      -4.050  -5.913  19.672  1.00  0.00    -0.141 N 
HETATM    5  O1  UNL     1      -2.983  -5.288  17.765  1.00  0.00    -0.246 OA
HETATM    6  C1  UNL     1      -4.561  -5.580  20.868  1.00  0.00     0.683 A 
ATOM      7  H2  UNL     1      -4.106  -6.880  19.351  1.00  0.00     0.189 HD
HETATM    8  N7  UNL     1      -4.480  -4.302  21.277  1.00  0.00    -0.141 N 
HETATM    9  C9  UNL     1      -3.891  -3.395  20.480  1.00  0.00     0.344 A 
ATOM     10  H7  UNL     1      -4.861  -4.025  22.182  1.00  0.00     0.189 HD
HETATM   11  O2  UNL     1      -3.829  -2.210  20.886  1.00  0.00    -0.246 OA
BRANCH   6  12
HETATM   12  N1  UNL     1      -5.126  -6.477  21.622  1.00  0.00    -0.234 N 
ATOM     13  H12 UNL     1      -4.782  -7.438  21.626  1.00  0.00     0.174 HD
ATOM     14  H11 UNL     1      -5.919  -6.233  22.216  1.00  0.00     0.174 HD
ENDBRANCH   6  12
ENDBRANCH   1   2
BRANCH   1  15
HETATM   15  C4  UNL     1      -1.296  -2.669  18.749  1.00  0.00     0.053 C 
BRANCH  15  16
HETATM   16  C5  UNL     1      -0.695  -1.310  18.965  1.00  0.00     0.185 C 
BRANCH  16  17
HETATM   17  N4  UNL     1      -1.669  -0.365  19.420  1.00  0.00    -0.075 N 
ATOM     18  H43 UNL     1      -2.551  -0.470  18.918  1.00  0.00     0.274 HD
ATOM     19  H42 UNL     1      -1.994  -0.589  20.361  1.00  0.00     0.274 HD
ATOM     20  H41 UNL     1      -1.322   0.592  19.365  1.00  0.00     0.274 HD
ENDBRANCH  16  17
BRANCH  16  21
HETATM   21  C6  UNL     1      -0.014  -0.761  17.747  1.00  0.00     0.034 C 
BRANCH  21  22
HETATM   22  C7  UNL     1       1.483  -0.921  17.965  1.00  0.00     0.020 C 
BRANCH  22  23
HETATM   23  C8  UNL     1       2.146  -1.576  16.778  1.00  0.00     0.134 C 
BRANCH  23  24
HETATM   24  N5  UNL     1       2.420  -2.956  17.157  1.00  0.00    -0.148 NA
BRANCH  24  25
HETATM   25  N6  UNL     1       1.441  -3.832  16.671  1.00  0.00    -0.348 N 
ATOM     26  H62 UNL     1       1.274  -3.988  15.676  1.00  0.00     0.172 HD
ATOM     27  H61 UNL     1       0.928  -4.284  17.428  1.00  0.00     0.172 HD
ENDBRANCH  24  25
ENDBRANCH  23  24
ENDBRANCH  22  23
ENDBRANCH  21  22
ENDBRANCH  16  21
ENDBRANCH  15  16
ENDBRANCH   1  15
TORSDOF 10
ENDMDL
MODEL 5
REMARK VINA RESULT: -6.448088639      1.961      6.985
REMARK  10 active torsions:
REMARK  status: ('A' for Active; 'I' for Inactive)
REMARK    1  A    between atoms: N1_1  and  C1_4 
REMARK    2  A    between atoms: N3_9  and  C3_10 
REMARK    3  A    between atoms: C3_10  and  C4_11 
REMARK    4  A    between atoms: C4_11  and  C5_12 
REMARK    5  A    between atoms: C5_12  and  N4_13 
REMARK    6  A    between atoms: C5_12  and  C6_17 
REMARK    7  A    between atoms: C6_17  and  C7_18 
REMARK    8  A    between atoms: C7_18  and  C8_19 
REMARK    9  A    between atoms: C8_19  and  N5_20 
REMARK   10  A    between atoms: N5_20  and  N6_21 
ROOT
HETATM    1  C3  UNL     1      -2.210  -1.902  17.895  1.00  0.00     0.141 C 
ENDROOT
BRANCH   1   2
HETATM    2  N3  UNL     1      -0.781  -2.021  17.761  1.00  0.00    -0.250 N 
HETATM    3  C2  UNL     1       0.095  -1.523  18.649  1.00  0.00     0.344 A 
HETATM    4  N2  UNL     1       1.428  -1.666  18.469  1.00  0.00    -0.141 N 
HETATM    5  O1  UNL     1      -0.360  -0.918  19.654  1.00  0.00    -0.246 OA
HETATM    6  C1  UNL     1       1.909  -2.312  17.394  1.00  0.00     0.683 A 
ATOM      7  H2  UNL     1       2.075  -1.280  19.157  1.00  0.00     0.189 HD
HETATM    8  N7  UNL     1       1.045  -2.816  16.497  1.00  0.00    -0.141 N 
HETATM    9  C9  UNL     1      -0.275  -2.661  16.699  1.00  0.00     0.344 A 
ATOM     10  H7  UNL     1       1.386  -3.311  15.673  1.00  0.00     0.189 HD
HETATM   11  O2  UNL     1      -1.059  -3.140  15.847  1.00  0.00    -0.246 OA
BRANCH   6  12
HETATM   12  N1  UNL     1       3.191  -2.450  17.222  1.00  0.00    -0.234 N 
ATOM     13  H12 UNL     1       3.821  -2.462  18.024  1.00  0.00     0.174 HD
ATOM     14  H11 UNL     1       3.583  -2.547  16.285  1.00  0.00     0.174 HD
ENDBRANCH   6  12
ENDBRANCH   1   2
BRANCH   1  15
HETATM   15  C4  UNL     1      -2.693  -2.953  18.830  1.00  0.00     0.053 C 
BRANCH  15  16
HETATM   16  C5  UNL     1      -3.759  -2.494  19.783  1.00  0.00     0.185 C 
BRANCH  16  17
HETATM   17  N4  UNL     1      -3.349  -1.339  20.522  1.00  0.00    -0.075 N 
ATOM     18  H43 UNL     1      -3.479  -0.485  19.980  1.00  0.00     0.274 HD
ATOM     19  H42 UNL     1      -3.992  -1.141  21.289  1.00  0.00     0.274 HD
ATOM     20  H41 UNL     1      -2.389  -1.424  20.855  1.00  0.00     0.274 HD
ENDBRANCH  16  17
BRANCH  16  21
HETATM   21  C6  UNL     1      -4.195  -3.560  20.743  1.00  0.00     0.034 C 
BRANCH  21  22
HETATM   22  C7  UNL     1      -4.752  -4.706  19.913  1.00  0.00     0.020 C 
BRANCH  22  23
HETATM   23  C8  UNL     1      -4.688  -6.014  20.664  1.00  0.00     0.134 C 
BRANCH  23  24
HETATM   24  N5  UNL     1      -5.895  -6.092  21.476  1.00  0.00    -0.148 NA
BRANCH  24  25
HETATM   25  N6  UNL     1      -5.890  -7.222  22.304  1.00  0.00    -0.348 N 
ATOM     26  H62 UNL     1      -5.607  -8.148  21.986  1.00  0.00     0.172 HD
ATOM     27  H61 UNL     1      -6.199  -6.998  23.251  1.00  0.00     0.172 HD
ENDBRANCH  24  25
ENDBRANCH  23  24
ENDBRANCH  22  23
ENDBRANCH  21  22
ENDBRANCH  16  21
ENDBRANCH  15  16
ENDBRANCH   1  15
TORSDOF 10
ENDMDL
