MODEL 1
REMARK VINA RESULT: -7.129198331      0.000      0.000
REMARK  7 active torsions:
REMARK  status: ('A' for Active; 'I' for Inactive)
REMARK    1  A    between atoms: N1_1  and  C1_5 
REMARK    2  A    between atoms: C1_5  and  C2_6 
REMARK    3  A    between atoms: C2_6  and  O1_7 
REMARK    4  A    between atoms: C2_6  and  C3_9 
REMARK    5  A    between atoms: C3_9  and  C4_10 
REMARK    6  A    between atoms: C3_9  and  N2_12 
REMARK    7  A    between atoms: C5_14  and  C6_15 
ROOT
HETATM    1  N2  UNL     1      -1.690  -2.865  18.296  1.00  0.00    -0.385 N 
ATOM      2  H2  UNL     1      -1.098  -3.645  18.582  1.00  0.00     0.159 HD
HETATM    3  C5  UNL     1      -2.920  -2.860  18.648  1.00  0.00     0.104 C 
ENDROOT
BRANCH   1   4
HETATM    4  C3  UNL     1      -1.115  -1.802  17.507  1.00  0.00     0.173 C 
BRANCH   4   5
HETATM    5  C2  UNL     1      -0.101  -2.321  16.507  1.00  0.00     0.172 C 
BRANCH   5   6
HETATM    6  C1  UNL     1       0.772  -3.402  17.099  1.00  0.00     0.263 C 
BRANCH   6   7
HETATM    7  N1  UNL     1       2.163  -3.091  16.930  1.00  0.00    -0.077 N 
ATOM      8  H13 UNL     1       2.454  -3.188  15.958  1.00  0.00     0.274 HD
ATOM      9  H12 UNL     1       2.342  -2.093  17.048  1.00  0.00     0.274 HD
ATOM     10  H11 UNL     1       2.743  -3.652  17.554  1.00  0.00     0.274 HD
ENDBRANCH   6   7
ENDBRANCH   5   6
BRANCH   5  11
HETATM   11  O1  UNL     1      -0.813  -2.863  15.441  1.00  0.00    -0.391 OA
ATOM     12  H1  UNL     1      -1.121  -3.726  15.692  1.00  0.00     0.210 HD
ENDBRANCH   5  11
ENDBRANCH   4   5
BRANCH   4  13
HETATM   13  C4  UNL     1      -0.376  -0.812  18.364  1.00  0.00     0.258 C 
HETATM   14  O2  UNL     1      -0.691   0.353  18.354  1.00  0.00    -0.305 OA
ENDBRANCH   4  13
ENDBRANCH   1   4
BRANCH   3  15
HETATM   15  C6  UNL     1      -3.537  -3.911  19.443  1.00  0.00     0.088 A 
HETATM   16  C7  UNL     1      -3.580  -5.207  18.982  1.00  0.00     0.137 A 
HETATM   17  N3  UNL     1      -3.013  -5.484  17.728  1.00  0.00    -0.081 NA
HETATM   18  N4  UNL     1      -4.151  -6.216  19.701  1.00  0.00    -0.296 N 
HETATM   19  C8  UNL     1      -4.691  -5.951  20.896  1.00  0.00     0.328 A 
ATOM     20  H4  UNL     1      -4.166  -7.166  19.330  1.00  0.00     0.171 HD
HETATM   21  O3  UNL     1      -5.213  -6.894  21.545  1.00  0.00    -0.247 OA
HETATM   22  N5  UNL     1      -4.661  -4.691  21.365  1.00  0.00    -0.275 N 
HETATM   23  C9  UNL     1      -4.105  -3.674  20.680  1.00  0.00     0.264 A 
ATOM     24  H5  UNL     1      -5.075  -4.498  22.276  1.00  0.00     0.173 HD
HETATM   25  O4  UNL     1      -4.103  -2.514  21.166  1.00  0.00    -0.267 OA
ENDBRANCH   3  15
TORSDOF 7
ENDMDL
MODEL 2
REMARK VINA RESULT: -7.061092675      1.347      2.012
REMARK  7 active torsions:
REMARK  status: ('A' for Active; 'I' for Inactive)
REMARK    1  A    between atoms: N1_1  and  C1_5 
REMARK    2  A    between atoms: C1_5  and  C2_6 
REMARK    3  A    between atoms: C2_6  and  O1_7 
REMARK    4  A    between atoms: C2_6  and  C3_9 
REMARK    5  A    between atoms: C3_9  and  C4_10 
REMARK    6  A    between atoms: C3_9  and  N2_12 
REMARK    7  A    between atoms: C5_14  and  C6_15 
ROOT
HETATM    1  N2  UNL     1      -1.542  -2.927  18.231  1.00  0.00    -0.385 N 
ATOM      2  H2  UNL     1      -1.031  -3.801  18.357  1.00  0.00     0.159 HD
HETATM    3  C5  UNL     1      -2.727  -2.829  18.703  1.00  0.00     0.104 C 
ENDROOT
BRANCH   1   4
HETATM    4  C3  UNL     1      -0.907  -1.841  17.525  1.00  0.00     0.173 C 
BRANCH   4   5
HETATM    5  C2  UNL     1      -0.049  -2.333  16.376  1.00  0.00     0.172 C 
BRANCH   5   6
HETATM    6  C1  UNL     1       0.718  -3.582  16.740  1.00  0.00     0.263 C 
BRANCH   6   7
HETATM    7  N1  UNL     1       2.126  -3.317  16.821  1.00  0.00    -0.077 N 
ATOM      8  H13 UNL     1       2.677  -4.128  16.541  1.00  0.00     0.274 HD
ATOM      9  H12 UNL     1       2.429  -2.666  16.096  1.00  0.00     0.274 HD
ATOM     10  H11 UNL     1       2.385  -2.989  17.752  1.00  0.00     0.274 HD
ENDBRANCH   6   7
ENDBRANCH   5   6
BRANCH   5  11
HETATM   11  O1  UNL     1      -0.905  -2.632  15.321  1.00  0.00    -0.391 OA
ATOM     12  H1  UNL     1      -1.214  -3.525  15.427  1.00  0.00     0.210 HD
ENDBRANCH   5  11
ENDBRANCH   4   5
BRANCH   4  13
HETATM   13  C4  UNL     1       0.016  -1.061  18.421  1.00  0.00     0.258 C 
HETATM   14  O2  UNL     1       0.863  -1.631  19.064  1.00  0.00    -0.305 OA
ENDBRANCH   4  13
ENDBRANCH   1   4
BRANCH   3  15
HETATM   15  C6  UNL     1      -3.402  -3.900  19.421  1.00  0.00     0.088 A 
HETATM   16  C7  UNL     1      -3.919  -3.687  20.679  1.00  0.00     0.137 A 
HETATM   17  N3  UNL     1      -3.776  -2.411  21.247  1.00  0.00    -0.081 NA
HETATM   18  N4  UNL     1      -4.557  -4.668  21.379  1.00  0.00    -0.296 N 
HETATM   19  C8  UNL     1      -4.692  -5.884  20.837  1.00  0.00     0.328 A 
ATOM     20  H4  UNL     1      -4.928  -4.476  22.309  1.00  0.00     0.171 HD
HETATM   21  O3  UNL     1      -5.284  -6.777  21.497  1.00  0.00    -0.247 OA
HETATM   22  N5  UNL     1      -4.194  -6.114  19.609  1.00  0.00    -0.275 N 
HETATM   23  C9  UNL     1      -3.559  -5.167  18.893  1.00  0.00     0.264 A 
ATOM     24  H5  UNL     1      -4.302  -7.044  19.204  1.00  0.00     0.173 HD
HETATM   25  O4  UNL     1      -3.113  -5.436  17.748  1.00  0.00    -0.267 OA
ENDBRANCH   3  15
TORSDOF 7
ENDMDL
MODEL 3
REMARK VINA RESULT: -6.882703751      1.528      1.911
REMARK  7 active torsions:
REMARK  status: ('A' for Active; 'I' for Inactive)
REMARK    1  A    between atoms: N1_1  and  C1_5 
REMARK    2  A    between atoms: C1_5  and  C2_6 
REMARK    3  A    between atoms: C2_6  and  O1_7 
REMARK    4  A    between atoms: C2_6  and  C3_9 
REMARK    5  A    between atoms: C3_9  and  C4_10 
REMARK    6  A    between atoms: C3_9  and  N2_12 
REMARK    7  A    between atoms: C5_14  and  C6_15 
ROOT
HETATM    1  N2  UNL     1      -0.876  -3.475  18.415  1.00  0.00    -0.385 N 
ATOM      2  H2  UNL     1      -0.564  -4.338  18.859  1.00  0.00     0.159 HD
HETATM    3  C5  UNL     1      -2.089  -3.101  18.570  1.00  0.00     0.104 C 
ENDROOT
BRANCH   1   4
HETATM    4  C3  UNL     1       0.066  -2.712  17.630  1.00  0.00     0.173 C 
BRANCH   4   5
HETATM    5  C2  UNL     1      -0.612  -1.956  16.505  1.00  0.00     0.172 C 
BRANCH   5   6
HETATM    6  C1  UNL     1       0.200  -0.763  16.059  1.00  0.00     0.263 C 
BRANCH   6   7
HETATM    7  N1  UNL     1       0.436   0.137  17.151  1.00  0.00    -0.077 N 
ATOM      8  H13 UNL     1      -0.433   0.402  17.614  1.00  0.00     0.274 HD
ATOM      9  H12 UNL     1       0.892  -0.332  17.933  1.00  0.00     0.274 HD
ATOM     10  H11 UNL     1       0.964   0.955  16.845  1.00  0.00     0.274 HD
ENDBRANCH   6   7
ENDBRANCH   5   6
BRANCH   5  11
HETATM   11  O1  UNL     1      -0.733  -2.833  15.432  1.00  0.00    -0.391 OA
ATOM     12  H1  UNL     1      -0.412  -2.400  14.650  1.00  0.00     0.210 HD
ENDBRANCH   5  11
ENDBRANCH   4   5
BRANCH   4  13
HETATM   13  C4  UNL     1       1.087  -3.598  16.973  1.00  0.00     0.258 C 
HETATM   14  O2  UNL     1       2.257  -3.301  17.001  1.00  0.00    -0.305 OA
ENDBRANCH   4  13
ENDBRANCH   1   4
BRANCH   3  15
HETATM   15  C6  UNL     1      -3.068  -3.840  19.353  1.00  0.00     0.088 A 
HETATM   16  C7  UNL     1      -3.475  -5.096  18.964  1.00  0.00     0.137 A 
HETATM   17  N3  UNL     1      -2.920  -5.641  17.794  1.00  0.00    -0.081 NA
HETATM   18  N4  UNL     1      -4.390  -5.816  19.673  1.00  0.00    -0.296 N 
HETATM   19  C8  UNL     1      -4.919  -5.297  20.787  1.00  0.00     0.328 A 
ATOM     20  H4  UNL     1      -4.670  -6.745  19.356  1.00  0.00     0.171 HD
HETATM   21  O3  UNL     1      -5.762  -5.976  21.429  1.00  0.00    -0.247 OA
HETATM   22  N5  UNL     1      -4.536  -4.071  21.185  1.00  0.00    -0.275 N 
HETATM   23  C9  UNL     1      -3.635  -3.335  20.507  1.00  0.00     0.264 A 
ATOM     24  H5  UNL     1      -4.944  -3.682  22.035  1.00  0.00     0.173 HD
HETATM   25  O4  UNL     1      -3.311  -2.194  20.925  1.00  0.00    -0.267 OA
ENDBRANCH   3  15
TORSDOF 7
ENDMDL
MODEL 4
REMARK VINA RESULT: -6.879266455      0.974      1.755
REMARK  7 active torsions:
REMARK  status: ('A' for Active; 'I' for Inactive)
REMARK    1  A    between atoms: N1_1  and  C1_5 
REMARK    2  A    between atoms: C1_5  and  C2_6 
REMARK    3  A    between atoms: C2_6  and  O1_7 
REMARK    4  A    between atoms: C2_6  and  C3_9 
REMARK    5  A    between atoms: C3_9  and  C4_10 
REMARK    6  A    between atoms: C3_9  and  N2_12 
REMARK    7  A    between atoms: C5_14  and  C6_15 
ROOT
HETATM    1  N2  UNL     1      -0.937  -3.441  18.310  1.00  0.00    -0.385 N 
ATOM      2  H2  UNL     1      -0.608  -4.305  18.742  1.00  0.00     0.159 HD
HETATM    3  C5  UNL     1      -2.143  -3.067  18.514  1.00  0.00     0.104 C 
ENDROOT
BRANCH   1   4
HETATM    4  C3  UNL     1      -0.027  -2.679  17.490  1.00  0.00     0.173 C 
BRANCH   4   5
HETATM    5  C2  UNL     1       0.586  -1.518  18.248  1.00  0.00     0.172 C 
BRANCH   5   6
HETATM    6  C1  UNL     1       2.091  -1.494  18.121  1.00  0.00     0.263 C 
BRANCH   6   7
HETATM    7  N1  UNL     1       2.551  -2.525  17.236  1.00  0.00    -0.077 N 
ATOM      8  H13 UNL     1       1.790  -3.144  16.953  1.00  0.00     0.274 HD
ATOM      9  H12 UNL     1       2.796  -2.152  16.319  1.00  0.00     0.274 HD
ATOM     10  H11 UNL     1       3.325  -3.046  17.649  1.00  0.00     0.274 HD
ENDBRANCH   6   7
ENDBRANCH   5   6
BRANCH   5  11
HETATM   11  O1  UNL     1       0.078  -0.348  17.692  1.00  0.00    -0.391 OA
ATOM     12  H1  UNL     1      -0.505   0.057  18.324  1.00  0.00     0.210 HD
ENDBRANCH   5  11
ENDBRANCH   4   5
BRANCH   4  13
HETATM   13  C4  UNL     1      -0.723  -2.073  16.303  1.00  0.00     0.258 C 
HETATM   14  O2  UNL     1      -0.791  -2.681  15.263  1.00  0.00    -0.305 OA
ENDBRANCH   4  13
ENDBRANCH   1   4
BRANCH   3  15
HETATM   15  C6  UNL     1      -3.091  -3.806  19.334  1.00  0.00     0.088 A 
HETATM   16  C7  UNL     1      -3.487  -5.076  18.979  1.00  0.00     0.137 A 
HETATM   17  N3  UNL     1      -2.952  -5.634  17.806  1.00  0.00    -0.081 NA
HETATM   18  N4  UNL     1      -4.373  -5.796  19.724  1.00  0.00    -0.296 N 
HETATM   19  C8  UNL     1      -4.883  -5.264  20.841  1.00  0.00     0.328 A 
ATOM     20  H4  UNL     1      -4.646  -6.735  19.432  1.00  0.00     0.171 HD
HETATM   21  O3  UNL     1      -5.699  -5.943  21.516  1.00  0.00    -0.247 OA
HETATM   22  N5  UNL     1      -4.509  -4.024  21.205  1.00  0.00    -0.275 N 
HETATM   23  C9  UNL     1      -3.637  -3.288  20.492  1.00  0.00     0.264 A 
ATOM     24  H5  UNL     1      -4.902  -3.626  22.058  1.00  0.00     0.173 HD
HETATM   25  O4  UNL     1      -3.322  -2.134  20.880  1.00  0.00    -0.267 OA
ENDBRANCH   3  15
TORSDOF 7
ENDMDL
MODEL 5
REMARK VINA RESULT: -6.824056128      1.578      2.593
REMARK  7 active torsions:
REMARK  status: ('A' for Active; 'I' for Inactive)
REMARK    1  A    between atoms: N1_1  and  C1_5 
REMARK    2  A    between atoms: C1_5  and  C2_6 
REMARK    3  A    between atoms: C2_6  and  O1_7 
REMARK    4  A    between atoms: C2_6  and  C3_9 
REMARK    5  A    between atoms: C3_9  and  C4_10 
REMARK    6  A    between atoms: C3_9  and  N2_12 
REMARK    7  A    between atoms: C5_14  and  C6_15 
ROOT
HETATM    1  N2  UNL     1      -0.898  -3.481  18.223  1.00  0.00    -0.385 N 
ATOM      2  H2  UNL     1      -0.609  -4.403  18.551  1.00  0.00     0.159 HD
HETATM    3  C5  UNL     1      -2.077  -3.068  18.495  1.00  0.00     0.104 C 
ENDROOT
BRANCH   1   4
HETATM    4  C3  UNL     1       0.037  -2.684  17.466  1.00  0.00     0.173 C 
BRANCH   4   5
HETATM    5  C2  UNL     1       0.607  -1.544  18.287  1.00  0.00     0.172 C 
BRANCH   5   6
HETATM    6  C1  UNL     1       2.113  -1.481  18.194  1.00  0.00     0.263 C 
BRANCH   6   7
HETATM    7  N1  UNL     1       2.609  -2.411  17.220  1.00  0.00    -0.077 N 
ATOM      8  H13 UNL     1       3.293  -3.050  17.625  1.00  0.00     0.274 HD
ATOM      9  H12 UNL     1       1.898  -3.092  16.954  1.00  0.00     0.274 HD
ATOM     10  H11 UNL     1       2.985  -1.924  16.406  1.00  0.00     0.274 HD
ENDBRANCH   6   7
ENDBRANCH   5   6
BRANCH   5  11
HETATM   11  O1  UNL     1       0.083  -0.362  17.772  1.00  0.00    -0.391 OA
ATOM     12  H1  UNL     1      -0.375  -0.562  16.964  1.00  0.00     0.210 HD
ENDBRANCH   5  11
ENDBRANCH   4   5
BRANCH   4  13
HETATM   13  C4  UNL     1      -0.617  -2.044  16.273  1.00  0.00     0.258 C 
HETATM   14  O2  UNL     1      -0.860  -2.700  15.289  1.00  0.00    -0.305 OA
ENDBRANCH   4  13
ENDBRANCH   1   4
BRANCH   3  15
HETATM   15  C6  UNL     1      -3.048  -3.841  19.255  1.00  0.00     0.088 A 
HETATM   16  C7  UNL     1      -3.643  -3.312  20.378  1.00  0.00     0.137 A 
HETATM   17  N3  UNL     1      -3.287  -2.010  20.767  1.00  0.00    -0.081 NA
HETATM   18  N4  UNL     1      -4.557  -4.008  21.114  1.00  0.00    -0.296 N 
HETATM   19  C8  UNL     1      -4.896  -5.248  20.743  1.00  0.00     0.328 A 
ATOM     20  H4  UNL     1      -4.979  -3.585  21.941  1.00  0.00     0.171 HD
HETATM   21  O3  UNL     1      -5.741  -5.875  21.433  1.00  0.00    -0.247 OA
HETATM   22  N5  UNL     1      -4.326  -5.784  19.649  1.00  0.00    -0.275 N 
HETATM   23  C9  UNL     1      -3.422  -5.123  18.903  1.00  0.00     0.264 A 
ATOM     24  H5  UNL     1      -4.590  -6.729  19.373  1.00  0.00     0.173 HD
HETATM   25  O4  UNL     1      -2.921  -5.672  17.888  1.00  0.00    -0.267 OA
ENDBRANCH   3  15
TORSDOF 7
ENDMDL
