MODEL 1
REMARK VINA RESULT: -7.986713687      0.000      0.000
REMARK  9 active torsions:
REMARK  status: ('A' for Active; 'I' for Inactive)
REMARK    1  A    between atoms: N1_1  and  C1_5 
REMARK    2  A    between atoms: C1_5  and  C2_6 
REMARK    3  A    between atoms: C2_6  and  N2_7 
REMARK    4  A    between atoms: C2_6  and  C3_12 
REMARK    5  A    between atoms: N2_7  and  N3_9 
REMARK    6  A    between atoms: C5_14  and  C6_15 
REMARK    7  A    between atoms: C7_20  and  N6_21 
REMARK    8  A    between atoms: N6_21  and  N7_23 
REMARK    9  A    between atoms: N7_23  and  C8_25 
ROOT
HETATM    1  C3  UNL     1      -3.581  -3.397  20.119  1.00  0.00     0.054 A 
HETATM    2  C4  UNL     1      -3.705  -2.042  20.345  1.00  0.00     0.063 A 
HETATM    3  C5  UNL     1      -2.845  -1.194  19.678  1.00  0.00     0.116 A 
HETATM    4  N5  UNL     1      -1.915  -1.659  18.835  1.00  0.00    -0.185 N 
ATOM      5  H5  UNL     1      -1.283  -1.023  18.347  1.00  0.00     0.184 HD
HETATM    6  C7  UNL     1      -1.835  -2.995  18.650  1.00  0.00     0.697 A 
HETATM    7  N8  UNL     1      -2.652  -3.832  19.279  1.00  0.00    -0.192 N 
ATOM      8  H8  UNL     1      -2.562  -4.834  19.112  1.00  0.00     0.184 HD
ENDROOT
BRANCH   1   9
HETATM    9  C2  UNL     1      -4.510  -4.310  20.838  1.00  0.00     0.174 C 
BRANCH   9  10
HETATM   10  C1  UNL     1      -3.979  -4.496  22.248  1.00  0.00     0.262 C 
BRANCH  10  11
HETATM   11  N1  UNL     1      -5.097  -4.605  23.137  1.00  0.00    -0.077 N 
ATOM     12  H13 UNL     1      -5.687  -3.774  23.130  1.00  0.00     0.274 HD
ATOM     13  H12 UNL     1      -5.795  -5.273  22.810  1.00  0.00     0.274 HD
ATOM     14  H11 UNL     1      -4.743  -4.828  24.067  1.00  0.00     0.274 HD
ENDBRANCH  10  11
ENDBRANCH   9  10
BRANCH   9  15
HETATM   15  N2  UNL     1      -4.571  -5.537  20.107  1.00  0.00    -0.331 N 
ATOM     16  H2  UNL     1      -4.869  -5.579  19.133  1.00  0.00     0.180 HD
BRANCH  15  17
HETATM   17  N3  UNL     1      -4.198  -6.658  20.814  1.00  0.00    -0.349 N 
ATOM     18  H32 UNL     1      -3.441  -6.630  21.497  1.00  0.00     0.176 HD
ATOM     19  H31 UNL     1      -4.731  -7.501  20.602  1.00  0.00     0.176 HD
ENDBRANCH  15  17
ENDBRANCH   9  15
ENDBRANCH   1   9
BRANCH   3  20
HETATM   20  C6  UNL     1      -2.962   0.236  19.905  1.00  0.00     0.282 C 
HETATM   21  N4  UNL     1      -2.276   0.912  20.945  1.00  0.00    -0.056 NA
HETATM   22  O1  UNL     1      -3.700   0.943  19.163  1.00  0.00    -0.269 OA
ENDBRANCH   3  20
BRANCH   6  23
HETATM   23  N6  UNL     1      -0.942  -3.418  17.842  1.00  0.00    -0.130 N 
ATOM     24  H6  UNL     1      -0.912  -4.401  17.572  1.00  0.00     0.205 HD
BRANCH  23  25
HETATM   25  N7  UNL     1      -0.002  -2.512  17.331  1.00  0.00    -0.263 N 
ATOM     26  H7  UNL     1       0.723  -2.138  17.944  1.00  0.00     0.190 HD
BRANCH  25  27
HETATM   27  C8  UNL     1      -0.047  -2.111  15.972  1.00  0.00     0.369 C 
HETATM   28  O2  UNL     1      -0.941  -2.603  15.230  1.00  0.00    -0.282 OA
ENDBRANCH  25  27
ENDBRANCH  23  25
ENDBRANCH   6  23
TORSDOF 9
ENDMDL
MODEL 2
REMARK VINA RESULT: -7.918409975      1.163      1.163
REMARK  9 active torsions:
REMARK  status: ('A' for Active; 'I' for Inactive)
REMARK    1  A    between atoms: N1_1  and  C1_5 
REMARK    2  A    between atoms: C1_5  and  C2_6 
REMARK    3  A    between atoms: C2_6  and  N2_7 
REMARK    4  A    between atoms: C2_6  and  C3_12 
REMARK    5  A    between atoms: N2_7  and  N3_9 
REMARK    6  A    between atoms: C5_14  and  C6_15 
REMARK    7  A    between atoms: C7_20  and  N6_21 
REMARK    8  A    between atoms: N6_21  and  N7_23 
REMARK    9  A    between atoms: N7_23  and  C8_25 
ROOT
HETATM    1  C3  UNL     1      -3.477  -3.422  19.973  1.00  0.00     0.054 A 
HETATM    2  C4  UNL     1      -3.632  -2.073  20.214  1.00  0.00     0.063 A 
HETATM    3  C5  UNL     1      -2.795  -1.197  19.553  1.00  0.00     0.116 A 
HETATM    4  N5  UNL     1      -1.858  -1.631  18.701  1.00  0.00    -0.185 N 
ATOM      5  H5  UNL     1      -1.244  -0.975  18.218  1.00  0.00     0.184 HD
HETATM    6  C7  UNL     1      -1.747  -2.962  18.500  1.00  0.00     0.697 A 
HETATM    7  N8  UNL     1      -2.542  -3.826  19.124  1.00  0.00    -0.192 N 
ATOM      8  H8  UNL     1      -2.429  -4.823  18.945  1.00  0.00     0.184 HD
ENDROOT
BRANCH   1   9
HETATM    9  C2  UNL     1      -4.380  -4.364  20.685  1.00  0.00     0.174 C 
BRANCH   9  10
HETATM   10  C1  UNL     1      -3.855  -4.530  22.100  1.00  0.00     0.262 C 
BRANCH  10  11
HETATM   11  N1  UNL     1      -4.972  -4.513  22.997  1.00  0.00    -0.077 N 
ATOM     12  H13 UNL     1      -5.507  -3.648  22.941  1.00  0.00     0.274 HD
ATOM     13  H12 UNL     1      -5.714  -5.153  22.713  1.00  0.00     0.274 HD
ATOM     14  H11 UNL     1      -4.627  -4.703  23.938  1.00  0.00     0.274 HD
ENDBRANCH  10  11
ENDBRANCH   9  10
BRANCH   9  15
HETATM   15  N2  UNL     1      -4.394  -5.594  19.956  1.00  0.00    -0.331 N 
ATOM     16  H2  UNL     1      -4.486  -5.627  18.941  1.00  0.00     0.180 HD
BRANCH  15  17
HETATM   17  N3  UNL     1      -4.275  -6.730  20.723  1.00  0.00    -0.349 N 
ATOM     18  H32 UNL     1      -3.401  -7.254  20.769  1.00  0.00     0.176 HD
ATOM     19  H31 UNL     1      -5.117  -6.999  21.233  1.00  0.00     0.176 HD
ENDBRANCH  15  17
ENDBRANCH   9  15
ENDBRANCH   1   9
BRANCH   3  20
HETATM   20  C6  UNL     1      -2.944   0.227  19.797  1.00  0.00     0.282 C 
HETATM   21  N4  UNL     1      -2.276   0.906  20.846  1.00  0.00    -0.056 NA
HETATM   22  O1  UNL     1      -3.696   0.926  19.061  1.00  0.00    -0.269 OA
ENDBRANCH   3  20
BRANCH   6  23
HETATM   23  N6  UNL     1      -0.848  -3.355  17.684  1.00  0.00    -0.130 N 
ATOM     24  H6  UNL     1      -1.106  -3.728  16.770  1.00  0.00     0.205 HD
BRANCH  23  25
HETATM   25  N7  UNL     1       0.499  -3.266  18.060  1.00  0.00    -0.263 N 
ATOM     26  H7  UNL     1       0.758  -3.378  19.040  1.00  0.00     0.190 HD
BRANCH  25  27
HETATM   27  C8  UNL     1       1.506  -3.022  17.093  1.00  0.00     0.369 C 
HETATM   28  O2  UNL     1       2.655  -2.686  17.494  1.00  0.00    -0.282 OA
ENDBRANCH  25  27
ENDBRANCH  23  25
ENDBRANCH   6  23
TORSDOF 9
ENDMDL
MODEL 3
REMARK VINA RESULT: -7.251943837      1.596      4.074
REMARK  9 active torsions:
REMARK  status: ('A' for Active; 'I' for Inactive)
REMARK    1  A    between atoms: N1_1  and  C1_5 
REMARK    2  A    between atoms: C1_5  and  C2_6 
REMARK    3  A    between atoms: C2_6  and  N2_7 
REMARK    4  A    between atoms: C2_6  and  C3_12 
REMARK    5  A    between atoms: N2_7  and  N3_9 
REMARK    6  A    between atoms: C5_14  and  C6_15 
REMARK    7  A    between atoms: C7_20  and  N6_21 
REMARK    8  A    between atoms: N6_21  and  N7_23 
REMARK    9  A    between atoms: N7_23  and  C8_25 
ROOT
HETATM    1  C3  UNL     1      -3.584  -3.328  19.950  1.00  0.00     0.054 A 
HETATM    2  C4  UNL     1      -2.571  -3.767  19.123  1.00  0.00     0.063 A 
HETATM    3  C5  UNL     1      -1.822  -2.818  18.458  1.00  0.00     0.116 A 
HETATM    4  N5  UNL     1      -2.060  -1.509  18.603  1.00  0.00    -0.185 N 
ATOM      5  H5  UNL     1      -1.500  -0.815  18.107  1.00  0.00     0.184 HD
HETATM    6  C7  UNL     1      -3.064  -1.132  19.425  1.00  0.00     0.697 A 
HETATM    7  N8  UNL     1      -3.799  -2.026  20.077  1.00  0.00    -0.192 N 
ATOM      8  H8  UNL     1      -4.548  -1.703  20.689  1.00  0.00     0.184 HD
ENDROOT
BRANCH   1   9
HETATM    9  C2  UNL     1      -4.390  -4.353  20.666  1.00  0.00     0.174 C 
BRANCH   9  10
HETATM   10  C1  UNL     1      -3.849  -4.465  22.079  1.00  0.00     0.262 C 
BRANCH  10  11
HETATM   11  N1  UNL     1      -4.960  -4.510  22.982  1.00  0.00    -0.077 N 
ATOM     12  H13 UNL     1      -5.795  -4.067  22.600  1.00  0.00     0.274 HD
ATOM     13  H12 UNL     1      -5.341  -5.450  23.090  1.00  0.00     0.274 HD
ATOM     14  H11 UNL     1      -4.667  -4.099  23.868  1.00  0.00     0.274 HD
ENDBRANCH  10  11
ENDBRANCH   9  10
BRANCH   9  15
HETATM   15  N2  UNL     1      -4.285  -5.580  19.938  1.00  0.00    -0.331 N 
ATOM     16  H2  UNL     1      -4.200  -5.607  18.922  1.00  0.00     0.180 HD
BRANCH  15  17
HETATM   17  N3  UNL     1      -4.307  -6.720  20.709  1.00  0.00    -0.349 N 
ATOM     18  H32 UNL     1      -4.487  -6.682  21.713  1.00  0.00     0.176 HD
ATOM     19  H31 UNL     1      -4.133  -7.588  20.203  1.00  0.00     0.176 HD
ENDBRANCH  15  17
ENDBRANCH   9  15
ENDBRANCH   1   9
BRANCH   3  20
HETATM   20  C6  UNL     1      -0.752  -3.264  17.582  1.00  0.00     0.282 C 
HETATM   21  N4  UNL     1      -0.758  -3.046  16.182  1.00  0.00    -0.056 NA
HETATM   22  O1  UNL     1       0.246  -3.878  18.054  1.00  0.00    -0.269 OA
ENDBRANCH   3  20
BRANCH   6  23
HETATM   23  N6  UNL     1      -3.274   0.121  19.550  1.00  0.00    -0.130 N 
ATOM     24  H6  UNL     1      -3.392   0.711  18.726  1.00  0.00     0.205 HD
BRANCH  23  25
HETATM   25  N7  UNL     1      -3.340   0.676  20.835  1.00  0.00    -0.263 N 
ATOM     26  H7  UNL     1      -4.246   0.928  21.230  1.00  0.00     0.190 HD
BRANCH  25  27
HETATM   27  C8  UNL     1      -2.161   0.890  21.593  1.00  0.00     0.369 C 
HETATM   28  O2  UNL     1      -2.214   1.682  22.574  1.00  0.00    -0.282 OA
ENDBRANCH  25  27
ENDBRANCH  23  25
ENDBRANCH   6  23
TORSDOF 9
ENDMDL
MODEL 4
REMARK VINA RESULT: -7.116330325      1.270      1.818
REMARK  9 active torsions:
REMARK  status: ('A' for Active; 'I' for Inactive)
REMARK    1  A    between atoms: N1_1  and  C1_5 
REMARK    2  A    between atoms: C1_5  and  C2_6 
REMARK    3  A    between atoms: C2_6  and  N2_7 
REMARK    4  A    between atoms: C2_6  and  C3_12 
REMARK    5  A    between atoms: N2_7  and  N3_9 
REMARK    6  A    between atoms: C5_14  and  C6_15 
REMARK    7  A    between atoms: C7_20  and  N6_21 
REMARK    8  A    between atoms: N6_21  and  N7_23 
REMARK    9  A    between atoms: N7_23  and  C8_25 
ROOT
HETATM    1  C3  UNL     1      -3.082  -3.527  20.142  1.00  0.00     0.054 A 
HETATM    2  C4  UNL     1      -3.356  -2.194  20.367  1.00  0.00     0.063 A 
HETATM    3  C5  UNL     1      -2.761  -1.263  19.542  1.00  0.00     0.116 A 
HETATM    4  N5  UNL     1      -1.940  -1.628  18.549  1.00  0.00    -0.185 N 
ATOM      5  H5  UNL     1      -1.504  -0.932  17.945  1.00  0.00     0.184 HD
HETATM    6  C7  UNL     1      -1.705  -2.947  18.371  1.00  0.00     0.697 A 
HETATM    7  N8  UNL     1      -2.267  -3.863  19.152  1.00  0.00    -0.192 N 
ATOM      8  H8  UNL     1      -2.066  -4.849  18.985  1.00  0.00     0.184 HD
ENDROOT
BRANCH   1   9
HETATM    9  C2  UNL     1      -3.726  -4.530  21.032  1.00  0.00     0.174 C 
BRANCH   9  10
HETATM   10  C1  UNL     1      -4.624  -5.403  20.175  1.00  0.00     0.262 C 
BRANCH  10  11
HETATM   11  N1  UNL     1      -4.361  -6.772  20.501  1.00  0.00    -0.077 N 
ATOM     12  H13 UNL     1      -3.389  -7.034  20.342  1.00  0.00     0.274 HD
ATOM     13  H12 UNL     1      -4.389  -6.950  21.505  1.00  0.00     0.274 HD
ATOM     14  H11 UNL     1      -5.015  -7.356  19.979  1.00  0.00     0.274 HD
ENDBRANCH  10  11
ENDBRANCH   9  10
BRANCH   9  15
HETATM   15  N2  UNL     1      -4.450  -3.819  22.040  1.00  0.00    -0.331 N 
ATOM     16  H2  UNL     1      -4.662  -2.825  21.963  1.00  0.00     0.180 HD
BRANCH  15  17
HETATM   17  N3  UNL     1      -4.841  -4.575  23.122  1.00  0.00    -0.349 N 
ATOM     18  H32 UNL     1      -4.853  -5.595  23.084  1.00  0.00     0.176 HD
ATOM     19  H31 UNL     1      -5.111  -4.042  23.948  1.00  0.00     0.176 HD
ENDBRANCH  15  17
ENDBRANCH   9  15
ENDBRANCH   1   9
BRANCH   3  20
HETATM   20  C6  UNL     1      -3.038   0.145  19.766  1.00  0.00     0.282 C 
HETATM   21  N4  UNL     1      -2.451   0.890  20.819  1.00  0.00    -0.056 NA
HETATM   22  O1  UNL     1      -3.834   0.768  19.009  1.00  0.00    -0.269 OA
ENDBRANCH   3  20
BRANCH   6  23
HETATM   23  N6  UNL     1      -0.920  -3.274  17.419  1.00  0.00    -0.130 N 
ATOM     24  H6  UNL     1      -1.231  -3.217  16.449  1.00  0.00     0.205 HD
BRANCH  23  25
HETATM   25  N7  UNL     1       0.376  -3.713  17.724  1.00  0.00    -0.263 N 
ATOM     26  H7  UNL     1       0.526  -4.318  18.532  1.00  0.00     0.190 HD
BRANCH  25  27
HETATM   27  C8  UNL     1       1.479  -3.327  16.922  1.00  0.00     0.369 C 
HETATM   28  O2  UNL     1       2.461  -2.766  17.482  1.00  0.00    -0.282 OA
ENDBRANCH  25  27
ENDBRANCH  23  25
ENDBRANCH   6  23
TORSDOF 9
ENDMDL
MODEL 5
REMARK VINA RESULT: -7.104384818      2.279      5.252
REMARK  9 active torsions:
REMARK  status: ('A' for Active; 'I' for Inactive)
REMARK    1  A    between atoms: N1_1  and  C1_5 
REMARK    2  A    between atoms: C1_5  and  C2_6 
REMARK    3  A    between atoms: C2_6  and  N2_7 
REMARK    4  A    between atoms: C2_6  and  C3_12 
REMARK    5  A    between atoms: N2_7  and  N3_9 
REMARK    6  A    between atoms: C5_14  and  C6_15 
REMARK    7  A    between atoms: C7_20  and  N6_21 
REMARK    8  A    between atoms: N6_21  and  N7_23 
REMARK    9  A    between atoms: N7_23  and  C8_25 
ROOT
HETATM    1  C3  UNL     1      -0.878  -1.874  18.299  1.00  0.00     0.054 A 
HETATM    2  C4  UNL     1      -1.222  -0.742  19.008  1.00  0.00     0.063 A 
HETATM    3  C5  UNL     1      -2.339  -0.798  19.815  1.00  0.00     0.116 A 
HETATM    4  N5  UNL     1      -3.075  -1.912  19.917  1.00  0.00    -0.185 N 
ATOM      5  H5  UNL     1      -3.900  -1.943  20.517  1.00  0.00     0.184 HD
HETATM    6  C7  UNL     1      -2.695  -2.993  19.201  1.00  0.00     0.697 A 
HETATM    7  N8  UNL     1      -1.623  -2.964  18.417  1.00  0.00    -0.192 N 
ATOM      8  H8  UNL     1      -1.368  -3.801  17.893  1.00  0.00     0.184 HD
ENDROOT
BRANCH   1   9
HETATM    9  C2  UNL     1       0.327  -1.811  17.429  1.00  0.00     0.174 C 
BRANCH   9  10
HETATM   10  C1  UNL     1       0.239  -2.950  16.431  1.00  0.00     0.262 C 
BRANCH  10  11
HETATM   11  N1  UNL     1       1.266  -3.899  16.742  1.00  0.00    -0.077 N 
ATOM     12  H13 UNL     1       2.146  -3.455  17.001  1.00  0.00     0.274 HD
ATOM     13  H12 UNL     1       1.095  -4.389  17.621  1.00  0.00     0.274 HD
ATOM     14  H11 UNL     1       1.364  -4.534  15.950  1.00  0.00     0.274 HD
ENDBRANCH  10  11
ENDBRANCH   9  10
BRANCH   9  15
HETATM   15  N2  UNL     1       1.480  -1.905  18.271  1.00  0.00    -0.331 N 
ATOM     16  H2  UNL     1       1.557  -2.597  19.016  1.00  0.00     0.180 HD
BRANCH  15  17
HETATM   17  N3  UNL     1       2.476  -0.995  18.001  1.00  0.00    -0.349 N 
ATOM     18  H32 UNL     1       2.267  -0.013  17.820  1.00  0.00     0.176 HD
ATOM     19  H31 UNL     1       3.422  -1.377  17.998  1.00  0.00     0.176 HD
ENDBRANCH  15  17
ENDBRANCH   9  15
ENDBRANCH   1   9
BRANCH   3  20
HETATM   20  C6  UNL     1      -2.715   0.386  20.568  1.00  0.00     0.282 C 
HETATM   21  N4  UNL     1      -1.966   0.873  21.668  1.00  0.00    -0.056 NA
HETATM   22  O1  UNL     1      -3.751   1.038  20.258  1.00  0.00    -0.269 OA
ENDBRANCH   3  20
BRANCH   6  23
HETATM   23  N6  UNL     1      -3.410  -4.045  19.313  1.00  0.00    -0.130 N 
ATOM     24  H6  UNL     1      -3.796  -4.498  18.485  1.00  0.00     0.205 HD
BRANCH  23  25
HETATM   25  N7  UNL     1      -3.659  -4.567  20.590  1.00  0.00    -0.263 N 
ATOM     26  H7  UNL     1      -3.087  -4.264  21.379  1.00  0.00     0.190 HD
BRANCH  25  27
HETATM   27  C8  UNL     1      -4.695  -5.512  20.797  1.00  0.00     0.369 C 
HETATM   28  O2  UNL     1      -4.492  -6.710  20.457  1.00  0.00    -0.282 OA
ENDBRANCH  25  27
ENDBRANCH  23  25
ENDBRANCH   6  23
TORSDOF 9
ENDMDL
