MODEL 1
REMARK VINA RESULT: -7.195364960      0.000      0.000
REMARK  6 active torsions:
REMARK  status: ('A' for Active; 'I' for Inactive)
REMARK    1  A    between atoms: C2_2  and  C3_3 
REMARK    2  A    between atoms: C4_6  and  N2_7 
REMARK       I    between atoms: N2_7  and  C5_9 
REMARK    3  A    between atoms: C5_9  and  C6_11 
REMARK       I    between atoms: C6_11  and  N3_13 
REMARK    4  A    between atoms: N3_13  and  C7_15 
REMARK    5  A    between atoms: C7_15  and  C8_16 
REMARK       I    between atoms: C8_16  and  N4_18 
REMARK    6  A    between atoms: N4_18  and  C9_20 
ROOT
HETATM    1  N2  UNL     1     -37.040 171.128  75.060  1.00  0.00    -0.151 N 
ATOM      2  H2  UNL     1     -36.300 170.639  74.556  1.00  0.00     0.188 HD
HETATM    3  C5  UNL     1     -37.394 170.672  76.356  1.00  0.00     0.327 C 
HETATM    4  O1  UNL     1     -38.559 170.227  76.605  1.00  0.00    -0.261 OA
ENDROOT
BRANCH   3   5
HETATM    5  C6  UNL     1     -36.427 170.696  77.450  1.00  0.00     0.310 C 
HETATM    6  O2  UNL     1     -36.138 169.578  77.998  1.00  0.00    -0.262 OA
HETATM    7  N3  UNL     1     -35.837 171.910  77.880  1.00  0.00    -0.344 N 
ATOM      8  H3  UNL     1     -36.109 172.772  77.409  1.00  0.00     0.163 HD
BRANCH   7   9
HETATM    9  C7  UNL     1     -34.887 171.989  78.936  1.00  0.00     0.225 C 
BRANCH   9  10
HETATM   10  C8  UNL     1     -33.493 171.990  78.449  1.00  0.00     0.235 C 
HETATM   11  O3  UNL     1     -33.243 172.212  77.242  1.00  0.00    -0.272 OA
HETATM   12  N4  UNL     1     -32.416 171.739  79.343  1.00  0.00    -0.352 N 
ATOM     13  H4  UNL     1     -32.624 171.558  80.325  1.00  0.00     0.163 HD
BRANCH  12  14
HETATM   14  C9  UNL     1     -31.034 171.730  78.910  1.00  0.00     0.022 C 
HETATM   15  C10 UNL     1     -30.635 173.120  78.524  1.00  0.00     0.037 C 
HETATM   16  C11 UNL     1     -30.194 171.202  80.063  1.00  0.00     0.037 C 
HETATM   17  C12 UNL     1     -30.861 170.747  77.773  1.00  0.00     0.037 C 
ENDBRANCH  12  14
ENDBRANCH   9  10
ENDBRANCH   7   9
ENDBRANCH   3   5
BRANCH   1  18
HETATM   18  C4  UNL     1     -37.614 172.134  74.490  1.00  0.00     0.688 A 
HETATM   19  N1  UNL     1     -37.695 172.305  73.166  1.00  0.00    -0.194 N 
HETATM   20  C3  UNL     1     -38.291 173.352  72.576  1.00  0.00     0.049 A 
ATOM     21  H1  UNL     1     -37.276 171.594  72.567  1.00  0.00     0.184 HD
HETATM   22  C14 UNL     1     -38.856 174.314  73.388  1.00  0.00     0.102 A 
HETATM   23  C13 UNL     1     -38.766 174.124  74.754  1.00  0.00     0.279 A 
HETATM   24 BR1  UNL     1     -39.728 175.843  72.619  1.00  0.00    -0.043 Br
HETATM   25  N5  UNL     1     -38.164 173.067  75.320  1.00  0.00    -0.155 N 
HETATM   26  O4  UNL     1     -39.297 175.028  75.469  1.00  0.00    -0.266 OA
ATOM     27  H5  UNL     1     -38.119 172.966  76.333  1.00  0.00     0.187 HD
BRANCH  20  28
HETATM   28  C2  UNL     1     -38.325 173.446  71.096  1.00  0.00     0.055 C 
HETATM   29  C1  UNL     1     -38.265 172.087  70.436  1.00  0.00     0.011 C 
ENDBRANCH  20  28
ENDBRANCH   1  18
TORSDOF 6
ENDMDL
MODEL 2
REMARK VINA RESULT: -6.971376864      3.980      6.077
REMARK  6 active torsions:
REMARK  status: ('A' for Active; 'I' for Inactive)
REMARK    1  A    between atoms: C2_2  and  C3_3 
REMARK    2  A    between atoms: C4_6  and  N2_7 
REMARK       I    between atoms: N2_7  and  C5_9 
REMARK    3  A    between atoms: C5_9  and  C6_11 
REMARK       I    between atoms: C6_11  and  N3_13 
REMARK    4  A    between atoms: N3_13  and  C7_15 
REMARK    5  A    between atoms: C7_15  and  C8_16 
REMARK       I    between atoms: C8_16  and  N4_18 
REMARK    6  A    between atoms: N4_18  and  C9_20 
ROOT
HETATM    1  N2  UNL     1     -38.887 172.817  75.694  1.00  0.00    -0.151 N 
ATOM      2  H2  UNL     1     -39.549 172.978  76.453  1.00  0.00     0.188 HD
HETATM    3  C5  UNL     1     -37.805 171.927  75.915  1.00  0.00     0.327 C 
HETATM    4  O1  UNL     1     -36.599 172.327  75.865  1.00  0.00    -0.261 OA
ENDROOT
BRANCH   3   5
HETATM    5  C6  UNL     1     -38.043 170.516  76.209  1.00  0.00     0.310 C 
HETATM    6  O2  UNL     1     -39.200 170.199  76.651  1.00  0.00    -0.262 OA
HETATM    7  N3  UNL     1     -37.031 169.544  76.012  1.00  0.00    -0.344 N 
ATOM      8  H3  UNL     1     -36.125 169.856  75.662  1.00  0.00     0.163 HD
BRANCH   7   9
HETATM    9  C7  UNL     1     -37.211 168.158  76.278  1.00  0.00     0.225 C 
BRANCH   9  10
HETATM   10  C8  UNL     1     -38.154 167.517  75.341  1.00  0.00     0.235 C 
HETATM   11  O3  UNL     1     -37.845 167.360  74.138  1.00  0.00    -0.272 OA
HETATM   12  N4  UNL     1     -39.427 167.069  75.791  1.00  0.00    -0.352 N 
ATOM     13  H4  UNL     1     -39.676 167.200  76.772  1.00  0.00     0.163 HD
BRANCH  12  14
HETATM   14  C9  UNL     1     -40.384 166.435  74.908  1.00  0.00     0.022 C 
HETATM   15  C10 UNL     1     -39.692 165.355  74.135  1.00  0.00     0.037 C 
HETATM   16  C11 UNL     1     -41.508 165.880  75.770  1.00  0.00     0.037 C 
HETATM   17  C12 UNL     1     -41.013 167.473  74.005  1.00  0.00     0.037 C 
ENDBRANCH  12  14
ENDBRANCH   9  10
ENDBRANCH   7   9
ENDBRANCH   3   5
BRANCH   1  18
HETATM   18  C4  UNL     1     -39.071 173.432  74.573  1.00  0.00     0.688 A 
HETATM   19  N1  UNL     1     -38.747 172.929  73.376  1.00  0.00    -0.194 N 
HETATM   20  C3  UNL     1     -38.937 173.570  72.213  1.00  0.00     0.049 A 
ATOM     21  H1  UNL     1     -38.328 172.000  73.347  1.00  0.00     0.184 HD
HETATM   22  C14 UNL     1     -39.504 174.827  72.255  1.00  0.00     0.102 A 
HETATM   23  C13 UNL     1     -39.834 175.334  73.498  1.00  0.00     0.279 A 
HETATM   24 BR1  UNL     1     -39.809 175.809  70.633  1.00  0.00    -0.043 Br
HETATM   25  N5  UNL     1     -39.632 174.672  74.648  1.00  0.00    -0.155 N 
HETATM   26  O4  UNL     1     -40.352 176.492  73.498  1.00  0.00    -0.266 OA
ATOM     27  H5  UNL     1     -39.890 175.082  75.545  1.00  0.00     0.187 HD
BRANCH  20  28
HETATM   28  C2  UNL     1     -38.542 172.922  70.938  1.00  0.00     0.055 C 
HETATM   29  C1  UNL     1     -37.173 172.284  71.023  1.00  0.00     0.011 C 
ENDBRANCH  20  28
ENDBRANCH   1  18
TORSDOF 6
ENDMDL
MODEL 3
REMARK VINA RESULT: -6.935650949      4.021      6.259
REMARK  6 active torsions:
REMARK  status: ('A' for Active; 'I' for Inactive)
REMARK    1  A    between atoms: C2_2  and  C3_3 
REMARK    2  A    between atoms: C4_6  and  N2_7 
REMARK       I    between atoms: N2_7  and  C5_9 
REMARK    3  A    between atoms: C5_9  and  C6_11 
REMARK       I    between atoms: C6_11  and  N3_13 
REMARK    4  A    between atoms: N3_13  and  C7_15 
REMARK    5  A    between atoms: C7_15  and  C8_16 
REMARK       I    between atoms: C8_16  and  N4_18 
REMARK    6  A    between atoms: N4_18  and  C9_20 
ROOT
HETATM    1  N2  UNL     1     -38.669 173.376  75.552  1.00  0.00    -0.151 N 
ATOM      2  H2  UNL     1     -39.269 173.560  76.357  1.00  0.00     0.188 HD
HETATM    3  C5  UNL     1     -37.530 172.551  75.730  1.00  0.00     0.327 C 
HETATM    4  O1  UNL     1     -36.354 172.999  75.545  1.00  0.00    -0.261 OA
ENDROOT
BRANCH   3   5
HETATM    5  C6  UNL     1     -37.671 171.154  76.135  1.00  0.00     0.310 C 
HETATM    6  O2  UNL     1     -36.826 170.704  76.982  1.00  0.00    -0.262 OA
HETATM    7  N3  UNL     1     -38.700 170.338  75.607  1.00  0.00    -0.344 N 
ATOM      8  H3  UNL     1     -39.343 170.749  74.931  1.00  0.00     0.163 HD
BRANCH   7   9
HETATM    9  C7  UNL     1     -38.886 168.975  75.970  1.00  0.00     0.225 C 
BRANCH   9  10
HETATM   10  C8  UNL     1     -39.487 168.174  74.885  1.00  0.00     0.235 C 
HETATM   11  O3  UNL     1     -40.449 167.408  75.120  1.00  0.00    -0.272 OA
HETATM   12  N4  UNL     1     -38.981 168.261  73.559  1.00  0.00    -0.352 N 
ATOM     13  H4  UNL     1     -38.197 168.886  73.372  1.00  0.00     0.163 HD
BRANCH  12  14
HETATM   14  C9  UNL     1     -39.539 167.495  72.464  1.00  0.00     0.022 C 
HETATM   15  C10 UNL     1     -40.971 167.888  72.274  1.00  0.00     0.037 C 
HETATM   16  C11 UNL     1     -38.704 167.788  71.225  1.00  0.00     0.037 C 
HETATM   17  C12 UNL     1     -39.382 166.016  72.742  1.00  0.00     0.037 C 
ENDBRANCH  12  14
ENDBRANCH   9  10
ENDBRANCH   7   9
ENDBRANCH   3   5
BRANCH   1  18
HETATM   18  C4  UNL     1     -38.982 173.904  74.416  1.00  0.00     0.688 A 
HETATM   19  N1  UNL     1     -38.674 173.373  73.228  1.00  0.00    -0.194 N 
HETATM   20  C3  UNL     1     -38.998 173.923  72.049  1.00  0.00     0.049 A 
ATOM     21  H1  UNL     1     -38.160 172.492  73.219  1.00  0.00     0.184 HD
HETATM   22  C14 UNL     1     -39.693 175.115  72.064  1.00  0.00     0.102 A 
HETATM   23  C13 UNL     1     -40.005 175.653  73.298  1.00  0.00     0.279 A 
HETATM   24 BR1  UNL     1     -40.194 175.968  70.417  1.00  0.00    -0.043 Br
HETATM   25  N5  UNL     1     -39.669 175.082  74.464  1.00  0.00    -0.155 N 
HETATM   26  O4  UNL     1     -40.644 176.749  73.273  1.00  0.00    -0.266 OA
ATOM     27  H5  UNL     1     -39.917 175.512  75.355  1.00  0.00     0.187 HD
BRANCH  20  28
HETATM   28  C2  UNL     1     -38.608 173.251  70.786  1.00  0.00     0.055 C 
HETATM   29  C1  UNL     1     -38.250 171.797  71.001  1.00  0.00     0.011 C 
ENDBRANCH  20  28
ENDBRANCH   1  18
TORSDOF 6
ENDMDL
MODEL 4
REMARK VINA RESULT: -6.747403950      3.047      7.999
REMARK  6 active torsions:
REMARK  status: ('A' for Active; 'I' for Inactive)
REMARK    1  A    between atoms: C2_2  and  C3_3 
REMARK    2  A    between atoms: C4_6  and  N2_7 
REMARK       I    between atoms: N2_7  and  C5_9 
REMARK    3  A    between atoms: C5_9  and  C6_11 
REMARK       I    between atoms: C6_11  and  N3_13 
REMARK    4  A    between atoms: N3_13  and  C7_15 
REMARK    5  A    between atoms: C7_15  and  C8_16 
REMARK       I    between atoms: C8_16  and  N4_18 
REMARK    6  A    between atoms: N4_18  and  C9_20 
ROOT
HETATM    1  N2  UNL     1     -37.088 173.780  74.899  1.00  0.00    -0.151 N 
ATOM      2  H2  UNL     1     -36.320 174.346  74.535  1.00  0.00     0.188 HD
HETATM    3  C5  UNL     1     -38.416 174.136  74.551  1.00  0.00     0.327 C 
HETATM    4  O1  UNL     1     -39.260 174.486  75.436  1.00  0.00    -0.261 OA
ENDROOT
BRANCH   3   5
HETATM    5  C6  UNL     1     -38.859 174.114  73.159  1.00  0.00     0.310 C 
HETATM    6  O2  UNL     1     -39.834 174.878  72.845  1.00  0.00    -0.262 OA
HETATM    7  N3  UNL     1     -38.231 173.278  72.203  1.00  0.00    -0.344 N 
ATOM      8  H3  UNL     1     -37.460 172.686  72.512  1.00  0.00     0.163 HD
BRANCH   7   9
HETATM    9  C7  UNL     1     -38.619 173.222  70.836  1.00  0.00     0.225 C 
BRANCH   9  10
HETATM   10  C8  UNL     1     -38.509 171.862  70.269  1.00  0.00     0.235 C 
HETATM   11  O3  UNL     1     -37.997 171.684  69.141  1.00  0.00    -0.272 OA
HETATM   12  N4  UNL     1     -38.984 170.737  70.998  1.00  0.00    -0.352 N 
ATOM     13  H4  UNL     1     -39.401 170.886  71.917  1.00  0.00     0.163 HD
BRANCH  12  14
HETATM   14  C9  UNL     1     -38.897 169.386  70.483  1.00  0.00     0.022 C 
HETATM   15  C10 UNL     1     -37.470 168.935  70.536  1.00  0.00     0.037 C 
HETATM   16  C11 UNL     1     -39.799 168.509  71.338  1.00  0.00     0.037 C 
HETATM   17  C12 UNL     1     -39.462 169.336  69.080  1.00  0.00     0.037 C 
ENDBRANCH  12  14
ENDBRANCH   9  10
ENDBRANCH   7   9
ENDBRANCH   3   5
BRANCH   1  18
HETATM   18  C4  UNL     1     -36.807 172.771  75.655  1.00  0.00     0.688 A 
HETATM   19  N1  UNL     1     -35.642 172.608  76.292  1.00  0.00    -0.194 N 
HETATM   20  C3  UNL     1     -35.352 171.560  77.076  1.00  0.00     0.049 A 
ATOM     21  H1  UNL     1     -34.929 173.328  76.173  1.00  0.00     0.184 HD
HETATM   22  C14 UNL     1     -36.318 170.587  77.235  1.00  0.00     0.102 A 
HETATM   23  C13 UNL     1     -37.517 170.769  76.571  1.00  0.00     0.279 A 
HETATM   24 BR1  UNL     1     -35.979 169.054  78.341  1.00  0.00    -0.043 Br
HETATM   25  N5  UNL     1     -37.782 171.828  75.792  1.00  0.00    -0.155 N 
HETATM   26  O4  UNL     1     -38.380 169.855  76.741  1.00  0.00    -0.266 OA
ATOM     27  H5  UNL     1     -38.681 171.923  75.319  1.00  0.00     0.187 HD
BRANCH  20  28
HETATM   28  C2  UNL     1     -34.027 171.474  77.738  1.00  0.00     0.055 C 
HETATM   29  C1  UNL     1     -33.805 172.606  78.716  1.00  0.00     0.011 C 
ENDBRANCH  20  28
ENDBRANCH   1  18
TORSDOF 6
ENDMDL
MODEL 5
REMARK VINA RESULT: -6.731658960      2.791      3.578
REMARK  6 active torsions:
REMARK  status: ('A' for Active; 'I' for Inactive)
REMARK    1  A    between atoms: C2_2  and  C3_3 
REMARK    2  A    between atoms: C4_6  and  N2_7 
REMARK       I    between atoms: N2_7  and  C5_9 
REMARK    3  A    between atoms: C5_9  and  C6_11 
REMARK       I    between atoms: C6_11  and  N3_13 
REMARK    4  A    between atoms: N3_13  and  C7_15 
REMARK    5  A    between atoms: C7_15  and  C8_16 
REMARK       I    between atoms: C8_16  and  N4_18 
REMARK    6  A    between atoms: N4_18  and  C9_20 
ROOT
HETATM    1  N2  UNL     1     -38.758 173.035  75.637  1.00  0.00    -0.151 N 
ATOM      2  H2  UNL     1     -39.400 173.195  76.414  1.00  0.00     0.188 HD
HETATM    3  C5  UNL     1     -37.640 172.187  75.844  1.00  0.00     0.327 C 
HETATM    4  O1  UNL     1     -36.450 172.625  75.744  1.00  0.00    -0.261 OA
ENDROOT
BRANCH   3   5
HETATM    5  C6  UNL     1     -37.820 170.778  76.183  1.00  0.00     0.310 C 
HETATM    6  O2  UNL     1     -38.988 170.410  76.550  1.00  0.00    -0.262 OA
HETATM    7  N3  UNL     1     -36.743 169.861  76.107  1.00  0.00    -0.344 N 
ATOM      8  H3  UNL     1     -35.831 170.212  75.812  1.00  0.00     0.163 HD
BRANCH   7   9
HETATM    9  C7  UNL     1     -36.864 168.479  76.420  1.00  0.00     0.225 C 
BRANCH   9  10
HETATM   10  C8  UNL     1     -36.078 168.094  77.609  1.00  0.00     0.235 C 
HETATM   11  O3  UNL     1     -35.519 166.976  77.665  1.00  0.00    -0.272 OA
HETATM   12  N4  UNL     1     -35.947 168.989  78.708  1.00  0.00    -0.352 N 
ATOM     13  H4  UNL     1     -36.404 169.899  78.658  1.00  0.00     0.163 HD
BRANCH  12  14
HETATM   14  C9  UNL     1     -35.187 168.654  79.893  1.00  0.00     0.022 C 
HETATM   15  C10 UNL     1     -33.754 168.443  79.511  1.00  0.00     0.037 C 
HETATM   16  C11 UNL     1     -35.344 169.802  80.880  1.00  0.00     0.037 C 
HETATM   17  C12 UNL     1     -35.787 167.436  80.560  1.00  0.00     0.037 C 
ENDBRANCH  12  14
ENDBRANCH   9  10
ENDBRANCH   7   9
ENDBRANCH   3   5
BRANCH   1  18
HETATM   18  C4  UNL     1     -38.999 173.613  74.508  1.00  0.00     0.688 A 
HETATM   19  N1  UNL     1     -38.704 173.087  73.314  1.00  0.00    -0.194 N 
HETATM   20  C3  UNL     1     -38.954 173.689  72.142  1.00  0.00     0.049 A 
ATOM     21  H1  UNL     1     -38.259 172.169  73.294  1.00  0.00     0.184 HD
HETATM   22  C14 UNL     1     -39.555 174.931  72.171  1.00  0.00     0.102 A 
HETATM   23  C13 UNL     1     -39.856 175.462  73.411  1.00  0.00     0.279 A 
HETATM   24 BR1  UNL     1     -39.946 175.859  70.535  1.00  0.00    -0.043 Br
HETATM   25  N5  UNL     1     -39.594 174.839  74.570  1.00  0.00    -0.155 N 
HETATM   26  O4  UNL     1     -40.407 176.605  73.399  1.00  0.00    -0.266 OA
ATOM     27  H5  UNL     1     -39.832 175.266  75.465  1.00  0.00     0.187 HD
BRANCH  20  28
HETATM   28  C2  UNL     1     -38.585 173.019  70.871  1.00  0.00     0.055 C 
HETATM   29  C1  UNL     1     -37.300 172.230  70.995  1.00  0.00     0.011 C 
ENDBRANCH  20  28
ENDBRANCH   1  18
TORSDOF 6
ENDMDL
