MODEL 1
REMARK VINA RESULT: -7.490112471      0.000      0.000
REMARK  4 active torsions:
REMARK  status: ('A' for Active; 'I' for Inactive)
REMARK       I    between atoms: N1_11  and  C9_12 
REMARK    1  A    between atoms: C11_15  and  C12_16 
REMARK       I    between atoms: C12_16  and  N2_18 
REMARK    2  A    between atoms: N2_18  and  C13_20 
REMARK    3  A    between atoms: C13_20  and  C14_21 
REMARK    4  A    between atoms: C14_21  and  N3_22 
REMARK       I    between atoms: N3_22  and  C15_24 
ROOT
HETATM    1  C1  UNL     1     -39.139 171.585  75.929  1.00  0.00     0.019 C 
HETATM    2  C2  UNL     1     -39.125 171.060  74.716  1.00  0.00    -0.027 C 
HETATM    3  C3  UNL     1     -39.950 169.876  74.350  1.00  0.00     0.177 C 
HETATM    4  O1  UNL     1     -39.750 168.840  75.255  1.00  0.00    -0.368 OA
HETATM    5  C4  UNL     1     -39.801 167.666  74.467  1.00  0.00     0.070 C 
HETATM    6  C5  UNL     1     -41.218 167.434  74.038  1.00  0.00     0.047 C 
HETATM    7  C6  UNL     1     -39.249 166.486  75.230  1.00  0.00     0.047 C 
HETATM    8  C7  UNL     1     -38.895 168.061  73.317  1.00  0.00     0.117 C 
HETATM    9 BR1  UNL     1     -37.094 168.104  74.036  1.00  0.00    -0.086 Br
HETATM   10  C8  UNL     1     -39.413 169.457  73.031  1.00  0.00     0.139 C 
HETATM   11  N1  UNL     1     -38.375 170.367  72.631  1.00  0.00    -0.326 N 
HETATM   12  C9  UNL     1     -37.534 170.144  71.512  1.00  0.00     0.217 C 
HETATM   13  C10 UNL     1     -36.456 171.068  71.078  1.00  0.00     0.117 C 
HETATM   14  O2  UNL     1     -37.695 169.109  70.834  1.00  0.00    -0.274 OA
HETATM   15  C11 UNL     1     -38.332 171.504  73.527  1.00  0.00     0.211 C 
ENDROOT
BRANCH  15  16
HETATM   16  C12 UNL     1     -38.955 172.710  72.985  1.00  0.00     0.245 C 
HETATM   17  O3  UNL     1     -40.046 172.531  72.341  1.00  0.00    -0.271 OA
HETATM   18  N2  UNL     1     -38.456 174.022  73.115  1.00  0.00    -0.357 N 
ATOM     19  H2  UNL     1     -37.587 174.169  73.627  1.00  0.00     0.162 HD
BRANCH  18  20
HETATM   20  C13 UNL     1     -39.129 175.164  72.550  1.00  0.00     0.142 C 
BRANCH  20  21
HETATM   21  C14 UNL     1     -38.962 175.255  71.058  1.00  0.00     0.142 C 
BRANCH  21  22
HETATM   22  N3  UNL     1     -40.280 175.217  70.469  1.00  0.00    -0.363 N 
HETATM   23  C15 UNL     1     -40.895 176.325  69.828  1.00  0.00     0.181 C 
HETATM   24  N4  UNL     1     -40.827 177.523  70.290  1.00  0.00    -0.374 N 
HETATM   25  N5  UNL     1     -41.609 176.077  68.629  1.00  0.00    -0.064 NA
ATOM     26  H42 UNL     1     -40.312 177.702  71.153  1.00  0.00     0.158 HD
ATOM     27  H41 UNL     1     -41.268 178.319  69.829  1.00  0.00     0.158 HD
ATOM     28  H3  UNL     1     -40.801 174.341  70.517  1.00  0.00     0.162 HD
ENDBRANCH  21  22
ENDBRANCH  20  21
ENDBRANCH  18  20
ENDBRANCH  15  16
TORSDOF 4
ENDMDL
MODEL 2
REMARK VINA RESULT: -7.232962880      1.864      2.651
REMARK  4 active torsions:
REMARK  status: ('A' for Active; 'I' for Inactive)
REMARK       I    between atoms: N1_11  and  C9_12 
REMARK    1  A    between atoms: C11_15  and  C12_16 
REMARK       I    between atoms: C12_16  and  N2_18 
REMARK    2  A    between atoms: N2_18  and  C13_20 
REMARK    3  A    between atoms: C13_20  and  C14_21 
REMARK    4  A    between atoms: C14_21  and  N3_22 
REMARK       I    between atoms: N3_22  and  C15_24 
ROOT
HETATM    1  C1  UNL     1     -39.051 171.419  75.889  1.00  0.00     0.019 C 
HETATM    2  C2  UNL     1     -39.041 170.771  74.738  1.00  0.00    -0.027 C 
HETATM    3  C3  UNL     1     -39.866 169.554  74.501  1.00  0.00     0.177 C 
HETATM    4  O1  UNL     1     -39.659 168.618  75.508  1.00  0.00    -0.368 OA
HETATM    5  C4  UNL     1     -39.712 167.369  74.847  1.00  0.00     0.070 C 
HETATM    6  C5  UNL     1     -41.130 167.091  74.451  1.00  0.00     0.047 C 
HETATM    7  C6  UNL     1     -39.153 166.276  75.726  1.00  0.00     0.047 C 
HETATM    8  C7  UNL     1     -38.811 167.644  73.657  1.00  0.00     0.117 C 
HETATM    9 BR1  UNL     1     -37.008 167.764  74.359  1.00  0.00    -0.086 Br
HETATM   10  C8  UNL     1     -39.335 169.001  73.230  1.00  0.00     0.139 C 
HETATM   11  N1  UNL     1     -38.300 169.866  72.732  1.00  0.00    -0.326 N 
HETATM   12  C9  UNL     1     -37.464 169.530  71.638  1.00  0.00     0.217 C 
HETATM   13  C10 UNL     1     -36.390 170.405  71.105  1.00  0.00     0.117 C 
HETATM   14  O2  UNL     1     -37.626 168.429  71.073  1.00  0.00    -0.274 OA
HETATM   15  C11 UNL     1     -38.256 171.091  73.505  1.00  0.00     0.211 C 
ENDROOT
BRANCH  15  16
HETATM   16  C12 UNL     1     -38.883 172.232  72.843  1.00  0.00     0.245 C 
HETATM   17  O3  UNL     1     -40.111 172.080  72.516  1.00  0.00    -0.271 OA
HETATM   18  N2  UNL     1     -38.254 173.459  72.546  1.00  0.00    -0.357 N 
ATOM     19  H2  UNL     1     -37.276 173.584  72.805  1.00  0.00     0.162 HD
BRANCH  18  20
HETATM   20  C13 UNL     1     -38.941 174.541  71.889  1.00  0.00     0.142 C 
BRANCH  20  21
HETATM   21  C14 UNL     1     -39.562 175.507  72.861  1.00  0.00     0.142 C 
BRANCH  21  22
HETATM   22  N3  UNL     1     -38.558 175.840  73.845  1.00  0.00    -0.363 N 
HETATM   23  C15 UNL     1     -38.393 175.149  75.074  1.00  0.00     0.181 C 
HETATM   24  N4  UNL     1     -39.385 174.771  75.800  1.00  0.00    -0.374 N 
HETATM   25  N5  UNL     1     -37.070 174.874  75.501  1.00  0.00    -0.064 NA
ATOM     26  H42 UNL     1     -40.338 174.968  75.493  1.00  0.00     0.158 HD
ATOM     27  H41 UNL     1     -39.267 174.274  76.683  1.00  0.00     0.158 HD
ATOM     28  H3  UNL     1     -37.930 176.618  73.645  1.00  0.00     0.162 HD
ENDBRANCH  21  22
ENDBRANCH  20  21
ENDBRANCH  18  20
ENDBRANCH  15  16
TORSDOF 4
ENDMDL
MODEL 3
REMARK VINA RESULT: -7.190488377      1.223      1.232
REMARK  4 active torsions:
REMARK  status: ('A' for Active; 'I' for Inactive)
REMARK       I    between atoms: N1_11  and  C9_12 
REMARK    1  A    between atoms: C11_15  and  C12_16 
REMARK       I    between atoms: C12_16  and  N2_18 
REMARK    2  A    between atoms: N2_18  and  C13_20 
REMARK    3  A    between atoms: C13_20  and  C14_21 
REMARK    4  A    between atoms: C14_21  and  N3_22 
REMARK       I    between atoms: N3_22  and  C15_24 
ROOT
HETATM    1  C1  UNL     1     -38.217 171.004  76.189  1.00  0.00     0.019 C 
HETATM    2  C2  UNL     1     -38.464 170.935  74.892  1.00  0.00    -0.027 C 
HETATM    3  C3  UNL     1     -39.535 170.068  74.330  1.00  0.00     0.177 C 
HETATM    4  O1  UNL     1     -39.409 168.766  74.800  1.00  0.00    -0.368 OA
HETATM    5  C4  UNL     1     -39.782 167.955  73.702  1.00  0.00     0.070 C 
HETATM    6  C5  UNL     1     -41.263 168.070  73.499  1.00  0.00     0.047 C 
HETATM    7  C6  UNL     1     -39.359 166.524  73.927  1.00  0.00     0.047 C 
HETATM    8  C7  UNL     1     -38.982 168.606  72.589  1.00  0.00     0.117 C 
HETATM    9 BR1  UNL     1     -37.125 168.165  72.928  1.00  0.00    -0.086 Br
HETATM   10  C8  UNL     1     -39.269 170.068  72.870  1.00  0.00     0.139 C 
HETATM   11  N1  UNL     1     -38.144 170.919  72.593  1.00  0.00    -0.326 N 
HETATM   12  C9  UNL     1     -37.518 170.994  71.324  1.00  0.00     0.217 C 
HETATM   13  C10 UNL     1     -36.357 171.864  71.012  1.00  0.00     0.117 C 
HETATM   14  O2  UNL     1     -37.957 170.287  70.393  1.00  0.00    -0.274 OA
HETATM   15  C11 UNL     1     -37.771 171.660  73.781  1.00  0.00     0.211 C 
ENDROOT
BRANCH  15  16
HETATM   16  C12 UNL     1     -38.228 173.047  73.782  1.00  0.00     0.245 C 
HETATM   17  O3  UNL     1     -37.515 173.868  74.457  1.00  0.00    -0.271 OA
HETATM   18  N2  UNL     1     -39.367 173.539  73.112  1.00  0.00    -0.357 N 
ATOM     19  H2  UNL     1     -39.938 172.888  72.572  1.00  0.00     0.162 HD
BRANCH  18  20
HETATM   20  C13 UNL     1     -39.755 174.925  73.160  1.00  0.00     0.142 C 
BRANCH  20  21
HETATM   21  C14 UNL     1     -39.219 175.717  71.999  1.00  0.00     0.142 C 
BRANCH  21  22
HETATM   22  N3  UNL     1     -40.315 176.482  71.451  1.00  0.00    -0.363 N 
HETATM   23  C15 UNL     1     -40.686 176.467  70.080  1.00  0.00     0.181 C 
HETATM   24  N4  UNL     1     -39.824 176.484  69.126  1.00  0.00    -0.374 N 
HETATM   25  N5  UNL     1     -42.068 176.431  69.774  1.00  0.00    -0.064 NA
ATOM     26  H42 UNL     1     -38.828 176.509  69.346  1.00  0.00     0.158 HD
ATOM     27  H41 UNL     1     -40.090 176.473  68.141  1.00  0.00     0.158 HD
ATOM     28  H3  UNL     1     -40.855 177.068  72.087  1.00  0.00     0.162 HD
ENDBRANCH  21  22
ENDBRANCH  20  21
ENDBRANCH  18  20
ENDBRANCH  15  16
TORSDOF 4
ENDMDL
MODEL 4
REMARK VINA RESULT: -7.179753367      1.567      1.670
REMARK  4 active torsions:
REMARK  status: ('A' for Active; 'I' for Inactive)
REMARK       I    between atoms: N1_11  and  C9_12 
REMARK    1  A    between atoms: C11_15  and  C12_16 
REMARK       I    between atoms: C12_16  and  N2_18 
REMARK    2  A    between atoms: N2_18  and  C13_20 
REMARK    3  A    between atoms: C13_20  and  C14_21 
REMARK    4  A    between atoms: C14_21  and  N3_22 
REMARK       I    between atoms: N3_22  and  C15_24 
ROOT
HETATM    1  C1  UNL     1     -37.566 170.390  76.316  1.00  0.00     0.019 C 
HETATM    2  C2  UNL     1     -38.085 170.586  75.116  1.00  0.00    -0.027 C 
HETATM    3  C3  UNL     1     -39.292 169.855  74.641  1.00  0.00     0.177 C 
HETATM    4  O1  UNL     1     -39.131 168.483  74.806  1.00  0.00    -0.368 OA
HETATM    5  C4  UNL     1     -39.766 167.914  73.678  1.00  0.00     0.070 C 
HETATM    6  C5  UNL     1     -41.249 168.072  73.828  1.00  0.00     0.047 C 
HETATM    7  C6  UNL     1     -39.373 166.465  73.519  1.00  0.00     0.047 C 
HETATM    8  C7  UNL     1     -39.191 168.773  72.569  1.00  0.00     0.117 C 
HETATM    9 BR1  UNL     1     -37.327 168.267  72.402  1.00  0.00    -0.086 Br
HETATM   10  C8  UNL     1     -39.342 170.149  73.187  1.00  0.00     0.139 C 
HETATM   11  N1  UNL     1     -38.262 171.035  72.846  1.00  0.00    -0.326 N 
HETATM   12  C9  UNL     1     -37.918 171.363  71.511  1.00  0.00     0.217 C 
HETATM   13  C10 UNL     1     -36.810 172.275  71.132  1.00  0.00     0.117 C 
HETATM   14  O2  UNL     1     -38.577 170.861  70.578  1.00  0.00    -0.274 OA
HETATM   15  C11 UNL     1     -37.611 171.518  74.046  1.00  0.00     0.211 C 
ENDROOT
BRANCH  15  16
HETATM   16  C12 UNL     1     -37.991 172.878  74.420  1.00  0.00     0.245 C 
HETATM   17  O3  UNL     1     -37.165 173.500  75.174  1.00  0.00    -0.271 OA
HETATM   18  N2  UNL     1     -39.171 173.542  74.023  1.00  0.00    -0.357 N 
ATOM     19  H2  UNL     1     -39.832 173.050  73.422  1.00  0.00     0.162 HD
BRANCH  18  20
HETATM   20  C13 UNL     1     -39.477 174.887  74.434  1.00  0.00     0.142 C 
BRANCH  20  21
HETATM   21  C14 UNL     1     -39.123 175.907  73.386  1.00  0.00     0.142 C 
BRANCH  21  22
HETATM   22  N3  UNL     1     -39.606 175.413  72.117  1.00  0.00    -0.363 N 
HETATM   23  C15 UNL     1     -40.466 176.145  71.256  1.00  0.00     0.181 C 
HETATM   24  N4  UNL     1     -41.462 176.834  71.688  1.00  0.00    -0.374 N 
HETATM   25  N5  UNL     1     -40.198 176.100  69.866  1.00  0.00    -0.064 NA
ATOM     26  H42 UNL     1     -41.656 176.867  72.689  1.00  0.00     0.158 HD
ATOM     27  H41 UNL     1     -42.080 177.360  71.070  1.00  0.00     0.158 HD
ATOM     28  H3  UNL     1     -39.311 174.483  71.822  1.00  0.00     0.162 HD
ENDBRANCH  21  22
ENDBRANCH  20  21
ENDBRANCH  18  20
ENDBRANCH  15  16
TORSDOF 4
ENDMDL
MODEL 5
REMARK VINA RESULT: -7.133597771      1.232      1.504
REMARK  4 active torsions:
REMARK  status: ('A' for Active; 'I' for Inactive)
REMARK       I    between atoms: N1_11  and  C9_12 
REMARK    1  A    between atoms: C11_15  and  C12_16 
REMARK       I    between atoms: C12_16  and  N2_18 
REMARK    2  A    between atoms: N2_18  and  C13_20 
REMARK    3  A    between atoms: C13_20  and  C14_21 
REMARK    4  A    between atoms: C14_21  and  N3_22 
REMARK       I    between atoms: N3_22  and  C15_24 
ROOT
HETATM    1  C1  UNL     1     -38.108 171.263  75.835  1.00  0.00     0.019 C 
HETATM    2  C2  UNL     1     -38.316 171.108  74.539  1.00  0.00    -0.027 C 
HETATM    3  C3  UNL     1     -39.440 170.292  74.005  1.00  0.00     0.177 C 
HETATM    4  O1  UNL     1     -39.446 169.027  74.583  1.00  0.00    -0.368 OA
HETATM    5  C4  UNL     1     -39.852 168.163  73.539  1.00  0.00     0.070 C 
HETATM    6  C5  UNL     1     -41.309 168.385  73.267  1.00  0.00     0.047 C 
HETATM    7  C6  UNL     1     -39.565 166.724  73.896  1.00  0.00     0.047 C 
HETATM    8  C7  UNL     1     -38.961 168.647  72.411  1.00  0.00     0.117 C 
HETATM    9 BR1  UNL     1     -37.162 168.080  72.860  1.00  0.00    -0.086 Br
HETATM   10  C8  UNL     1     -39.126 170.147  72.562  1.00  0.00     0.139 C 
HETATM   11  N1  UNL     1     -37.922 170.873  72.264  1.00  0.00    -0.326 N 
HETATM   12  C9  UNL     1     -37.250 170.787  71.019  1.00  0.00     0.217 C 
HETATM   13  C10 UNL     1     -36.007 171.526  70.686  1.00  0.00     0.117 C 
HETATM   14  O2  UNL     1     -37.718 170.046  70.131  1.00  0.00    -0.274 OA
HETATM   15  C11 UNL     1     -37.525 171.675  73.403  1.00  0.00     0.211 C 
ENDROOT
BRANCH  15  16
HETATM   16  C12 UNL     1     -37.858 173.092  73.274  1.00  0.00     0.245 C 
HETATM   17  O3  UNL     1     -37.676 173.603  72.115  1.00  0.00    -0.271 OA
HETATM   18  N2  UNL     1     -38.351 173.918  74.305  1.00  0.00    -0.357 N 
ATOM     19  H2  UNL     1     -38.497 173.514  75.230  1.00  0.00     0.162 HD
BRANCH  18  20
HETATM   20  C13 UNL     1     -38.657 175.310  74.101  1.00  0.00     0.142 C 
BRANCH  20  21
HETATM   21  C14 UNL     1     -40.044 175.526  73.560  1.00  0.00     0.142 C 
BRANCH  21  22
HETATM   22  N3  UNL     1     -39.931 176.376  72.398  1.00  0.00    -0.363 N 
HETATM   23  C15 UNL     1     -40.180 175.941  71.069  1.00  0.00     0.181 C 
HETATM   24  N4  UNL     1     -39.785 174.801  70.624  1.00  0.00    -0.374 N 
HETATM   25  N5  UNL     1     -40.895 176.816  70.215  1.00  0.00    -0.064 NA
ATOM     26  H42 UNL     1     -39.271 174.171  71.240  1.00  0.00     0.158 HD
ATOM     27  H41 UNL     1     -39.965 174.488  69.670  1.00  0.00     0.158 HD
ATOM     28  H3  UNL     1     -39.656 177.348  72.540  1.00  0.00     0.162 HD
ENDBRANCH  21  22
ENDBRANCH  20  21
ENDBRANCH  18  20
ENDBRANCH  15  16
TORSDOF 4
ENDMDL
