MODEL 1
REMARK VINA RESULT: -6.997825619      0.000      0.000
REMARK  7 active torsions:
REMARK  status: ('A' for Active; 'I' for Inactive)
REMARK    1  A    between atoms: C3_3  and  C4_4 
REMARK    2  A    between atoms: C5_5  and  C6_6 
REMARK       I    between atoms: C6_6  and  N1_8 
REMARK    3  A    between atoms: N1_8  and  N2_10 
REMARK       I    between atoms: N2_10  and  C7_12 
REMARK    4  A    between atoms: C7_12  and  C8_14 
REMARK    5  A    between atoms: N3_16  and  N4_18 
REMARK       I    between atoms: N4_18  and  C10_19 
REMARK    6  A    between atoms: C10_19  and  C11_21 
REMARK    7  A    between atoms: C11_21  and  C12_22 
ROOT
HETATM    1  C1  UNL     1     -41.594 176.477  68.908  1.00  0.00     0.113 C 
HETATM    2  C2  UNL     1     -40.861 176.147  70.165  1.00  0.00    -0.097 C 
HETATM    3  C3  UNL     1     -40.273 175.849  71.169  1.00  0.00    -0.015 C 
ENDROOT
BRANCH   3   4
HETATM    4  C4  UNL     1     -39.581 175.457  72.358  1.00  0.00    -0.005 C 
HETATM    5  C5  UNL     1     -38.988 175.097  73.344  1.00  0.00     0.010 C 
BRANCH   5   6
HETATM    6  C6  UNL     1     -38.244 174.622  74.514  1.00  0.00     0.315 C 
HETATM    7  O1  UNL     1     -38.253 175.337  75.522  1.00  0.00    -0.256 OA
HETATM    8  N1  UNL     1     -37.572 173.397  74.441  1.00  0.00    -0.256 N 
ATOM      9  H1  UNL     1     -37.604 172.869  73.570  1.00  0.00     0.191 HD
BRANCH   8  10
HETATM   10  N2  UNL     1     -36.863 172.879  75.515  1.00  0.00    -0.262 N 
HETATM   11  C7  UNL     1     -37.109 171.553  75.918  1.00  0.00     0.284 C 
HETATM   12  O2  UNL     1     -37.969 170.892  75.246  1.00  0.00    -0.265 OA
ATOM     13  H2  UNL     1     -36.174 173.449  76.005  1.00  0.00     0.190 HD
BRANCH  11  14
HETATM   14  C8  UNL     1     -36.460 170.905  77.032  1.00  0.00     0.103 C 
HETATM   15  C9  UNL     1     -36.431 169.418  77.136  1.00  0.00     0.077 C 
HETATM   16  N3  UNL     1     -35.872 171.577  77.986  1.00  0.00    -0.232 N 
ATOM     17  H3  UNL     1     -35.894 172.594  77.919  1.00  0.00     0.202 HD
BRANCH  16  18
HETATM   18  N4  UNL     1     -35.245 171.050  79.041  1.00  0.00    -0.286 NA
HETATM   19  C10 UNL     1     -34.625 170.530  80.082  1.00  0.00     0.316 C 
HETATM   20  O3  UNL     1     -34.925 170.754  81.320  1.00  0.00    -0.255 OA
BRANCH  19  21
HETATM   21  C11 UNL     1     -33.435 169.554  80.024  1.00  0.00     0.162 C 
BRANCH  21  22
HETATM   22  C12 UNL     1     -32.200 170.409  80.056  1.00  0.00    -0.014 A 
HETATM   23  C13 UNL     1     -31.426 170.800  81.121  1.00  0.00     0.096 A 
HETATM   24  N5  UNL     1     -30.381 171.506  80.674  1.00  0.00    -0.373 N 
HETATM   25  C14 UNL     1     -30.427 171.606  79.324  1.00  0.00     0.107 A 
ATOM     26  H5  UNL     1     -29.655 171.910  81.264  1.00  0.00     0.164 HD
HETATM   27  C15 UNL     1     -31.559 170.926  78.947  1.00  0.00     0.034 A 
HETATM   28 BR1  UNL     1     -32.209 170.723  77.158  1.00  0.00    -0.049 Br
ENDBRANCH  21  22
ENDBRANCH  19  21
ENDBRANCH  16  18
ENDBRANCH  11  14
ENDBRANCH   8  10
ENDBRANCH   5   6
ENDBRANCH   3   4
TORSDOF 7
ENDMDL
MODEL 2
REMARK VINA RESULT: -6.683269328      1.678      2.135
REMARK  7 active torsions:
REMARK  status: ('A' for Active; 'I' for Inactive)
REMARK    1  A    between atoms: C3_3  and  C4_4 
REMARK    2  A    between atoms: C5_5  and  C6_6 
REMARK       I    between atoms: C6_6  and  N1_8 
REMARK    3  A    between atoms: N1_8  and  N2_10 
REMARK       I    between atoms: N2_10  and  C7_12 
REMARK    4  A    between atoms: C7_12  and  C8_14 
REMARK    5  A    between atoms: N3_16  and  N4_18 
REMARK       I    between atoms: N4_18  and  C10_19 
REMARK    6  A    between atoms: C10_19  and  C11_21 
REMARK    7  A    between atoms: C11_21  and  C12_22 
ROOT
HETATM    1  C1  UNL     1     -40.663 176.483  70.167  1.00  0.00     0.113 C 
HETATM    2  C2  UNL     1     -40.130 175.711  71.327  1.00  0.00    -0.097 C 
HETATM    3  C3  UNL     1     -39.688 175.069  72.242  1.00  0.00    -0.015 C 
ENDROOT
BRANCH   3   4
HETATM    4  C4  UNL     1     -39.150 174.276  73.304  1.00  0.00    -0.005 C 
HETATM    5  C5  UNL     1     -38.706 173.579  74.182  1.00  0.00     0.010 C 
BRANCH   5   6
HETATM    6  C6  UNL     1     -38.172 172.690  75.218  1.00  0.00     0.315 C 
HETATM    7  O1  UNL     1     -38.955 172.302  76.091  1.00  0.00    -0.256 OA
HETATM    8  N1  UNL     1     -36.823 172.324  75.170  1.00  0.00    -0.256 N 
ATOM      9  H1  UNL     1     -36.238 172.695  74.422  1.00  0.00     0.191 HD
BRANCH   8  10
HETATM   10  N2  UNL     1     -36.256 171.473  76.108  1.00  0.00    -0.262 N 
HETATM   11  C7  UNL     1     -35.433 172.016  77.111  1.00  0.00     0.284 C 
HETATM   12  O2  UNL     1     -35.274 173.283  77.111  1.00  0.00    -0.265 OA
ATOM     13  H2  UNL     1     -36.432 170.470  76.070  1.00  0.00     0.190 HD
BRANCH  11  14
HETATM   14  C8  UNL     1     -34.764 171.240  78.126  1.00  0.00     0.103 C 
HETATM   15  C9  UNL     1     -34.210 171.896  79.346  1.00  0.00     0.077 C 
HETATM   16  N3  UNL     1     -34.616 169.945  78.033  1.00  0.00    -0.232 N 
ATOM     17  H3  UNL     1     -34.990 169.495  77.198  1.00  0.00     0.202 HD
BRANCH  16  18
HETATM   18  N4  UNL     1     -34.018 169.159  78.932  1.00  0.00    -0.286 NA
HETATM   19  C10 UNL     1     -33.427 168.383  79.819  1.00  0.00     0.316 C 
HETATM   20  O3  UNL     1     -34.035 167.628  80.676  1.00  0.00    -0.255 OA
BRANCH  19  21
HETATM   21  C11 UNL     1     -31.906 168.221  80.000  1.00  0.00     0.162 C 
BRANCH  21  22
HETATM   22  C12 UNL     1     -31.348 169.615  80.056  1.00  0.00    -0.014 A 
HETATM   23  C13 UNL     1     -31.236 170.478  81.118  1.00  0.00     0.096 A 
HETATM   24  N5  UNL     1     -30.613 171.594  80.720  1.00  0.00    -0.373 N 
HETATM   25  C14 UNL     1     -30.299 171.511  79.405  1.00  0.00     0.107 A 
ATOM     26  H5  UNL     1     -30.405 172.391  81.319  1.00  0.00     0.164 HD
HETATM   27  C15 UNL     1     -30.761 170.282  78.998  1.00  0.00     0.034 A 
HETATM   28 BR1  UNL     1     -30.651 169.568  77.226  1.00  0.00    -0.049 Br
ENDBRANCH  21  22
ENDBRANCH  19  21
ENDBRANCH  16  18
ENDBRANCH  11  14
ENDBRANCH   8  10
ENDBRANCH   5   6
ENDBRANCH   3   4
TORSDOF 7
ENDMDL
MODEL 3
REMARK VINA RESULT: -6.610256238      1.267      1.421
REMARK  7 active torsions:
REMARK  status: ('A' for Active; 'I' for Inactive)
REMARK    1  A    between atoms: C3_3  and  C4_4 
REMARK    2  A    between atoms: C5_5  and  C6_6 
REMARK       I    between atoms: C6_6  and  N1_8 
REMARK    3  A    between atoms: N1_8  and  N2_10 
REMARK       I    between atoms: N2_10  and  C7_12 
REMARK    4  A    between atoms: C7_12  and  C8_14 
REMARK    5  A    between atoms: N3_16  and  N4_18 
REMARK       I    between atoms: N4_18  and  C10_19 
REMARK    6  A    between atoms: C10_19  and  C11_21 
REMARK    7  A    between atoms: C11_21  and  C12_22 
ROOT
HETATM    1  C1  UNL     1     -41.591 176.479  68.903  1.00  0.00     0.113 C 
HETATM    2  C2  UNL     1     -40.850 176.139  70.153  1.00  0.00    -0.097 C 
HETATM    3  C3  UNL     1     -40.255 175.835  71.152  1.00  0.00    -0.015 C 
ENDROOT
BRANCH   3   4
HETATM    4  C4  UNL     1     -39.555 175.435  72.333  1.00  0.00    -0.005 C 
HETATM    5  C5  UNL     1     -38.956 175.068  73.313  1.00  0.00     0.010 C 
BRANCH   5   6
HETATM    6  C6  UNL     1     -38.206 174.582  74.475  1.00  0.00     0.315 C 
HETATM    7  O1  UNL     1     -38.228 175.279  75.495  1.00  0.00    -0.256 OA
HETATM    8  N1  UNL     1     -37.514 173.371  74.381  1.00  0.00    -0.256 N 
ATOM      9  H1  UNL     1     -37.537 172.858  73.500  1.00  0.00     0.191 HD
BRANCH   8  10
HETATM   10  N2  UNL     1     -36.799 172.843  75.446  1.00  0.00    -0.262 N 
HETATM   11  C7  UNL     1     -37.133 171.564  75.925  1.00  0.00     0.284 C 
HETATM   12  O2  UNL     1     -38.075 170.946  75.325  1.00  0.00    -0.265 OA
ATOM     13  H2  UNL     1     -36.042 173.375  75.875  1.00  0.00     0.190 HD
BRANCH  11  14
HETATM   14  C8  UNL     1     -36.486 170.915  77.039  1.00  0.00     0.103 C 
HETATM   15  C9  UNL     1     -36.637 169.447  77.259  1.00  0.00     0.077 C 
HETATM   16  N3  UNL     1     -35.744 171.567  77.894  1.00  0.00    -0.232 N 
ATOM     17  H3  UNL     1     -35.642 172.571  77.748  1.00  0.00     0.202 HD
BRANCH  16  18
HETATM   18  N4  UNL     1     -35.108 171.037  78.941  1.00  0.00    -0.286 NA
HETATM   19  C10 UNL     1     -34.479 170.514  79.975  1.00  0.00     0.316 C 
HETATM   20  O3  UNL     1     -34.635 170.874  81.208  1.00  0.00    -0.255 OA
BRANCH  19  21
HETATM   21  C11 UNL     1     -33.448 169.371  79.916  1.00  0.00     0.162 C 
BRANCH  21  22
HETATM   22  C12 UNL     1     -32.299 169.896  79.101  1.00  0.00    -0.014 A 
HETATM   23  C13 UNL     1     -32.156 169.993  77.739  1.00  0.00     0.096 A 
HETATM   24  N5  UNL     1     -30.990 170.586  77.457  1.00  0.00    -0.373 N 
HETATM   25  C14 UNL     1     -30.332 170.894  78.600  1.00  0.00     0.107 A 
ATOM     26  H5  UNL     1     -30.645 170.778  76.517  1.00  0.00     0.164 HD
HETATM   27  C15 UNL     1     -31.148 170.460  79.617  1.00  0.00     0.034 A 
HETATM   28 BR1  UNL     1     -30.773 170.577  81.490  1.00  0.00    -0.049 Br
ENDBRANCH  21  22
ENDBRANCH  19  21
ENDBRANCH  16  18
ENDBRANCH  11  14
ENDBRANCH   8  10
ENDBRANCH   5   6
ENDBRANCH   3   4
TORSDOF 7
ENDMDL
MODEL 4
REMARK VINA RESULT: -6.524242167      1.346      1.516
REMARK  7 active torsions:
REMARK  status: ('A' for Active; 'I' for Inactive)
REMARK    1  A    between atoms: C3_3  and  C4_4 
REMARK    2  A    between atoms: C5_5  and  C6_6 
REMARK       I    between atoms: C6_6  and  N1_8 
REMARK    3  A    between atoms: N1_8  and  N2_10 
REMARK       I    between atoms: N2_10  and  C7_12 
REMARK    4  A    between atoms: C7_12  and  C8_14 
REMARK    5  A    between atoms: N3_16  and  N4_18 
REMARK       I    between atoms: N4_18  and  C10_19 
REMARK    6  A    between atoms: C10_19  and  C11_21 
REMARK    7  A    between atoms: C11_21  and  C12_22 
ROOT
HETATM    1  C1  UNL     1     -41.491 176.494  69.069  1.00  0.00     0.113 C 
HETATM    2  C2  UNL     1     -40.715 176.093  70.279  1.00  0.00    -0.097 C 
HETATM    3  C3  UNL     1     -40.117 175.762  71.266  1.00  0.00    -0.015 C 
ENDROOT
BRANCH   3   4
HETATM    4  C4  UNL     1     -39.440 175.361  72.461  1.00  0.00    -0.005 C 
HETATM    5  C5  UNL     1     -38.854 174.997  73.450  1.00  0.00     0.010 C 
BRANCH   5   6
HETATM    6  C6  UNL     1     -38.113 174.523  74.623  1.00  0.00     0.315 C 
HETATM    7  O1  UNL     1     -38.119 175.243  75.627  1.00  0.00    -0.256 OA
HETATM    8  N1  UNL     1     -37.448 173.295  74.556  1.00  0.00    -0.256 N 
ATOM      9  H1  UNL     1     -37.482 172.763  73.686  1.00  0.00     0.191 HD
BRANCH   8  10
HETATM   10  N2  UNL     1     -36.742 172.777  75.632  1.00  0.00    -0.262 N 
HETATM   11  C7  UNL     1     -36.977 171.447  76.024  1.00  0.00     0.284 C 
HETATM   12  O2  UNL     1     -37.823 170.780  75.340  1.00  0.00    -0.265 OA
ATOM     13  H2  UNL     1     -36.064 173.352  76.131  1.00  0.00     0.190 HD
BRANCH  11  14
HETATM   14  C8  UNL     1     -36.330 170.799  77.139  1.00  0.00     0.103 C 
HETATM   15  C9  UNL     1     -35.411 171.560  78.034  1.00  0.00     0.077 C 
HETATM   16  N3  UNL     1     -36.515 169.536  77.418  1.00  0.00    -0.232 N 
ATOM     17  H3  UNL     1     -37.140 169.013  76.805  1.00  0.00     0.202 HD
BRANCH  16  18
HETATM   18  N4  UNL     1     -35.961 168.870  78.434  1.00  0.00    -0.286 NA
HETATM   19  C10 UNL     1     -35.412 168.212  79.436  1.00  0.00     0.316 C 
HETATM   20  O3  UNL     1     -36.048 167.741  80.460  1.00  0.00    -0.255 OA
BRANCH  19  21
HETATM   21  C11 UNL     1     -33.917 167.873  79.578  1.00  0.00     0.162 C 
BRANCH  21  22
HETATM   22  C12 UNL     1     -33.224 169.176  79.862  1.00  0.00    -0.014 A 
HETATM   23  C13 UNL     1     -33.133 169.888  81.033  1.00  0.00     0.096 A 
HETATM   24  N5  UNL     1     -32.359 170.963  80.839  1.00  0.00    -0.373 N 
HETATM   25  C14 UNL     1     -31.922 171.000  79.557  1.00  0.00     0.107 A 
ATOM     26  H5  UNL     1     -32.132 171.654  81.552  1.00  0.00     0.164 HD
HETATM   27  C15 UNL     1     -32.465 169.890  78.956  1.00  0.00     0.034 A 
HETATM   28 BR1  UNL     1     -32.249 169.383  77.123  1.00  0.00    -0.049 Br
ENDBRANCH  21  22
ENDBRANCH  19  21
ENDBRANCH  16  18
ENDBRANCH  11  14
ENDBRANCH   8  10
ENDBRANCH   5   6
ENDBRANCH   3   4
TORSDOF 7
ENDMDL
MODEL 5
REMARK VINA RESULT: -6.453917772      0.986      1.083
REMARK  7 active torsions:
REMARK  status: ('A' for Active; 'I' for Inactive)
REMARK    1  A    between atoms: C3_3  and  C4_4 
REMARK    2  A    between atoms: C5_5  and  C6_6 
REMARK       I    between atoms: C6_6  and  N1_8 
REMARK    3  A    between atoms: N1_8  and  N2_10 
REMARK       I    between atoms: N2_10  and  C7_12 
REMARK    4  A    between atoms: C7_12  and  C8_14 
REMARK    5  A    between atoms: N3_16  and  N4_18 
REMARK       I    between atoms: N4_18  and  C10_19 
REMARK    6  A    between atoms: C10_19  and  C11_21 
REMARK    7  A    between atoms: C11_21  and  C12_22 
ROOT
HETATM    1  C1  UNL     1     -41.301 176.696  69.977  1.00  0.00     0.113 C 
HETATM    2  C2  UNL     1     -40.447 176.041  71.010  1.00  0.00    -0.097 C 
HETATM    3  C3  UNL     1     -39.780 175.489  71.843  1.00  0.00    -0.015 C 
ENDROOT
BRANCH   3   4
HETATM    4  C4  UNL     1     -39.014 174.805  72.839  1.00  0.00    -0.005 C 
HETATM    5  C5  UNL     1     -38.340 174.234  73.660  1.00  0.00     0.010 C 
BRANCH   5   6
HETATM    6  C6  UNL     1     -37.477 173.559  74.634  1.00  0.00     0.315 C 
HETATM    7  O1  UNL     1     -36.935 174.261  75.493  1.00  0.00    -0.256 OA
HETATM    8  N1  UNL     1     -37.313 172.173  74.551  1.00  0.00    -0.256 N 
ATOM      9  H1  UNL     1     -37.787 171.664  73.805  1.00  0.00     0.191 HD
BRANCH   8  10
HETATM   10  N2  UNL     1     -36.525 171.468  75.449  1.00  0.00    -0.262 N 
HETATM   11  C7  UNL     1     -37.145 170.800  76.521  1.00  0.00     0.284 C 
HETATM   12  O2  UNL     1     -38.417 170.866  76.589  1.00  0.00    -0.265 OA
ATOM     13  H2  UNL     1     -35.512 171.434  75.334  1.00  0.00     0.190 HD
BRANCH  11  14
HETATM   14  C8  UNL     1     -36.440 170.055  77.535  1.00  0.00     0.103 C 
HETATM   15  C9  UNL     1     -36.631 168.582  77.670  1.00  0.00     0.077 C 
HETATM   16  N3  UNL     1     -35.610 170.622  78.369  1.00  0.00    -0.232 N 
ATOM     17  H3  UNL     1     -35.480 171.630  78.281  1.00  0.00     0.202 HD
BRANCH  16  18
HETATM   18  N4  UNL     1     -34.916 170.001  79.326  1.00  0.00    -0.286 NA
HETATM   19  C10 UNL     1     -34.230 169.387  80.270  1.00  0.00     0.316 C 
HETATM   20  O3  UNL     1     -34.668 169.114  81.457  1.00  0.00    -0.255 OA
BRANCH  19  21
HETATM   21  C11 UNL     1     -32.784 168.873  80.141  1.00  0.00     0.162 C 
BRANCH  21  22
HETATM   22  C12 UNL     1     -31.930 170.093  79.935  1.00  0.00    -0.014 A 
HETATM   23  C13 UNL     1     -31.368 170.942  80.857  1.00  0.00     0.096 A 
HETATM   24  N5  UNL     1     -30.630 171.860  80.222  1.00  0.00    -0.373 N 
HETATM   25  C14 UNL     1     -30.678 171.656  78.884  1.00  0.00     0.107 A 
ATOM     26  H5  UNL     1     -30.106 172.605  80.680  1.00  0.00     0.164 HD
HETATM   27  C15 UNL     1     -31.489 170.560  78.712  1.00  0.00     0.034 A 
HETATM   28 BR1  UNL     1     -31.985 169.777  77.038  1.00  0.00    -0.049 Br
ENDBRANCH  21  22
ENDBRANCH  19  21
ENDBRANCH  16  18
ENDBRANCH  11  14
ENDBRANCH   8  10
ENDBRANCH   5   6
ENDBRANCH   3   4
TORSDOF 7
ENDMDL
