MODEL 1
REMARK VINA RESULT: -6.005825420      0.000      0.000
REMARK  7 active torsions:
REMARK  status: ('A' for Active; 'I' for Inactive)
REMARK    1  A    between atoms: C2_2  and  N1_3 
REMARK       I    between atoms: N1_3  and  C3_5 
REMARK    2  A    between atoms: C3_5  and  C4_7 
REMARK    3  A    between atoms: N3_13  and  C6_14 
REMARK    4  A    between atoms: C6_14  and  N4_16 
REMARK    5  A    between atoms: N4_16  and  C7_18 
REMARK    6  A    between atoms: C7_18  and  C10_21 
REMARK    7  A    between atoms: C10_21  and  O3_22 
ROOT
HETATM    1  C4  UNL     1     -37.903 172.590  75.269  1.00  0.00     0.228 C 
HETATM    2 BR1  UNL     1     -36.266 172.340  76.163  1.00  0.00    -0.043 Br
HETATM    3  N2  UNL     1     -39.058 172.001  75.857  1.00  0.00    -0.309 N 
ATOM      4  H2  UNL     1     -39.740 172.491  76.437  1.00  0.00     0.166 HD
HETATM    5  C5  UNL     1     -39.109 170.641  75.513  1.00  0.00     0.331 C 
HETATM    6  O2  UNL     1     -39.661 169.727  76.116  1.00  0.00    -0.246 OA
HETATM    7  N3  UNL     1     -38.358 170.503  74.246  1.00  0.00    -0.230 N 
HETATM    8  C11 UNL     1     -37.906 171.791  73.950  1.00  0.00     0.140 C 
HETATM    9  S2  UNL     1     -37.423 172.386  72.517  1.00  0.00    -0.060 SA
ENDROOT
BRANCH   7  10
HETATM   10  C6  UNL     1     -38.203 169.238  73.604  1.00  0.00     0.184 C 
HETATM   11  S1  UNL     1     -37.226 168.139  74.363  1.00  0.00    -0.040 SA
BRANCH  10  12
HETATM   12  N4  UNL     1     -38.975 168.841  72.502  1.00  0.00    -0.356 N 
ATOM     13  H4  UNL     1     -38.474 168.754  71.617  1.00  0.00     0.162 HD
BRANCH  12  14
HETATM   14  C7  UNL     1     -40.371 168.544  72.459  1.00  0.00     0.046 C 
HETATM   15  C8  UNL     1     -41.281 169.711  72.627  1.00  0.00     0.040 C 
HETATM   16  C9  UNL     1     -40.810 167.739  71.236  1.00  0.00     0.040 C 
BRANCH  14  17
HETATM   17  C10 UNL     1     -40.679 167.575  73.633  1.00  0.00     0.194 C 
BRANCH  17  18
HETATM   18  O3  UNL     1     -41.619 168.139  74.456  1.00  0.00    -0.398 OA
ATOM     19  H3  UNL     1     -41.414 167.933  75.360  1.00  0.00     0.209 HD
ENDBRANCH  17  18
ENDBRANCH  14  17
ENDBRANCH  12  14
ENDBRANCH  10  12
ENDBRANCH   7  10
BRANCH   1  20
HETATM   20  C3  UNL     1     -38.160 174.025  74.895  1.00  0.00     0.264 C 
HETATM   21  N1  UNL     1     -39.331 174.207  74.009  1.00  0.00    -0.358 N 
ATOM     22  H1  UNL     1     -39.862 173.389  73.711  1.00  0.00     0.162 HD
HETATM   23  O1  UNL     1     -37.486 174.941  75.265  1.00  0.00    -0.269 OA
BRANCH  21  24
HETATM   24  C2  UNL     1     -39.731 175.493  73.565  1.00  0.00     0.118 C 
HETATM   25  C1  UNL     1     -39.696 175.704  72.087  1.00  0.00     0.026 C 
ENDBRANCH  21  24
ENDBRANCH   1  20
TORSDOF 7
ENDMDL
MODEL 2
REMARK VINA RESULT: -5.967001560      2.142      2.481
REMARK  7 active torsions:
REMARK  status: ('A' for Active; 'I' for Inactive)
REMARK    1  A    between atoms: C2_2  and  N1_3 
REMARK       I    between atoms: N1_3  and  C3_5 
REMARK    2  A    between atoms: C3_5  and  C4_7 
REMARK    3  A    between atoms: N3_13  and  C6_14 
REMARK    4  A    between atoms: C6_14  and  N4_16 
REMARK    5  A    between atoms: N4_16  and  C7_18 
REMARK    6  A    between atoms: C7_18  and  C10_21 
REMARK    7  A    between atoms: C10_21  and  O3_22 
ROOT
HETATM    1  C4  UNL     1     -38.578 171.992  74.755  1.00  0.00     0.228 C 
HETATM    2 BR1  UNL     1     -37.440 171.258  76.063  1.00  0.00    -0.043 Br
HETATM    3  N2  UNL     1     -39.959 171.661  74.841  1.00  0.00    -0.309 N 
ATOM      4  H2  UNL     1     -40.683 172.251  75.251  1.00  0.00     0.166 HD
HETATM    5  C5  UNL     1     -40.167 170.394  74.271  1.00  0.00     0.331 C 
HETATM    6  O2  UNL     1     -41.069 169.597  74.505  1.00  0.00    -0.246 OA
HETATM    7  N3  UNL     1     -39.069 170.188  73.302  1.00  0.00    -0.230 N 
HETATM    8  C11 UNL     1     -38.288 171.344  73.387  1.00  0.00     0.140 C 
HETATM    9  S2  UNL     1     -37.228 171.925  72.303  1.00  0.00    -0.060 SA
ENDROOT
BRANCH   7  10
HETATM   10  C6  UNL     1     -38.966 168.989  72.536  1.00  0.00     0.184 C 
HETATM   11  S1  UNL     1     -38.634 167.602  73.376  1.00  0.00    -0.040 SA
BRANCH  10  12
HETATM   12  N4  UNL     1     -39.316 168.916  71.179  1.00  0.00    -0.356 N 
ATOM     13  H4  UNL     1     -40.283 169.156  70.956  1.00  0.00     0.162 HD
BRANCH  12  14
HETATM   14  C7  UNL     1     -38.494 168.552  70.070  1.00  0.00     0.046 C 
HETATM   15  C8  UNL     1     -37.041 168.841  70.226  1.00  0.00     0.040 C 
HETATM   16  C9  UNL     1     -38.668 167.108  69.600  1.00  0.00     0.040 C 
BRANCH  14  17
HETATM   17  C10 UNL     1     -38.974 169.371  68.841  1.00  0.00     0.194 C 
BRANCH  17  18
HETATM   18  O3  UNL     1     -40.343 169.413  68.825  1.00  0.00    -0.398 OA
ATOM     19  H3  UNL     1     -40.632 170.182  68.347  1.00  0.00     0.209 HD
ENDBRANCH  17  18
ENDBRANCH  14  17
ENDBRANCH  12  14
ENDBRANCH  10  12
ENDBRANCH   7  10
BRANCH   1  20
HETATM   20  C3  UNL     1     -38.388 173.473  74.570  1.00  0.00     0.264 C 
HETATM   21  N1  UNL     1     -39.406 174.098  73.696  1.00  0.00    -0.358 N 
ATOM     22  H1  UNL     1     -40.134 173.514  73.283  1.00  0.00     0.162 HD
HETATM   23  O1  UNL     1     -37.499 174.099  75.069  1.00  0.00    -0.269 OA
BRANCH  21  24
HETATM   24  C2  UNL     1     -39.392 175.488  73.419  1.00  0.00     0.118 C 
HETATM   25  C1  UNL     1     -39.807 175.873  72.037  1.00  0.00     0.026 C 
ENDBRANCH  21  24
ENDBRANCH   1  20
TORSDOF 7
ENDMDL
MODEL 3
REMARK VINA RESULT: -5.883034043      1.525      1.996
REMARK  7 active torsions:
REMARK  status: ('A' for Active; 'I' for Inactive)
REMARK    1  A    between atoms: C2_2  and  N1_3 
REMARK       I    between atoms: N1_3  and  C3_5 
REMARK    2  A    between atoms: C3_5  and  C4_7 
REMARK    3  A    between atoms: N3_13  and  C6_14 
REMARK    4  A    between atoms: C6_14  and  N4_16 
REMARK    5  A    between atoms: N4_16  and  C7_18 
REMARK    6  A    between atoms: C7_18  and  C10_21 
REMARK    7  A    between atoms: C10_21  and  O3_22 
ROOT
HETATM    1  C4  UNL     1     -38.567 171.965  74.771  1.00  0.00     0.228 C 
HETATM    2 BR1  UNL     1     -37.440 171.148  76.037  1.00  0.00    -0.043 Br
HETATM    3  N2  UNL     1     -39.966 171.744  74.913  1.00  0.00    -0.309 N 
ATOM      4  H2  UNL     1     -40.624 172.390  75.349  1.00  0.00     0.166 HD
HETATM    5  C5  UNL     1     -40.295 170.496  74.360  1.00  0.00     0.331 C 
HETATM    6  O2  UNL     1     -41.247 169.773  74.634  1.00  0.00    -0.246 OA
HETATM    7  N3  UNL     1     -39.257 170.202  73.349  1.00  0.00    -0.230 N 
HETATM    8  C11 UNL     1     -38.385 171.292  73.396  1.00  0.00     0.140 C 
HETATM    9  S2  UNL     1     -37.326 171.786  72.267  1.00  0.00    -0.060 SA
ENDROOT
BRANCH   7  10
HETATM   10  C6  UNL     1     -39.279 168.996  72.586  1.00  0.00     0.184 C 
HETATM   11  S1  UNL     1     -38.238 168.916  71.302  1.00  0.00    -0.040 SA
BRANCH  10  12
HETATM   12  N4  UNL     1     -39.981 167.850  72.989  1.00  0.00    -0.356 N 
ATOM     13  H4  UNL     1     -40.936 167.767  72.638  1.00  0.00     0.162 HD
BRANCH  12  14
HETATM   14  C7  UNL     1     -39.531 166.784  73.825  1.00  0.00     0.046 C 
HETATM   15  C8  UNL     1     -39.246 165.498  73.129  1.00  0.00     0.040 C 
HETATM   16  C9  UNL     1     -38.347 167.140  74.723  1.00  0.00     0.040 C 
BRANCH  14  17
HETATM   17  C10 UNL     1     -40.659 166.485  74.851  1.00  0.00     0.194 C 
BRANCH  17  18
HETATM   18  O3  UNL     1     -41.812 167.114  74.459  1.00  0.00    -0.398 OA
ATOM     19  H3  UNL     1     -42.560 166.577  74.691  1.00  0.00     0.209 HD
ENDBRANCH  17  18
ENDBRANCH  14  17
ENDBRANCH  12  14
ENDBRANCH  10  12
ENDBRANCH   7  10
BRANCH   1  20
HETATM   20  C3  UNL     1     -38.270 173.426  74.570  1.00  0.00     0.264 C 
HETATM   21  N1  UNL     1     -39.273 174.128  73.739  1.00  0.00    -0.358 N 
ATOM     22  H1  UNL     1     -40.062 173.603  73.362  1.00  0.00     0.162 HD
HETATM   23  O1  UNL     1     -37.313 173.981  75.026  1.00  0.00    -0.269 OA
BRANCH  21  24
HETATM   24  C2  UNL     1     -39.162 175.513  73.455  1.00  0.00     0.118 C 
HETATM   25  C1  UNL     1     -39.677 175.939  72.120  1.00  0.00     0.026 C 
ENDBRANCH  21  24
ENDBRANCH   1  20
TORSDOF 7
ENDMDL
MODEL 4
REMARK VINA RESULT: -5.780319542      1.771      2.150
REMARK  7 active torsions:
REMARK  status: ('A' for Active; 'I' for Inactive)
REMARK    1  A    between atoms: C2_2  and  N1_3 
REMARK       I    between atoms: N1_3  and  C3_5 
REMARK    2  A    between atoms: C3_5  and  C4_7 
REMARK    3  A    between atoms: N3_13  and  C6_14 
REMARK    4  A    between atoms: C6_14  and  N4_16 
REMARK    5  A    between atoms: N4_16  and  C7_18 
REMARK    6  A    between atoms: C7_18  and  C10_21 
REMARK    7  A    between atoms: C10_21  and  O3_22 
ROOT
HETATM    1  C4  UNL     1     -38.562 172.040  74.762  1.00  0.00     0.228 C 
HETATM    2 BR1  UNL     1     -37.425 171.318  76.077  1.00  0.00    -0.043 Br
HETATM    3  N2  UNL     1     -39.949 171.744  74.873  1.00  0.00    -0.309 N 
ATOM      4  H2  UNL     1     -40.655 172.361  75.275  1.00  0.00     0.166 HD
HETATM    5  C5  UNL     1     -40.192 170.467  74.342  1.00  0.00     0.331 C 
HETATM    6  O2  UNL     1     -41.109 169.697  74.610  1.00  0.00    -0.246 OA
HETATM    7  N3  UNL     1     -39.112 170.208  73.366  1.00  0.00    -0.230 N 
HETATM    8  C11 UNL     1     -38.304 171.348  73.409  1.00  0.00     0.140 C 
HETATM    9  S2  UNL     1     -37.245 171.875  72.297  1.00  0.00    -0.060 SA
ENDROOT
BRANCH   7  10
HETATM   10  C6  UNL     1     -39.045 168.986  72.633  1.00  0.00     0.184 C 
HETATM   11  S1  UNL     1     -39.744 168.986  71.133  1.00  0.00    -0.040 SA
BRANCH  10  12
HETATM   12  N4  UNL     1     -38.268 167.892  73.042  1.00  0.00    -0.356 N 
ATOM     13  H4  UNL     1     -37.351 167.808  72.601  1.00  0.00     0.162 HD
BRANCH  12  14
HETATM   14  C7  UNL     1     -38.595 166.880  73.995  1.00  0.00     0.046 C 
HETATM   15  C8  UNL     1     -40.016 166.432  73.993  1.00  0.00     0.040 C 
HETATM   16  C9  UNL     1     -37.684 165.654  73.955  1.00  0.00     0.040 C 
BRANCH  14  17
HETATM   17  C10 UNL     1     -38.322 167.463  75.409  1.00  0.00     0.194 C 
BRANCH  17  18
HETATM   18  O3  UNL     1     -39.509 167.626  76.073  1.00  0.00    -0.398 OA
ATOM     19  H3  UNL     1     -40.056 166.861  75.938  1.00  0.00     0.209 HD
ENDBRANCH  17  18
ENDBRANCH  14  17
ENDBRANCH  12  14
ENDBRANCH  10  12
ENDBRANCH   7  10
BRANCH   1  20
HETATM   20  C3  UNL     1     -38.341 173.511  74.533  1.00  0.00     0.264 C 
HETATM   21  N1  UNL     1     -39.343 174.130  73.637  1.00  0.00    -0.358 N 
ATOM     22  H1  UNL     1     -40.082 173.549  73.239  1.00  0.00     0.162 HD
HETATM   23  O1  UNL     1     -37.442 174.134  75.016  1.00  0.00    -0.269 OA
BRANCH  21  24
HETATM   24  C2  UNL     1     -39.300 175.510  73.318  1.00  0.00     0.118 C 
HETATM   25  C1  UNL     1     -39.762 175.868  71.944  1.00  0.00     0.026 C 
ENDBRANCH  21  24
ENDBRANCH   1  20
TORSDOF 7
ENDMDL
MODEL 5
REMARK VINA RESULT: -5.765455653      3.230      6.529
REMARK  7 active torsions:
REMARK  status: ('A' for Active; 'I' for Inactive)
REMARK    1  A    between atoms: C2_2  and  N1_3 
REMARK       I    between atoms: N1_3  and  C3_5 
REMARK    2  A    between atoms: C3_5  and  C4_7 
REMARK    3  A    between atoms: N3_13  and  C6_14 
REMARK    4  A    between atoms: C6_14  and  N4_16 
REMARK    5  A    between atoms: N4_16  and  C7_18 
REMARK    6  A    between atoms: C7_18  and  C10_21 
REMARK    7  A    between atoms: C10_21  and  O3_22 
ROOT
HETATM    1  C4  UNL     1     -40.475 167.464  73.837  1.00  0.00     0.228 C 
HETATM    2 BR1  UNL     1     -39.693 166.803  72.258  1.00  0.00    -0.043 Br
HETATM    3  N2  UNL     1     -41.459 168.483  73.694  1.00  0.00    -0.309 N 
ATOM      4  H2  UNL     1     -42.468 168.336  73.712  1.00  0.00     0.166 HD
HETATM    5  C5  UNL     1     -40.819 169.721  73.526  1.00  0.00     0.331 C 
HETATM    6  O2  UNL     1     -41.251 170.729  72.975  1.00  0.00    -0.246 OA
HETATM    7  N3  UNL     1     -39.487 169.592  74.156  1.00  0.00    -0.230 N 
HETATM    8  C11 UNL     1     -39.438 168.280  74.634  1.00  0.00     0.140 C 
HETATM    9  S2  UNL     1     -38.467 167.660  75.779  1.00  0.00    -0.060 SA
ENDROOT
BRANCH   7  10
HETATM   10  C6  UNL     1     -38.558 170.675  74.166  1.00  0.00     0.184 C 
HETATM   11  S1  UNL     1     -38.565 171.641  75.509  1.00  0.00    -0.040 SA
BRANCH  10  12
HETATM   12  N4  UNL     1     -37.547 170.823  73.204  1.00  0.00    -0.356 N 
ATOM     13  H4  UNL     1     -36.625 170.476  73.471  1.00  0.00     0.162 HD
BRANCH  12  14
HETATM   14  C7  UNL     1     -37.643 171.397  71.901  1.00  0.00     0.046 C 
HETATM   15  C8  UNL     1     -36.344 171.695  71.234  1.00  0.00     0.040 C 
HETATM   16  C9  UNL     1     -38.537 170.625  70.932  1.00  0.00     0.040 C 
BRANCH  14  17
HETATM   17  C10 UNL     1     -38.384 172.756  72.040  1.00  0.00     0.194 C 
BRANCH  17  18
HETATM   18  O3  UNL     1     -39.655 172.636  71.545  1.00  0.00    -0.398 OA
ATOM     19  H3  UNL     1     -40.143 172.011  72.070  1.00  0.00     0.209 HD
ENDBRANCH  17  18
ENDBRANCH  14  17
ENDBRANCH  12  14
ENDBRANCH  10  12
ENDBRANCH   7  10
BRANCH   1  20
HETATM   20  C3  UNL     1     -40.957 166.376  74.759  1.00  0.00     0.264 C 
HETATM   21  N1  UNL     1     -40.398 165.042  74.446  1.00  0.00    -0.358 N 
ATOM     22  H1  UNL     1     -39.759 164.942  73.657  1.00  0.00     0.162 HD
HETATM   23  O1  UNL     1     -41.724 166.555  75.659  1.00  0.00    -0.269 OA
BRANCH  21  24
HETATM   24  C2  UNL     1     -40.730 163.900  75.218  1.00  0.00     0.118 C 
HETATM   25  C1  UNL     1     -40.918 162.635  74.447  1.00  0.00     0.026 C 
ENDBRANCH  21  24
ENDBRANCH   1  20
TORSDOF 7
ENDMDL
