MODEL 1
REMARK VINA RESULT: -5.114698464      0.000      0.000
REMARK  2 active torsions:
REMARK  status: ('A' for Active; 'I' for Inactive)
REMARK    1  A    between atoms: C2_5  and  N3_6 
REMARK    2  A    between atoms: N3_6  and  C3_8 
ROOT
HETATM    1  N1  UNL     1      29.006 -45.965 -13.890  1.00  0.00    -0.172 NA
HETATM    2  C1  UNL     1      29.994 -45.637 -13.366  1.00  0.00     0.182 C 
HETATM    3  N2  UNL     1      31.171 -45.271 -12.742  1.00  0.00    -0.290 N 
ATOM      4  H2  UNL     1      31.977 -45.000 -13.305  1.00  0.00     0.178 HD
HETATM    5  C2  UNL     1      31.261 -45.270 -11.458  1.00  0.00     0.186 C 
ENDROOT
BRANCH   5   6
HETATM    6  N3  UNL     1      32.468 -44.896 -10.798  1.00  0.00    -0.381 N 
ATOM      7  H3  UNL     1      33.165 -44.360 -11.314  1.00  0.00     0.160 HD
BRANCH   6   8
HETATM    8  C3  UNL     1      32.737 -45.251  -9.416  1.00  0.00     0.082 C 
HETATM    9  C4  UNL     1      34.030 -46.029  -9.403  1.00  0.00     0.025 C 
HETATM   10  C5  UNL     1      33.989 -47.070  -8.311  1.00  0.00     0.002 C 
HETATM   11  C6  UNL     1      33.965 -46.354  -7.001  1.00  0.00     0.000 C 
HETATM   12  C7  UNL     1      32.676 -45.689  -6.676  1.00  0.00     0.000 C 
HETATM   13  C8  UNL     1      31.498 -46.206  -7.447  1.00  0.00     0.002 C 
HETATM   14  C9  UNL     1      31.571 -46.038  -8.915  1.00  0.00     0.025 C 
ENDBRANCH   6   8
ENDBRANCH   5   6
TORSDOF 2
ENDMDL
MODEL 2
REMARK VINA RESULT: -5.088239526      1.282      2.183
REMARK  2 active torsions:
REMARK  status: ('A' for Active; 'I' for Inactive)
REMARK    1  A    between atoms: C2_5  and  N3_6 
REMARK    2  A    between atoms: N3_6  and  C3_8 
ROOT
HETATM    1  N1  UNL     1      30.751 -44.984 -15.643  1.00  0.00    -0.172 NA
HETATM    2  C1  UNL     1      30.574 -44.970 -14.492  1.00  0.00     0.182 C 
HETATM    3  N2  UNL     1      30.382 -44.941 -13.124  1.00  0.00    -0.290 N 
ATOM      4  H2  UNL     1      29.711 -44.285 -12.722  1.00  0.00     0.178 HD
HETATM    5  C2  UNL     1      31.040 -45.732 -12.350  1.00  0.00     0.186 C 
ENDROOT
BRANCH   5   6
HETATM    6  N3  UNL     1      30.855 -45.714 -10.938  1.00  0.00    -0.381 N 
ATOM      7  H3  UNL     1      29.963 -45.394 -10.562  1.00  0.00     0.160 HD
BRANCH   6   8
HETATM    8  C3  UNL     1      31.893 -46.139 -10.015  1.00  0.00     0.082 C 
HETATM    9  C4  UNL     1      31.444 -45.741  -8.630  1.00  0.00     0.025 C 
HETATM   10  C5  UNL     1      32.643 -45.380  -7.788  1.00  0.00     0.002 C 
HETATM   11  C6  UNL     1      33.446 -46.621  -7.583  1.00  0.00     0.000 C 
HETATM   12  C7  UNL     1      34.192 -47.086  -8.782  1.00  0.00     0.000 C 
HETATM   13  C8  UNL     1      34.400 -46.036  -9.832  1.00  0.00     0.002 C 
HETATM   14  C9  UNL     1      33.167 -45.480 -10.432  1.00  0.00     0.025 C 
ENDBRANCH   6   8
ENDBRANCH   5   6
TORSDOF 2
ENDMDL
MODEL 3
REMARK VINA RESULT: -5.035343588      2.078      3.318
REMARK  2 active torsions:
REMARK  status: ('A' for Active; 'I' for Inactive)
REMARK    1  A    between atoms: C2_5  and  N3_6 
REMARK    2  A    between atoms: N3_6  and  C3_8 
ROOT
HETATM    1  N1  UNL     1      32.964 -45.742 -12.720  1.00  0.00    -0.172 NA
HETATM    2  C1  UNL     1      32.289 -46.098 -11.839  1.00  0.00     0.182 C 
HETATM    3  N2  UNL     1      31.472 -46.506 -10.803  1.00  0.00    -0.290 N 
ATOM      4  H2  UNL     1      30.953 -47.381 -10.883  1.00  0.00     0.178 HD
HETATM    5  C2  UNL     1      31.358 -45.794  -9.736  1.00  0.00     0.186 C 
ENDROOT
BRANCH   5   6
HETATM    6  N3  UNL     1      30.520 -46.200  -8.658  1.00  0.00    -0.381 N 
ATOM      7  H3  UNL     1      29.514 -46.051  -8.733  1.00  0.00     0.160 HD
BRANCH   6   8
HETATM    8  C3  UNL     1      31.050 -46.819  -7.455  1.00  0.00     0.082 C 
HETATM    9  C4  UNL     1      29.927 -46.859  -6.447  1.00  0.00     0.025 C 
HETATM   10  C5  UNL     1      30.484 -46.696  -5.055  1.00  0.00     0.002 C 
HETATM   11  C6  UNL     1      31.310 -47.901  -4.750  1.00  0.00     0.000 C 
HETATM   12  C7  UNL     1      32.610 -47.964  -5.467  1.00  0.00     0.000 C 
HETATM   13  C8  UNL     1      33.093 -46.648  -5.998  1.00  0.00     0.002 C 
HETATM   14  C9  UNL     1      32.217 -46.005  -7.003  1.00  0.00     0.025 C 
ENDBRANCH   6   8
ENDBRANCH   5   6
TORSDOF 2
ENDMDL
MODEL 4
REMARK VINA RESULT: -4.948626410      1.252      2.074
REMARK  2 active torsions:
REMARK  status: ('A' for Active; 'I' for Inactive)
REMARK    1  A    between atoms: C2_5  and  N3_6 
REMARK    2  A    between atoms: N3_6  and  C3_8 
ROOT
HETATM    1  N1  UNL     1      30.128 -44.290 -13.966  1.00  0.00    -0.172 NA
HETATM    2  C1  UNL     1      30.407 -45.203 -13.297  1.00  0.00     0.182 C 
HETATM    3  N2  UNL     1      30.720 -46.279 -12.489  1.00  0.00    -0.290 N 
ATOM      4  H2  UNL     1      30.339 -47.200 -12.706  1.00  0.00     0.178 HD
HETATM    5  C2  UNL     1      31.486 -46.131 -11.465  1.00  0.00     0.186 C 
ENDROOT
BRANCH   5   6
HETATM    6  N3  UNL     1      31.819 -47.229 -10.621  1.00  0.00    -0.381 N 
ATOM      7  H3  UNL     1      31.574 -48.173 -10.921  1.00  0.00     0.160 HD
BRANCH   6   8
HETATM    8  C3  UNL     1      32.497 -47.051  -9.349  1.00  0.00     0.082 C 
HETATM    9  C4  UNL     1      31.657 -46.100  -8.531  1.00  0.00     0.025 C 
HETATM   10  C5  UNL     1      32.549 -45.255  -7.656  1.00  0.00     0.002 C 
HETATM   11  C6  UNL     1      33.189 -46.155  -6.652  1.00  0.00     0.000 C 
HETATM   12  C7  UNL     1      34.248 -47.044  -7.196  1.00  0.00     0.000 C 
HETATM   13  C8  UNL     1      34.823 -46.598  -8.507  1.00  0.00     0.002 C 
HETATM   14  C9  UNL     1      33.867 -46.530  -9.634  1.00  0.00     0.025 C 
ENDBRANCH   6   8
ENDBRANCH   5   6
TORSDOF 2
ENDMDL
MODEL 5
REMARK VINA RESULT: -4.924963146      3.586      4.939
REMARK  2 active torsions:
REMARK  status: ('A' for Active; 'I' for Inactive)
REMARK    1  A    between atoms: C2_5  and  N3_6 
REMARK    2  A    between atoms: N3_6  and  C3_8 
ROOT
HETATM    1  N1  UNL     1      32.653 -45.177 -10.244  1.00  0.00    -0.172 NA
HETATM    2  C1  UNL     1      31.739 -45.591  -9.650  1.00  0.00     0.182 C 
HETATM    3  N2  UNL     1      30.653 -46.060  -8.937  1.00  0.00    -0.290 N 
ATOM      4  H2  UNL     1      29.734 -46.092  -9.378  1.00  0.00     0.178 HD
HETATM    5  C2  UNL     1      30.789 -46.457  -7.720  1.00  0.00     0.186 C 
ENDROOT
BRANCH   5   6
HETATM    6  N3  UNL     1      29.680 -46.944  -6.969  1.00  0.00    -0.381 N 
ATOM      7  H3  UNL     1      28.745 -46.607  -7.197  1.00  0.00     0.160 HD
BRANCH   6   8
HETATM    8  C3  UNL     1      29.836 -47.904  -5.890  1.00  0.00     0.082 C 
HETATM    9  C4  UNL     1      30.653 -47.230  -4.814  1.00  0.00     0.025 C 
HETATM   10  C5  UNL     1      31.518 -48.250  -4.115  1.00  0.00     0.002 C 
HETATM   11  C6  UNL     1      30.616 -49.183  -3.377  1.00  0.00     0.000 C 
HETATM   12  C7  UNL     1      29.862 -50.133  -4.237  1.00  0.00     0.000 C 
HETATM   13  C8  UNL     1      30.443 -50.328  -5.605  1.00  0.00     0.002 C 
HETATM   14  C9  UNL     1      30.496 -49.118  -6.455  1.00  0.00     0.025 C 
ENDBRANCH   6   8
ENDBRANCH   5   6
TORSDOF 2
ENDMDL
