MODEL 1
REMARK VINA RESULT: -5.283221387      0.000      0.000
REMARK  2 active torsions:
REMARK  status: ('A' for Active; 'I' for Inactive)
REMARK    1  A    between atoms: N2_5  and  O1_7 
REMARK    2  A    between atoms: O1_7  and  N3_8 
ROOT
HETATM    1  C1  UNL     1      32.851 -45.339  -9.172  1.00  0.00     0.083 C 
HETATM    2  C2  UNL     1      31.472 -45.567  -9.653  1.00  0.00     0.110 C 
HETATM    3  C3  UNL     1      31.200 -45.390 -11.048  1.00  0.00     0.114 C 
HETATM    4  N1  UNL     1      30.971 -45.229 -12.184  1.00  0.00    -0.190 NA
HETATM    5  N2  UNL     1      30.569 -45.912  -8.817  1.00  0.00    -0.235 N 
ATOM      6  H2  UNL     1      29.611 -46.075  -9.128  1.00  0.00     0.197 HD
ENDROOT
BRANCH   5   7
HETATM    7  O1  UNL     1      30.906 -46.061  -7.500  1.00  0.00    -0.151 OA
BRANCH   7   8
HETATM    8  N3  UNL     1      30.195 -46.807  -6.600  1.00  0.00    -0.227 N 
HETATM    9  C4  UNL     1      29.704 -47.989  -7.150  1.00  0.00     0.097 C 
HETATM   10  C5  UNL     1      29.315 -49.070  -6.208  1.00  0.00     0.047 C 
HETATM   11  C6  UNL     1      30.495 -49.273  -5.252  1.00  0.00     0.010 C 
HETATM   12  C7  UNL     1      30.539 -47.974  -4.446  1.00  0.00     0.047 C 
HETATM   13  C8  UNL     1      30.645 -46.765  -5.280  1.00  0.00     0.097 C 
ENDBRANCH   7   8
ENDBRANCH   5   7
TORSDOF 2
ENDMDL
MODEL 2
REMARK VINA RESULT: -5.282613363      1.127      1.706
REMARK  2 active torsions:
REMARK  status: ('A' for Active; 'I' for Inactive)
REMARK    1  A    between atoms: N2_5  and  O1_7 
REMARK    2  A    between atoms: O1_7  and  N3_8 
ROOT
HETATM    1  C1  UNL     1      32.827 -45.037 -10.222  1.00  0.00     0.083 C 
HETATM    2  C2  UNL     1      31.382 -45.312 -10.378  1.00  0.00     0.110 C 
HETATM    3  C3  UNL     1      30.800 -45.175 -11.679  1.00  0.00     0.114 C 
HETATM    4  N1  UNL     1      30.318 -45.046 -12.738  1.00  0.00    -0.190 NA
HETATM    5  N2  UNL     1      30.701 -45.662  -9.356  1.00  0.00    -0.235 N 
ATOM      6  H2  UNL     1      29.703 -45.858  -9.441  1.00  0.00     0.197 HD
ENDROOT
BRANCH   5   7
HETATM    7  O1  UNL     1      31.328 -45.771  -8.144  1.00  0.00    -0.151 OA
BRANCH   7   8
HETATM    8  N3  UNL     1      31.310 -46.894  -7.363  1.00  0.00    -0.227 N 
HETATM    9  C4  UNL     1      32.304 -46.885  -6.387  1.00  0.00     0.097 C 
HETATM   10  C5  UNL     1      32.127 -47.793  -5.224  1.00  0.00     0.047 C 
HETATM   11  C6  UNL     1      30.718 -47.543  -4.677  1.00  0.00     0.010 C 
HETATM   12  C7  UNL     1      29.800 -48.057  -5.786  1.00  0.00     0.047 C 
HETATM   13  C8  UNL     1      30.052 -47.434  -7.097  1.00  0.00     0.097 C 
ENDBRANCH   7   8
ENDBRANCH   5   7
TORSDOF 2
ENDMDL
MODEL 3
REMARK VINA RESULT: -4.902817132      1.738      4.996
REMARK  2 active torsions:
REMARK  status: ('A' for Active; 'I' for Inactive)
REMARK    1  A    between atoms: N2_5  and  O1_7 
REMARK    2  A    between atoms: O1_7  and  N3_8 
ROOT
HETATM    1  C1  UNL     1      30.170 -46.838  -5.790  1.00  0.00     0.083 C 
HETATM    2  C2  UNL     1      29.927 -47.427  -7.124  1.00  0.00     0.110 C 
HETATM    3  C3  UNL     1      29.211 -48.665  -7.201  1.00  0.00     0.114 C 
HETATM    4  N1  UNL     1      28.642 -49.685  -7.265  1.00  0.00    -0.190 NA
HETATM    5  N2  UNL     1      30.359 -46.820  -8.162  1.00  0.00    -0.235 N 
ATOM      6  H2  UNL     1      30.202 -47.208  -9.092  1.00  0.00     0.197 HD
ENDROOT
BRANCH   5   7
HETATM    7  O1  UNL     1      31.036 -45.641  -8.008  1.00  0.00    -0.151 OA
BRANCH   7   8
HETATM    8  N3  UNL     1      32.317 -45.423  -8.436  1.00  0.00    -0.227 N 
HETATM    9  C4  UNL     1      33.247 -46.229  -7.782  1.00  0.00     0.097 C 
HETATM   10  C5  UNL     1      34.567 -46.416  -8.436  1.00  0.00     0.047 C 
HETATM   11  C6  UNL     1      34.290 -46.837  -9.883  1.00  0.00     0.010 C 
HETATM   12  C7  UNL     1      33.656 -45.595 -10.509  1.00  0.00     0.047 C 
HETATM   13  C8  UNL     1      32.466 -45.112  -9.788  1.00  0.00     0.097 C 
ENDBRANCH   7   8
ENDBRANCH   5   7
TORSDOF 2
ENDMDL
MODEL 4
REMARK VINA RESULT: -4.900038668      0.945      1.588
REMARK  2 active torsions:
REMARK  status: ('A' for Active; 'I' for Inactive)
REMARK    1  A    between atoms: N2_5  and  O1_7 
REMARK    2  A    between atoms: O1_7  and  N3_8 
ROOT
HETATM    1  C1  UNL     1      32.735 -45.232  -8.645  1.00  0.00     0.083 C 
HETATM    2  C2  UNL     1      31.460 -45.652  -9.265  1.00  0.00     0.110 C 
HETATM    3  C3  UNL     1      31.297 -45.471 -10.676  1.00  0.00     0.114 C 
HETATM    4  N1  UNL     1      31.153 -45.307 -11.826  1.00  0.00    -0.190 NA
HETATM    5  N2  UNL     1      30.548 -46.162  -8.529  1.00  0.00    -0.235 N 
ATOM      6  H2  UNL     1      29.661 -46.459  -8.936  1.00  0.00     0.197 HD
ENDROOT
BRANCH   5   7
HETATM    7  O1  UNL     1      30.778 -46.303  -7.188  1.00  0.00    -0.151 OA
BRANCH   7   8
HETATM    8  N3  UNL     1      31.054 -47.492  -6.572  1.00  0.00    -0.227 N 
HETATM    9  C4  UNL     1      32.161 -47.417  -5.728  1.00  0.00     0.097 C 
HETATM   10  C5  UNL     1      32.300 -48.469  -4.689  1.00  0.00     0.047 C 
HETATM   11  C6  UNL     1      30.959 -48.543  -3.950  1.00  0.00     0.010 C 
HETATM   12  C7  UNL     1      29.992 -49.083  -5.004  1.00  0.00     0.047 C 
HETATM   13  C8  UNL     1      29.952 -48.279  -6.236  1.00  0.00     0.097 C 
ENDBRANCH   7   8
ENDBRANCH   5   7
TORSDOF 2
ENDMDL
MODEL 5
REMARK VINA RESULT: -4.863013804      3.339      7.143
REMARK  2 active torsions:
REMARK  status: ('A' for Active; 'I' for Inactive)
REMARK    1  A    between atoms: N2_5  and  O1_7 
REMARK    2  A    between atoms: O1_7  and  N3_8 
ROOT
HETATM    1  C1  UNL     1      32.967 -45.097 -10.470  1.00  0.00     0.083 C 
HETATM    2  C2  UNL     1      31.558 -45.490 -10.252  1.00  0.00     0.110 C 
HETATM    3  C3  UNL     1      31.148 -45.840  -8.925  1.00  0.00     0.114 C 
HETATM    4  N1  UNL     1      30.814 -46.144  -7.846  1.00  0.00    -0.190 NA
HETATM    5  N2  UNL     1      30.755 -45.506 -11.245  1.00  0.00    -0.235 N 
ATOM      6  H2  UNL     1      29.778 -45.773 -11.116  1.00  0.00     0.197 HD
ENDROOT
BRANCH   5   7
HETATM    7  O1  UNL     1      31.221 -45.158 -12.483  1.00  0.00    -0.151 OA
BRANCH   7   8
HETATM    8  N3  UNL     1      31.243 -45.996 -13.564  1.00  0.00    -0.227 N 
HETATM    9  C4  UNL     1      29.998 -46.112 -14.180  1.00  0.00     0.097 C 
HETATM   10  C5  UNL     1      29.972 -46.612 -15.578  1.00  0.00     0.047 C 
HETATM   11  C6  UNL     1      30.981 -45.772 -16.369  1.00  0.00     0.010 C 
HETATM   12  C7  UNL     1      32.333 -46.173 -15.778  1.00  0.00     0.047 C 
HETATM   13  C8  UNL     1      32.416 -45.991 -14.319  1.00  0.00     0.097 C 
ENDBRANCH   7   8
ENDBRANCH   5   7
TORSDOF 2
ENDMDL
