MODEL 1
REMARK VINA RESULT: -8.190418634      0.000      0.000
REMARK  4 active torsions:
REMARK  status: ('A' for Active; 'I' for Inactive)
REMARK    1  A    between atoms: C2_2  and  N1_3 
REMARK       I    between atoms: N1_3  and  C3_5 
REMARK       I    between atoms: C3_5  and  N2_7 
REMARK    2  A    between atoms: N2_7  and  N3_9 
REMARK    3  A    between atoms: N3_9  and  C4_11 
REMARK    4  A    between atoms: C5_14  and  C6_15 
ROOT
HETATM    1  C4  UNL     1      28.335  46.759  -3.580  1.00  0.00     0.700 C 
HETATM    2  N4  UNL     1      28.802  46.494  -2.363  1.00  0.00    -0.184 N 
ATOM      3  H4  UNL     1      29.587  45.845  -2.319  1.00  0.00     0.184 HD
HETATM    4  C5  UNL     1      28.361  46.983  -1.157  1.00  0.00     0.124 C 
HETATM    5  C7  UNL     1      27.706  48.176  -0.930  1.00  0.00     0.026 C 
HETATM    6  C8  UNL     1      27.917  48.865   0.343  1.00  0.00     0.055 C 
HETATM    7  C9  UNL     1      26.851  48.772  -1.865  1.00  0.00     0.248 C 
HETATM    8  O3  UNL     1      26.077  49.631  -1.392  1.00  0.00    -0.282 OA
HETATM    9  C10 UNL     1      26.749  48.535  -3.241  1.00  0.00     0.310 C 
HETATM   10  O4  UNL     1      25.809  49.099  -3.857  1.00  0.00    -0.263 OA
HETATM   11  N6  UNL     1      27.551  47.758  -4.002  1.00  0.00    -0.151 N 
ATOM     12  H6  UNL     1      27.560  47.954  -5.003  1.00  0.00     0.188 HD
ENDROOT
BRANCH   1  13
HETATM   13  N3  UNL     1      28.716  45.895  -4.484  1.00  0.00    -0.128 N 
ATOM     14  H3  UNL     1      28.025  45.283  -4.917  1.00  0.00     0.205 HD
BRANCH  13  15
HETATM   15  N2  UNL     1      30.045  45.799  -4.863  1.00  0.00    -0.237 N 
HETATM   16  C3  UNL     1      30.560  46.643  -5.880  1.00  0.00     0.335 C 
HETATM   17  N1  UNL     1      31.908  46.591  -6.311  1.00  0.00    -0.342 N 
HETATM   18  O1  UNL     1      29.773  47.467  -6.415  1.00  0.00    -0.246 OA
ATOM     19  H1  UNL     1      32.553  45.926  -5.884  1.00  0.00     0.164 HD
ATOM     20  H2  UNL     1      30.655  45.118  -4.408  1.00  0.00     0.192 HD
BRANCH  17  21
HETATM   21  C2  UNL     1      32.369  47.468  -7.343  1.00  0.00     0.120 C 
HETATM   22  C1  UNL     1      33.877  47.374  -7.421  1.00  0.00     0.026 C 
ENDBRANCH  17  21
ENDBRANCH  13  15
ENDBRANCH   1  13
BRANCH   4  23
HETATM   23  C6  UNL     1      28.604  46.182   0.010  1.00  0.00     0.282 C 
HETATM   24  N5  UNL     1      27.655  45.216   0.421  1.00  0.00    -0.056 NA
HETATM   25  O2  UNL     1      29.636  46.313   0.679  1.00  0.00    -0.269 OA
ENDBRANCH   4  23
TORSDOF 4
ENDMDL
MODEL 2
REMARK VINA RESULT: -7.936953564      1.717      1.942
REMARK  4 active torsions:
REMARK  status: ('A' for Active; 'I' for Inactive)
REMARK    1  A    between atoms: C2_2  and  N1_3 
REMARK       I    between atoms: N1_3  and  C3_5 
REMARK       I    between atoms: C3_5  and  N2_7 
REMARK    2  A    between atoms: N2_7  and  N3_9 
REMARK    3  A    between atoms: N3_9  and  C4_11 
REMARK    4  A    between atoms: C5_14  and  C6_15 
ROOT
HETATM    1  C4  UNL     1      29.251  47.905  -3.303  1.00  0.00     0.700 C 
HETATM    2  N4  UNL     1      29.577  47.440  -2.100  1.00  0.00    -0.184 N 
ATOM      3  H4  UNL     1      30.491  46.992  -2.029  1.00  0.00     0.184 HD
HETATM    4  C5  UNL     1      28.840  47.485  -0.942  1.00  0.00     0.124 C 
HETATM    5  C7  UNL     1      27.863  48.401  -0.609  1.00  0.00     0.026 C 
HETATM    6  C8  UNL     1      27.682  48.760   0.797  1.00  0.00     0.055 C 
HETATM    7  C9  UNL     1      27.035  49.017  -1.556  1.00  0.00     0.248 C 
HETATM    8  O3  UNL     1      25.997  49.528  -1.088  1.00  0.00    -0.282 OA
HETATM    9  C10 UNL     1      27.215  49.132  -2.939  1.00  0.00     0.310 C 
HETATM   10  O4  UNL     1      26.266  49.617  -3.607  1.00  0.00    -0.263 OA
HETATM   11  N6  UNL     1      28.303  48.781  -3.659  1.00  0.00    -0.151 N 
ATOM     12  H6  UNL     1      28.415  49.230  -4.568  1.00  0.00     0.188 HD
ENDROOT
BRANCH   1  13
HETATM   13  N3  UNL     1      29.985  47.416  -4.268  1.00  0.00    -0.128 N 
ATOM     14  H3  UNL     1      30.444  48.051  -4.922  1.00  0.00     0.205 HD
BRANCH  13  15
HETATM   15  N2  UNL     1      30.149  46.049  -4.416  1.00  0.00    -0.237 N 
HETATM   16  C3  UNL     1      29.850  45.424  -5.654  1.00  0.00     0.335 C 
HETATM   17  N1  UNL     1      29.997  44.032  -5.866  1.00  0.00    -0.342 N 
HETATM   18  O1  UNL     1      29.435  46.151  -6.595  1.00  0.00    -0.246 OA
ATOM     19  H1  UNL     1      30.332  43.435  -5.110  1.00  0.00     0.164 HD
ATOM     20  H2  UNL     1      30.487  45.490  -3.632  1.00  0.00     0.192 HD
BRANCH  17  21
HETATM   21  C2  UNL     1      29.678  43.460  -7.138  1.00  0.00     0.120 C 
HETATM   22  C1  UNL     1      30.923  43.468  -7.999  1.00  0.00     0.026 C 
ENDBRANCH  17  21
ENDBRANCH  13  15
ENDBRANCH   1  13
BRANCH   4  23
HETATM   23  C6  UNL     1      29.105  46.480   0.050  1.00  0.00     0.282 C 
HETATM   24  N5  UNL     1      28.329  45.298   0.090  1.00  0.00    -0.056 NA
HETATM   25  O2  UNL     1      30.008  46.618   0.884  1.00  0.00    -0.269 OA
ENDBRANCH   4  23
TORSDOF 4
ENDMDL
MODEL 3
REMARK VINA RESULT: -7.760684744      2.432      6.545
REMARK  4 active torsions:
REMARK  status: ('A' for Active; 'I' for Inactive)
REMARK    1  A    between atoms: C2_2  and  N1_3 
REMARK       I    between atoms: N1_3  and  C3_5 
REMARK       I    between atoms: C3_5  and  N2_7 
REMARK    2  A    between atoms: N2_7  and  N3_9 
REMARK    3  A    between atoms: N3_9  and  C4_11 
REMARK    4  A    between atoms: C5_14  and  C6_15 
ROOT
HETATM    1  C4  UNL     1      30.727  47.001  -4.596  1.00  0.00     0.700 C 
HETATM    2  N4  UNL     1      30.260  45.875  -5.127  1.00  0.00    -0.184 N 
ATOM      3  H4  UNL     1      29.897  45.189  -4.466  1.00  0.00     0.184 HD
HETATM    4  C5  UNL     1      30.203  45.519  -6.453  1.00  0.00     0.124 C 
HETATM    5  C7  UNL     1      30.143  46.364  -7.542  1.00  0.00     0.026 C 
HETATM    6  C8  UNL     1      29.418  45.927  -8.735  1.00  0.00     0.055 C 
HETATM    7  C9  UNL     1      30.737  47.632  -7.562  1.00  0.00     0.248 C 
HETATM    8  O3  UNL     1      30.903  48.113  -8.703  1.00  0.00    -0.282 OA
HETATM    9  C10 UNL     1      31.163  48.421  -6.488  1.00  0.00     0.310 C 
HETATM   10  O4  UNL     1      31.792  49.475  -6.759  1.00  0.00    -0.263 OA
HETATM   11  N6  UNL     1      30.979  48.184  -5.171  1.00  0.00    -0.151 N 
ATOM     12  H6  UNL     1      31.038  48.990  -4.549  1.00  0.00     0.188 HD
ENDROOT
BRANCH   1  13
HETATM   13  N3  UNL     1      30.970  46.912  -3.315  1.00  0.00    -0.128 N 
ATOM     14  H3  UNL     1      31.550  46.149  -2.965  1.00  0.00     0.205 HD
BRANCH  13  15
HETATM   15  N2  UNL     1      30.452  47.837  -2.425  1.00  0.00    -0.237 N 
HETATM   16  C3  UNL     1      29.063  47.849  -2.135  1.00  0.00     0.335 C 
HETATM   17  N1  UNL     1      28.475  48.770  -1.234  1.00  0.00    -0.342 N 
HETATM   18  O1  UNL     1      28.335  46.999  -2.710  1.00  0.00    -0.246 OA
ATOM     19  H1  UNL     1      29.056  49.463  -0.763  1.00  0.00     0.164 HD
ATOM     20  H2  UNL     1      31.071  48.513  -1.976  1.00  0.00     0.192 HD
BRANCH  17  21
HETATM   21  C2  UNL     1      27.067  48.732  -0.983  1.00  0.00     0.120 C 
HETATM   22  C1  UNL     1      26.367  49.583  -2.020  1.00  0.00     0.026 C 
ENDBRANCH  17  21
ENDBRANCH  13  15
ENDBRANCH   1  13
BRANCH   4  23
HETATM   23  C6  UNL     1      30.196  44.116  -6.761  1.00  0.00     0.282 C 
HETATM   24  N5  UNL     1      31.196  43.566  -7.598  1.00  0.00    -0.056 NA
HETATM   25  O2  UNL     1      29.328  43.360  -6.308  1.00  0.00    -0.269 OA
ENDBRANCH   4  23
TORSDOF 4
ENDMDL
MODEL 4
REMARK VINA RESULT: -7.739170969      2.387      3.547
REMARK  4 active torsions:
REMARK  status: ('A' for Active; 'I' for Inactive)
REMARK    1  A    between atoms: C2_2  and  N1_3 
REMARK       I    between atoms: N1_3  and  C3_5 
REMARK       I    between atoms: C3_5  and  N2_7 
REMARK    2  A    between atoms: N2_7  and  N3_9 
REMARK    3  A    between atoms: N3_9  and  C4_11 
REMARK    4  A    between atoms: C5_14  and  C6_15 
ROOT
HETATM    1  C4  UNL     1      29.338  46.210  -4.408  1.00  0.00     0.700 C 
HETATM    2  N4  UNL     1      28.264  46.560  -3.705  1.00  0.00    -0.184 N 
ATOM      3  H4  UNL     1      27.409  46.044  -3.913  1.00  0.00     0.184 HD
HETATM    4  C5  UNL     1      28.160  47.527  -2.735  1.00  0.00     0.124 C 
HETATM    5  C7  UNL     1      29.168  48.008  -1.925  1.00  0.00     0.026 C 
HETATM    6  C8  UNL     1      28.834  48.455  -0.573  1.00  0.00     0.055 C 
HETATM    7  C9  UNL     1      30.507  48.084  -2.330  1.00  0.00     0.248 C 
HETATM    8  O3  UNL     1      31.216  48.851  -1.646  1.00  0.00    -0.282 OA
HETATM    9  C10 UNL     1      31.145  47.424  -3.386  1.00  0.00     0.310 C 
HETATM   10  O4  UNL     1      32.332  47.753  -3.640  1.00  0.00    -0.263 OA
HETATM   11  N6  UNL     1      30.633  46.458  -4.180  1.00  0.00    -0.151 N 
ATOM     12  H6  UNL     1      31.304  45.855  -4.656  1.00  0.00     0.188 HD
ENDROOT
BRANCH   1  13
HETATM   13  N3  UNL     1      29.056  45.518  -5.480  1.00  0.00    -0.128 N 
ATOM     14  H3  UNL     1      28.882  44.516  -5.400  1.00  0.00     0.205 HD
BRANCH  13  15
HETATM   15  N2  UNL     1      28.990  46.124  -6.723  1.00  0.00    -0.237 N 
HETATM   16  C3  UNL     1      30.055  45.973  -7.649  1.00  0.00     0.335 C 
HETATM   17  N1  UNL     1      30.046  46.569  -8.934  1.00  0.00    -0.342 N 
HETATM   18  O1  UNL     1      31.045  45.278  -7.298  1.00  0.00    -0.246 OA
ATOM     19  H1  UNL     1      29.249  47.134  -9.226  1.00  0.00     0.164 HD
ATOM     20  H2  UNL     1      28.173  46.681  -6.975  1.00  0.00     0.192 HD
BRANCH  17  21
HETATM   21  C2  UNL     1      31.151  46.380  -9.823  1.00  0.00     0.120 C 
HETATM   22  C1  UNL     1      30.969  47.287 -11.021  1.00  0.00     0.026 C 
ENDBRANCH  17  21
ENDBRANCH  13  15
ENDBRANCH   1  13
BRANCH   4  23
HETATM   23  C6  UNL     1      26.865  48.109  -2.518  1.00  0.00     0.282 C 
HETATM   24  N5  UNL     1      26.538  49.355  -3.104  1.00  0.00    -0.056 NA
HETATM   25  O2  UNL     1      26.012  47.545  -1.823  1.00  0.00    -0.269 OA
ENDBRANCH   4  23
TORSDOF 4
ENDMDL
MODEL 5
REMARK VINA RESULT: -7.721860975      2.264      7.183
REMARK  4 active torsions:
REMARK  status: ('A' for Active; 'I' for Inactive)
REMARK    1  A    between atoms: C2_2  and  N1_3 
REMARK       I    between atoms: N1_3  and  C3_5 
REMARK       I    between atoms: C3_5  and  N2_7 
REMARK    2  A    between atoms: N2_7  and  N3_9 
REMARK    3  A    between atoms: N3_9  and  C4_11 
REMARK    4  A    between atoms: C5_14  and  C6_15 
ROOT
HETATM    1  C4  UNL     1      29.878  46.881  -5.758  1.00  0.00     0.700 C 
HETATM    2  N4  UNL     1      30.055  46.361  -6.970  1.00  0.00    -0.184 N 
ATOM      3  H4  UNL     1      29.205  46.111  -7.475  1.00  0.00     0.184 HD
HETATM    4  C5  UNL     1      31.236  46.118  -7.627  1.00  0.00     0.124 C 
HETATM    5  C7  UNL     1      32.442  46.764  -7.444  1.00  0.00     0.026 C 
HETATM    6  C8  UNL     1      33.343  46.915  -8.586  1.00  0.00     0.055 C 
HETATM    7  C9  UNL     1      32.848  47.295  -6.213  1.00  0.00     0.248 C 
HETATM    8  O3  UNL     1      34.073  47.519  -6.119  1.00  0.00    -0.282 OA
HETATM    9  C10 UNL     1      32.073  47.602  -5.089  1.00  0.00     0.310 C 
HETATM   10  O4  UNL     1      32.681  47.948  -4.044  1.00  0.00    -0.263 OA
HETATM   11  N6  UNL     1      30.726  47.572  -4.986  1.00  0.00    -0.151 N 
ATOM     12  H6  UNL     1      30.311  48.134  -4.243  1.00  0.00     0.188 HD
ENDROOT
BRANCH   1  13
HETATM   13  N3  UNL     1      28.684  46.670  -5.270  1.00  0.00    -0.128 N 
ATOM     14  H3  UNL     1      27.868  47.035  -5.762  1.00  0.00     0.205 HD
BRANCH  13  15
HETATM   15  N2  UNL     1      28.510  45.959  -4.095  1.00  0.00    -0.237 N 
HETATM   16  C3  UNL     1      27.875  46.566  -2.980  1.00  0.00     0.335 C 
HETATM   17  N1  UNL     1      27.668  45.890  -1.753  1.00  0.00    -0.342 N 
HETATM   18  O1  UNL     1      27.485  47.756  -3.103  1.00  0.00    -0.246 OA
ATOM     19  H1  UNL     1      27.981  44.926  -1.644  1.00  0.00     0.164 HD
ATOM     20  H2  UNL     1      28.839  44.995  -4.030  1.00  0.00     0.192 HD
BRANCH  17  21
HETATM   21  C2  UNL     1      27.022  46.557  -0.664  1.00  0.00     0.120 C 
HETATM   22  C1  UNL     1      28.080  47.051   0.299  1.00  0.00     0.026 C 
ENDBRANCH  17  21
ENDBRANCH  13  15
ENDBRANCH   1  13
BRANCH   4  23
HETATM   23  C6  UNL     1      31.237  45.086  -8.626  1.00  0.00     0.282 C 
HETATM   24  N5  UNL     1      31.578  43.758  -8.277  1.00  0.00    -0.056 NA
HETATM   25  O2  UNL     1      30.942  45.326  -9.803  1.00  0.00    -0.269 OA
ENDBRANCH   4  23
TORSDOF 4
ENDMDL
