MODEL 1
REMARK VINA RESULT: -8.197331148      0.000      0.000
REMARK  5 active torsions:
REMARK  status: ('A' for Active; 'I' for Inactive)
REMARK    1  A    between atoms: C2_2  and  N1_3 
REMARK    2  A    between atoms: N1_3  and  C3_5 
REMARK    3  A    between atoms: C6_12  and  N4_13 
REMARK    4  A    between atoms: N4_13  and  N5_15 
REMARK    5  A    between atoms: C8_18  and  C9_19 
REMARK       I    between atoms: C9_19  and  N6_21 
ROOT
HETATM    1  C3  UNL     1      28.374  48.080  -2.831  1.00  0.00     0.149 A 
HETATM    2  N2  UNL     1      29.179  48.732  -3.688  1.00  0.00    -0.323 N 
ATOM      3  H2  UNL     1      29.332  49.733  -3.561  1.00  0.00     0.169 HD
HETATM    4  C4  UNL     1      29.790  48.099  -4.711  1.00  0.00     0.153 A 
HETATM    5  C5  UNL     1      29.599  46.748  -4.903  1.00  0.00     0.114 A 
HETATM    6  N3  UNL     1      28.806  46.085  -4.066  1.00  0.00    -0.333 N 
ATOM      7  H3  UNL     1      28.654  45.085  -4.194  1.00  0.00     0.168 HD
HETATM    8  C6  UNL     1      28.194  46.740  -3.033  1.00  0.00     0.165 A 
HETATM    9  C8  UNL     1      30.338  46.344  -6.021  1.00  0.00     0.147 A 
HETATM   10  N7  UNL     1      30.941  47.459  -6.456  1.00  0.00    -0.290 N 
ATOM     11  H7  UNL     1      31.560  47.504  -7.266  1.00  0.00     0.187 HD
HETATM   12  N8  UNL     1      30.626  48.490  -5.696  1.00  0.00    -0.279 N 
HETATM   13  C11 UNL     1      31.081  49.866  -5.848  1.00  0.00     0.179 C 
ENDROOT
BRANCH   8  14
HETATM   14  N4  UNL     1      27.447  46.039  -2.270  1.00  0.00    -0.287 N 
ATOM     15  H4  UNL     1      26.452  45.979  -2.487  1.00  0.00     0.188 HD
BRANCH  14  16
HETATM   16  N5  UNL     1      27.921  45.359  -1.169  1.00  0.00    -0.339 N 
HETATM   17  C7  UNL     1      27.762  45.886   0.198  1.00  0.00     0.167 C 
ATOM     18  H5  UNL     1      28.394  44.466  -1.303  1.00  0.00     0.179 HD
ENDBRANCH  14  16
ENDBRANCH   8  14
BRANCH   1  19
HETATM   19  N1  UNL     1      27.815  48.681  -1.887  1.00  0.00    -0.373 N 
ATOM     20  H1  UNL     1      28.272  48.589  -0.980  1.00  0.00     0.161 HD
BRANCH  19  21
HETATM   21  C2  UNL     1      26.638  49.472  -1.895  1.00  0.00     0.117 C 
HETATM   22  C1  UNL     1      25.704  49.186  -3.044  1.00  0.00     0.026 C 
ENDBRANCH  19  21
ENDBRANCH   1  19
BRANCH   9  23
HETATM   23  C9  UNL     1      30.409  44.996  -6.560  1.00  0.00     0.271 C 
HETATM   24  O1  UNL     1      29.882  44.001  -6.012  1.00  0.00    -0.266 OA
HETATM   25  N6  UNL     1      31.114  44.793  -7.777  1.00  0.00    -0.360 N 
HETATM   26  C10 UNL     1      31.228  43.498  -8.372  1.00  0.00     0.149 C 
ATOM     27  H6  UNL     1      31.549  45.592  -8.239  1.00  0.00     0.162 HD
ENDBRANCH   9  23
TORSDOF 5
ENDMDL
MODEL 2
REMARK VINA RESULT: -7.977358630      1.079      1.081
REMARK  5 active torsions:
REMARK  status: ('A' for Active; 'I' for Inactive)
REMARK    1  A    between atoms: C2_2  and  N1_3 
REMARK    2  A    between atoms: N1_3  and  C3_5 
REMARK    3  A    between atoms: C6_12  and  N4_13 
REMARK    4  A    between atoms: N4_13  and  N5_15 
REMARK    5  A    between atoms: C8_18  and  C9_19 
REMARK       I    between atoms: C9_19  and  N6_21 
ROOT
HETATM    1  C3  UNL     1      28.540  48.122  -2.703  1.00  0.00     0.149 A 
HETATM    2  N2  UNL     1      29.323  48.757  -3.592  1.00  0.00    -0.323 N 
ATOM      3  H2  UNL     1      29.649  49.701  -3.380  1.00  0.00     0.169 HD
HETATM    4  C4  UNL     1      29.688  48.182  -4.756  1.00  0.00     0.153 A 
HETATM    5  C5  UNL     1      29.260  46.909  -5.065  1.00  0.00     0.114 A 
HETATM    6  N3  UNL     1      28.484  46.264  -4.199  1.00  0.00    -0.333 N 
ATOM      7  H3  UNL     1      28.159  45.322  -4.413  1.00  0.00     0.168 HD
HETATM    8  C6  UNL     1      28.122  46.859  -3.022  1.00  0.00     0.165 A 
HETATM    9  C8  UNL     1      29.776  46.554  -6.317  1.00  0.00     0.147 A 
HETATM   10  N7  UNL     1      30.490  47.618  -6.711  1.00  0.00    -0.290 N 
ATOM     11  H7  UNL     1      30.999  47.679  -7.592  1.00  0.00     0.187 HD
HETATM   12  N8  UNL     1      30.444  48.575  -5.804  1.00  0.00    -0.279 N 
HETATM   13  C11 UNL     1      31.091  49.878  -5.869  1.00  0.00     0.179 C 
ENDROOT
BRANCH   8  14
HETATM   14  N4  UNL     1      27.376  46.179  -2.240  1.00  0.00    -0.287 N 
ATOM     15  H4  UNL     1      26.366  46.223  -2.374  1.00  0.00     0.188 HD
BRANCH  14  16
HETATM   16  N5  UNL     1      27.870  45.389  -1.224  1.00  0.00    -0.339 N 
HETATM   17  C7  UNL     1      27.751  45.778   0.192  1.00  0.00     0.167 C 
ATOM     18  H5  UNL     1      28.331  44.510  -1.460  1.00  0.00     0.179 HD
ENDBRANCH  14  16
ENDBRANCH   8  14
BRANCH   1  19
HETATM   19  N1  UNL     1      28.210  48.668  -1.627  1.00  0.00    -0.373 N 
ATOM     20  H1  UNL     1      28.959  48.772  -0.944  1.00  0.00     0.161 HD
BRANCH  19  21
HETATM   21  C2  UNL     1      26.945  49.162  -1.221  1.00  0.00     0.117 C 
HETATM   22  C1  UNL     1      26.045  49.578  -2.357  1.00  0.00     0.026 C 
ENDBRANCH  19  21
ENDBRANCH   1  19
BRANCH   9  23
HETATM   23  C9  UNL     1      29.560  45.292  -7.006  1.00  0.00     0.271 C 
HETATM   24  O1  UNL     1      29.519  45.180  -8.253  1.00  0.00    -0.266 OA
HETATM   25  N6  UNL     1      29.384  44.118  -6.225  1.00  0.00    -0.360 N 
HETATM   26  C10 UNL     1      29.167  42.840  -6.828  1.00  0.00     0.149 C 
ATOM     27  H6  UNL     1      29.414  44.190  -5.207  1.00  0.00     0.162 HD
ENDBRANCH   9  23
TORSDOF 5
ENDMDL
MODEL 3
REMARK VINA RESULT: -7.718453752      1.891      3.805
REMARK  5 active torsions:
REMARK  status: ('A' for Active; 'I' for Inactive)
REMARK    1  A    between atoms: C2_2  and  N1_3 
REMARK    2  A    between atoms: N1_3  and  C3_5 
REMARK    3  A    between atoms: C6_12  and  N4_13 
REMARK    4  A    between atoms: N4_13  and  N5_15 
REMARK    5  A    between atoms: C8_18  and  C9_19 
REMARK       I    between atoms: C9_19  and  N6_21 
ROOT
HETATM    1  C3  UNL     1      28.291  46.693  -3.135  1.00  0.00     0.149 A 
HETATM    2  N2  UNL     1      28.768  45.841  -4.058  1.00  0.00    -0.323 N 
ATOM      3  H2  UNL     1      28.560  44.846  -3.971  1.00  0.00     0.169 HD
HETATM    4  C4  UNL     1      29.517  46.266  -5.098  1.00  0.00     0.153 A 
HETATM    5  C5  UNL     1      29.812  47.605  -5.237  1.00  0.00     0.114 A 
HETATM    6  N3  UNL     1      29.348  48.463  -4.334  1.00  0.00    -0.333 N 
ATOM      7  H3  UNL     1      29.557  49.457  -4.422  1.00  0.00     0.168 HD
HETATM    8  C6  UNL     1      28.590  48.018  -3.285  1.00  0.00     0.165 A 
HETATM    9  C8  UNL     1      30.593  47.775  -6.386  1.00  0.00     0.147 A 
HETATM   10  N7  UNL     1      30.737  46.542  -6.891  1.00  0.00    -0.290 N 
ATOM     11  H7  UNL     1      31.261  46.321  -7.737  1.00  0.00     0.187 HD
HETATM   12  N8  UNL     1      30.111  45.653  -6.143  1.00  0.00    -0.279 N 
HETATM   13  C11 UNL     1      30.038  44.215  -6.364  1.00  0.00     0.179 C 
ENDROOT
BRANCH   8  14
HETATM   14  N4  UNL     1      28.180  48.900  -2.458  1.00  0.00    -0.287 N 
ATOM     15  H4  UNL     1      28.639  48.963  -1.549  1.00  0.00     0.188 HD
BRANCH  14  16
HETATM   16  N5  UNL     1      27.146  49.769  -2.732  1.00  0.00    -0.339 N 
HETATM   17  C7  UNL     1      25.744  49.318  -2.790  1.00  0.00     0.167 C 
ATOM     18  H5  UNL     1      27.357  50.752  -2.900  1.00  0.00     0.179 HD
ENDBRANCH  14  16
ENDBRANCH   8  14
BRANCH   1  19
HETATM   19  N1  UNL     1      27.598  46.283  -2.177  1.00  0.00    -0.373 N 
ATOM     20  H1  UNL     1      26.589  46.321  -2.321  1.00  0.00     0.161 HD
BRANCH  19  21
HETATM   21  C2  UNL     1      28.012  45.773  -0.920  1.00  0.00     0.117 C 
HETATM   22  C1  UNL     1      27.890  46.753   0.219  1.00  0.00     0.026 C 
ENDBRANCH  19  21
ENDBRANCH   1  19
BRANCH   9  23
HETATM   23  C9  UNL     1      31.115  49.035  -6.889  1.00  0.00     0.271 C 
HETATM   24  O1  UNL     1      31.216  50.072  -6.192  1.00  0.00    -0.266 OA
HETATM   25  N6  UNL     1      31.535  49.099  -8.245  1.00  0.00    -0.360 N 
HETATM   26  C10 UNL     1      32.059  50.302  -8.813  1.00  0.00     0.149 C 
ATOM     27  H6  UNL     1      31.460  48.265  -8.827  1.00  0.00     0.162 HD
ENDBRANCH   9  23
TORSDOF 5
ENDMDL
MODEL 4
REMARK VINA RESULT: -7.273562329      3.252      4.720
REMARK  5 active torsions:
REMARK  status: ('A' for Active; 'I' for Inactive)
REMARK    1  A    between atoms: C2_2  and  N1_3 
REMARK    2  A    between atoms: N1_3  and  C3_5 
REMARK    3  A    between atoms: C6_12  and  N4_13 
REMARK    4  A    between atoms: N4_13  and  N5_15 
REMARK    5  A    between atoms: C8_18  and  C9_19 
REMARK       I    between atoms: C9_19  and  N6_21 
ROOT
HETATM    1  C3  UNL     1      29.528  47.326  -2.718  1.00  0.00     0.149 A 
HETATM    2  N2  UNL     1      30.866  47.448  -2.707  1.00  0.00    -0.323 N 
ATOM      3  H2  UNL     1      31.418  46.808  -2.135  1.00  0.00     0.169 HD
HETATM    4  C4  UNL     1      31.499  48.396  -3.430  1.00  0.00     0.153 A 
HETATM    5  C5  UNL     1      30.775  49.273  -4.208  1.00  0.00     0.114 A 
HETATM    6  N3  UNL     1      29.450  49.167  -4.232  1.00  0.00    -0.333 N 
ATOM      7  H3  UNL     1      28.900  49.808  -4.803  1.00  0.00     0.168 HD
HETATM    8  C6  UNL     1      28.822  48.202  -3.495  1.00  0.00     0.165 A 
HETATM    9  C8  UNL     1      31.664  50.144  -4.848  1.00  0.00     0.147 A 
HETATM   10  N7  UNL     1      32.880  49.762  -4.433  1.00  0.00    -0.290 N 
ATOM     11  H7  UNL     1      33.755  50.202  -4.720  1.00  0.00     0.187 HD
HETATM   12  N8  UNL     1      32.793  48.740  -3.603  1.00  0.00    -0.279 N 
HETATM   13  C11 UNL     1      33.892  48.047  -2.944  1.00  0.00     0.179 C 
ENDROOT
BRANCH   8  14
HETATM   14  N4  UNL     1      27.548  48.161  -3.568  1.00  0.00    -0.287 N 
ATOM     15  H4  UNL     1      27.106  47.284  -3.845  1.00  0.00     0.188 HD
BRANCH  14  16
HETATM   16  N5  UNL     1      26.741  49.244  -3.291  1.00  0.00    -0.339 N 
HETATM   17  C7  UNL     1      26.278  49.539  -1.924  1.00  0.00     0.167 C 
ATOM     18  H5  UNL     1      26.456  49.858  -4.054  1.00  0.00     0.179 HD
ENDBRANCH  14  16
ENDBRANCH   8  14
BRANCH   1  19
HETATM   19  N1  UNL     1      28.955  46.442  -2.043  1.00  0.00    -0.373 N 
ATOM     20  H1  UNL     1      28.584  45.657  -2.577  1.00  0.00     0.161 HD
BRANCH  19  21
HETATM   21  C2  UNL     1      28.748  46.374  -0.642  1.00  0.00     0.117 C 
HETATM   22  C1  UNL     1      27.302  46.243  -0.232  1.00  0.00     0.026 C 
ENDBRANCH  19  21
ENDBRANCH   1  19
BRANCH   9  23
HETATM   23  C9  UNL     1      31.305  51.219  -5.758  1.00  0.00     0.271 C 
HETATM   24  O1  UNL     1      31.581  51.215  -6.980  1.00  0.00    -0.266 OA
HETATM   25  N6  UNL     1      30.601  52.338  -5.236  1.00  0.00    -0.360 N 
HETATM   26  C10 UNL     1      30.213  53.435  -6.067  1.00  0.00     0.149 C 
ATOM     27  H6  UNL     1      30.368  52.358  -4.243  1.00  0.00     0.162 HD
ENDBRANCH   9  23
TORSDOF 5
ENDMDL
MODEL 5
REMARK VINA RESULT: -7.118301620      2.345      6.047
REMARK  5 active torsions:
REMARK  status: ('A' for Active; 'I' for Inactive)
REMARK    1  A    between atoms: C2_2  and  N1_3 
REMARK    2  A    between atoms: N1_3  and  C3_5 
REMARK    3  A    between atoms: C6_12  and  N4_13 
REMARK    4  A    between atoms: N4_13  and  N5_15 
REMARK    5  A    between atoms: C8_18  and  C9_19 
REMARK       I    between atoms: C9_19  and  N6_21 
ROOT
HETATM    1  C3  UNL     1      31.062  49.185  -6.470  1.00  0.00     0.149 A 
HETATM    2  N2  UNL     1      30.610  47.941  -6.703  1.00  0.00    -0.323 N 
ATOM      3  H2  UNL     1      30.809  47.501  -7.601  1.00  0.00     0.169 HD
HETATM    4  C4  UNL     1      29.899  47.260  -5.780  1.00  0.00     0.153 A 
HETATM    5  C5  UNL     1      29.616  47.834  -4.559  1.00  0.00     0.114 A 
HETATM    6  N3  UNL     1      30.056  49.063  -4.311  1.00  0.00    -0.333 N 
ATOM      7  H3  UNL     1      29.855  49.502  -3.412  1.00  0.00     0.168 HD
HETATM    8  C6  UNL     1      30.776  49.742  -5.255  1.00  0.00     0.165 A 
HETATM    9  C8  UNL     1      28.875  46.924  -3.797  1.00  0.00     0.147 A 
HETATM   10  N7  UNL     1      28.739  45.846  -4.581  1.00  0.00    -0.290 N 
ATOM     11  H7  UNL     1      28.242  44.996  -4.316  1.00  0.00     0.187 HD
HETATM   12  N8  UNL     1      29.335  46.034  -5.743  1.00  0.00    -0.279 N 
HETATM   13  C11 UNL     1      29.406  45.095  -6.855  1.00  0.00     0.179 C 
ENDROOT
BRANCH   8  14
HETATM   14  N4  UNL     1      31.164  50.919  -4.945  1.00  0.00    -0.287 N 
ATOM     15  H4  UNL     1      32.122  51.042  -4.616  1.00  0.00     0.188 HD
BRANCH  14  16
HETATM   16  N5  UNL     1      30.353  52.029  -5.034  1.00  0.00    -0.339 N 
HETATM   17  C7  UNL     1      30.610  53.105  -6.009  1.00  0.00     0.167 C 
ATOM     18  H5  UNL     1      29.552  52.109  -4.407  1.00  0.00     0.179 HD
ENDBRANCH  14  16
ENDBRANCH   8  14
BRANCH   1  19
HETATM   19  N1  UNL     1      31.721  49.804  -7.335  1.00  0.00    -0.373 N 
ATOM     20  H1  UNL     1      31.752  50.816  -7.216  1.00  0.00     0.161 HD
BRANCH  19  21
HETATM   21  C2  UNL     1      32.430  49.302  -8.456  1.00  0.00     0.117 C 
HETATM   22  C1  UNL     1      31.747  49.535  -9.779  1.00  0.00     0.026 C 
ENDBRANCH  19  21
ENDBRANCH   1  19
BRANCH   9  23
HETATM   23  C9  UNL     1      28.377  47.142  -2.448  1.00  0.00     0.271 C 
HETATM   24  O1  UNL     1      28.365  48.261  -1.885  1.00  0.00    -0.266 OA
HETATM   25  N6  UNL     1      27.876  46.026  -1.726  1.00  0.00    -0.360 N 
HETATM   26  C10 UNL     1      27.369  46.159  -0.395  1.00  0.00     0.149 C 
ATOM     27  H6  UNL     1      27.877  45.106  -2.168  1.00  0.00     0.162 HD
ENDBRANCH   9  23
TORSDOF 5
ENDMDL
