MODEL 1
REMARK VINA RESULT: -7.768674737      0.000      0.000
REMARK  5 active torsions:
REMARK  status: ('A' for Active; 'I' for Inactive)
REMARK       I    between atoms: N1_2  and  C2_4 
REMARK       I    between atoms: C2_4  and  N2_6 
REMARK    1  A    between atoms: N2_6  and  S1_8 
REMARK    2  A    between atoms: S1_8  and  N3_9 
REMARK    3  A    between atoms: S1_8  and  N4_13 
REMARK    4  A    between atoms: N4_13  and  C3_15 
REMARK    5  A    between atoms: C5_17  and  C6_18 
ROOT
HETATM    1  N4  UNL     1      28.091  46.921  -4.759  1.00  0.00    -0.269 N 
ATOM      2  H4  UNL     1      27.215  46.848  -5.277  1.00  0.00     0.180 HD
ENDROOT
BRANCH   1   3
HETATM    3  S1  UNL     1      29.413  46.498  -5.688  1.00  0.00     0.201 S 
HETATM    4  O2  UNL     1      29.004  45.563  -6.812  1.00  0.00    -0.206 OA
BRANCH   3   5
HETATM    5  N2  UNL     1      30.185  47.897  -6.396  1.00  0.00    -0.236 N 
HETATM    6  C2  UNL     1      30.778  48.911  -5.602  1.00  0.00     0.329 C 
HETATM    7  N1  UNL     1      31.382  50.022  -6.200  1.00  0.00    -0.347 N 
HETATM    8  O1  UNL     1      30.745  48.784  -4.339  1.00  0.00    -0.246 OA
HETATM    9  C1  UNL     1      31.992  51.068  -5.407  1.00  0.00     0.151 C 
ATOM     10  H1  UNL     1      31.394  50.096  -7.217  1.00  0.00     0.163 HD
ATOM     11  H2  UNL     1      30.209  47.987  -7.411  1.00  0.00     0.183 HD
ENDBRANCH   3   5
BRANCH   3  12
HETATM   12  N3  UNL     1      30.493  45.750  -4.869  1.00  0.00    -0.328 N 
ATOM     13  H32 UNL     1      31.489  45.720  -5.085  1.00  0.00     0.168 HD
ATOM     14  H31 UNL     1      30.018  45.301  -4.087  1.00  0.00     0.168 HD
ENDBRANCH   3  12
ENDBRANCH   1   3
BRANCH   1  15
HETATM   15  C3  UNL     1      27.913  47.311  -3.569  1.00  0.00     0.130 A 
HETATM   16  C4  UNL     1      27.713  46.515  -2.476  1.00  0.00     0.070 A 
HETATM   17  C5  UNL     1      27.539  47.061  -1.204  1.00  0.00     0.074 A 
HETATM   18  C7  UNL     1      27.569  48.429  -1.066  1.00  0.00     0.273 A 
HETATM   19  O4  UNL     1      27.410  48.928   0.090  1.00  0.00    -0.266 OA
HETATM   20  N5  UNL     1      27.765  49.194  -2.147  1.00  0.00    -0.264 N 
HETATM   21  N6  UNL     1      27.927  48.671  -3.332  1.00  0.00    -0.282 N 
ATOM     22  H5  UNL     1      27.788  50.208  -2.042  1.00  0.00     0.190 HD
ATOM     23  H6  UNL     1      28.072  49.299  -4.123  1.00  0.00     0.188 HD
BRANCH  17  24
HETATM   24  C6  UNL     1      27.341  46.191  -0.073  1.00  0.00     0.275 C 
HETATM   25  O3  UNL     1      28.210  45.398   0.305  1.00  0.00    -0.301 OA
ENDBRANCH  17  24
ENDBRANCH   1  15
TORSDOF 5
ENDMDL
MODEL 2
REMARK VINA RESULT: -7.398848108      2.385      3.321
REMARK  5 active torsions:
REMARK  status: ('A' for Active; 'I' for Inactive)
REMARK       I    between atoms: N1_2  and  C2_4 
REMARK       I    between atoms: C2_4  and  N2_6 
REMARK    1  A    between atoms: N2_6  and  S1_8 
REMARK    2  A    between atoms: S1_8  and  N3_9 
REMARK    3  A    between atoms: S1_8  and  N4_13 
REMARK    4  A    between atoms: N4_13  and  C3_15 
REMARK    5  A    between atoms: C5_17  and  C6_18 
ROOT
HETATM    1  N4  UNL     1      28.456  46.780  -4.761  1.00  0.00    -0.269 N 
ATOM      2  H4  UNL     1      27.626  46.529  -5.297  1.00  0.00     0.180 HD
ENDROOT
BRANCH   1   3
HETATM    3  S1  UNL     1      29.866  46.512  -5.615  1.00  0.00     0.201 S 
HETATM    4  O2  UNL     1      31.076  46.610  -4.702  1.00  0.00    -0.206 OA
BRANCH   3   5
HETATM    5  N2  UNL     1      29.879  44.936  -6.370  1.00  0.00    -0.236 N 
HETATM    6  C2  UNL     1      30.815  44.593  -7.377  1.00  0.00     0.329 C 
HETATM    7  N1  UNL     1      30.796  43.324  -7.966  1.00  0.00    -0.347 N 
HETATM    8  O1  UNL     1      31.669  45.464  -7.730  1.00  0.00    -0.246 OA
HETATM    9  C1  UNL     1      31.742  42.955  -8.997  1.00  0.00     0.151 C 
ATOM     10  H1  UNL     1      30.099  42.644  -7.662  1.00  0.00     0.163 HD
ATOM     11  H2  UNL     1      29.192  44.242  -6.077  1.00  0.00     0.183 HD
ENDBRANCH   3   5
BRANCH   3  12
HETATM   12  N3  UNL     1      30.082  47.555  -6.738  1.00  0.00    -0.328 N 
ATOM     13  H32 UNL     1      30.467  47.364  -7.663  1.00  0.00     0.168 HD
ATOM     14  H31 UNL     1      29.768  48.455  -6.375  1.00  0.00     0.168 HD
ENDBRANCH   3  12
ENDBRANCH   1   3
BRANCH   1  15
HETATM   15  C3  UNL     1      28.168  47.220  -3.610  1.00  0.00     0.130 A 
HETATM   16  C4  UNL     1      27.920  46.471  -2.495  1.00  0.00     0.070 A 
HETATM   17  C5  UNL     1      27.624  47.071  -1.271  1.00  0.00     0.074 A 
HETATM   18  C7  UNL     1      27.582  48.444  -1.205  1.00  0.00     0.273 A 
HETATM   19  O4  UNL     1      27.311  48.991  -0.091  1.00  0.00    -0.266 OA
HETATM   20  N5  UNL     1      27.827  49.162  -2.307  1.00  0.00    -0.264 N 
HETATM   21  N6  UNL     1      28.104  48.589  -3.447  1.00  0.00    -0.282 N 
ATOM     22  H5  UNL     1      27.797  50.180  -2.255  1.00  0.00     0.190 HD
ATOM     23  H6  UNL     1      28.281  49.183  -4.257  1.00  0.00     0.188 HD
BRANCH  17  24
HETATM   24  C6  UNL     1      27.378  46.250  -0.113  1.00  0.00     0.275 C 
HETATM   25  O3  UNL     1      28.176  45.383   0.259  1.00  0.00    -0.301 OA
ENDBRANCH  17  24
ENDBRANCH   1  15
TORSDOF 5
ENDMDL
MODEL 3
REMARK VINA RESULT: -7.345801907      2.040      3.445
REMARK  5 active torsions:
REMARK  status: ('A' for Active; 'I' for Inactive)
REMARK       I    between atoms: N1_2  and  C2_4 
REMARK       I    between atoms: C2_4  and  N2_6 
REMARK    1  A    between atoms: N2_6  and  S1_8 
REMARK    2  A    between atoms: S1_8  and  N3_9 
REMARK    3  A    between atoms: S1_8  and  N4_13 
REMARK    4  A    between atoms: N4_13  and  C3_15 
REMARK    5  A    between atoms: C5_17  and  C6_18 
ROOT
HETATM    1  N4  UNL     1      29.352  47.996  -4.551  1.00  0.00    -0.269 N 
ATOM      2  H4  UNL     1      28.709  48.341  -5.263  1.00  0.00     0.180 HD
ENDROOT
BRANCH   1   3
HETATM    3  S1  UNL     1      30.755  47.376  -5.213  1.00  0.00     0.201 S 
HETATM    4  O2  UNL     1      31.969  47.828  -4.420  1.00  0.00    -0.206 OA
BRANCH   3   5
HETATM    5  N2  UNL     1      30.743  45.629  -5.243  1.00  0.00    -0.236 N 
HETATM    6  C2  UNL     1      29.818  44.897  -6.028  1.00  0.00     0.329 C 
HETATM    7  N1  UNL     1      29.830  43.498  -6.026  1.00  0.00    -0.347 N 
HETATM    8  O1  UNL     1      28.980  45.543  -6.732  1.00  0.00    -0.246 OA
HETATM    9  C1  UNL     1      28.893  42.733  -6.820  1.00  0.00     0.151 C 
ATOM     10  H1  UNL     1      30.515  43.007  -5.452  1.00  0.00     0.163 HD
ATOM     11  H2  UNL     1      31.422  45.120  -4.678  1.00  0.00     0.183 HD
ENDBRANCH   3   5
BRANCH   3  12
HETATM   12  N3  UNL     1      30.981  47.854  -6.667  1.00  0.00    -0.328 N 
ATOM     13  H32 UNL     1      31.542  47.375  -7.371  1.00  0.00     0.168 HD
ATOM     14  H31 UNL     1      30.466  48.727  -6.779  1.00  0.00     0.168 HD
ENDBRANCH   3  12
ENDBRANCH   1   3
BRANCH   1  15
HETATM   15  C3  UNL     1      28.895  48.141  -3.380  1.00  0.00     0.130 A 
HETATM   16  C4  UNL     1      29.249  47.419  -2.276  1.00  0.00     0.070 A 
HETATM   17  C5  UNL     1      28.683  47.679  -1.028  1.00  0.00     0.074 A 
HETATM   18  C7  UNL     1      27.749  48.683  -0.926  1.00  0.00     0.273 A 
HETATM   19  O4  UNL     1      27.232  48.921   0.209  1.00  0.00    -0.266 OA
HETATM   20  N5  UNL     1      27.413  49.381  -2.018  1.00  0.00    -0.264 N 
HETATM   21  N6  UNL     1      27.951  49.128  -3.181  1.00  0.00    -0.282 N 
ATOM     22  H5  UNL     1      26.722  50.126  -1.940  1.00  0.00     0.190 HD
ATOM     23  H6  UNL     1      27.658  49.688  -3.981  1.00  0.00     0.188 HD
BRANCH  17  24
HETATM   24  C6  UNL     1      29.088  46.904   0.117  1.00  0.00     0.275 C 
HETATM   25  O3  UNL     1      28.573  45.813   0.385  1.00  0.00    -0.301 OA
ENDBRANCH  17  24
ENDBRANCH   1  15
TORSDOF 5
ENDMDL
MODEL 4
REMARK VINA RESULT: -7.221640436      2.780      3.917
REMARK  5 active torsions:
REMARK  status: ('A' for Active; 'I' for Inactive)
REMARK       I    between atoms: N1_2  and  C2_4 
REMARK       I    between atoms: C2_4  and  N2_6 
REMARK    1  A    between atoms: N2_6  and  S1_8 
REMARK    2  A    between atoms: S1_8  and  N3_9 
REMARK    3  A    between atoms: S1_8  and  N4_13 
REMARK    4  A    between atoms: N4_13  and  C3_15 
REMARK    5  A    between atoms: C5_17  and  C6_18 
ROOT
HETATM    1  N4  UNL     1      28.732  46.185  -4.271  1.00  0.00    -0.269 N 
ATOM      2  H4  UNL     1      28.017  45.480  -4.452  1.00  0.00     0.180 HD
ENDROOT
BRANCH   1   3
HETATM    3  S1  UNL     1      29.942  46.170  -5.422  1.00  0.00     0.201 S 
HETATM    4  O2  UNL     1      31.282  46.520  -4.799  1.00  0.00    -0.206 OA
BRANCH   3   5
HETATM    5  N2  UNL     1      30.089  44.606  -6.189  1.00  0.00    -0.236 N 
HETATM    6  C2  UNL     1      30.848  44.417  -7.372  1.00  0.00     0.329 C 
HETATM    7  N1  UNL     1      30.941  43.154  -7.964  1.00  0.00    -0.347 N 
HETATM    8  O1  UNL     1      31.437  45.422  -7.876  1.00  0.00    -0.246 OA
HETATM    9  C1  UNL     1      31.709  42.941  -9.172  1.00  0.00     0.151 C 
ATOM     10  H1  UNL     1      30.457  42.365  -7.535  1.00  0.00     0.163 HD
ATOM     11  H2  UNL     1      29.615  43.805  -5.773  1.00  0.00     0.183 HD
ENDBRANCH   3   5
BRANCH   3  12
HETATM   12  N3  UNL     1      29.699  47.206  -6.546  1.00  0.00    -0.328 N 
ATOM     13  H32 UNL     1      30.253  47.302  -7.396  1.00  0.00     0.168 HD
ATOM     14  H31 UNL     1      28.890  47.761  -6.271  1.00  0.00     0.168 HD
ENDBRANCH   3  12
ENDBRANCH   1   3
BRANCH   1  15
HETATM   15  C3  UNL     1      28.486  46.860  -3.230  1.00  0.00     0.130 A 
HETATM   16  C4  UNL     1      27.583  47.879  -3.118  1.00  0.00     0.070 A 
HETATM   17  C5  UNL     1      27.388  48.546  -1.909  1.00  0.00     0.074 A 
HETATM   18  C7  UNL     1      28.131  48.159  -0.818  1.00  0.00     0.273 A 
HETATM   19  O4  UNL     1      27.956  48.765   0.284  1.00  0.00    -0.266 OA
HETATM   20  N5  UNL     1      29.012  47.159  -0.945  1.00  0.00    -0.264 N 
HETATM   21  N6  UNL     1      29.184  46.542  -2.082  1.00  0.00    -0.282 N 
ATOM     22  H5  UNL     1      29.560  46.873  -0.134  1.00  0.00     0.190 HD
ATOM     23  H6  UNL     1      29.870  45.788  -2.125  1.00  0.00     0.188 HD
BRANCH  17  24
HETATM   24  C6  UNL     1      26.419  49.609  -1.825  1.00  0.00     0.275 C 
HETATM   25  O3  UNL     1      25.309  49.529  -2.362  1.00  0.00    -0.301 OA
ENDBRANCH  17  24
ENDBRANCH   1  15
TORSDOF 5
ENDMDL
MODEL 5
REMARK VINA RESULT: -7.204382123      1.765      2.244
REMARK  5 active torsions:
REMARK  status: ('A' for Active; 'I' for Inactive)
REMARK       I    between atoms: N1_2  and  C2_4 
REMARK       I    between atoms: C2_4  and  N2_6 
REMARK    1  A    between atoms: N2_6  and  S1_8 
REMARK    2  A    between atoms: S1_8  and  N3_9 
REMARK    3  A    between atoms: S1_8  and  N4_13 
REMARK    4  A    between atoms: N4_13  and  C3_15 
REMARK    5  A    between atoms: C5_17  and  C6_18 
ROOT
HETATM    1  N4  UNL     1      28.490  46.077  -4.238  1.00  0.00    -0.269 N 
ATOM      2  H4  UNL     1      27.811  45.318  -4.311  1.00  0.00     0.180 HD
ENDROOT
BRANCH   1   3
HETATM    3  S1  UNL     1      29.574  46.078  -5.509  1.00  0.00     0.201 S 
HETATM    4  O2  UNL     1      28.851  45.912  -6.834  1.00  0.00    -0.206 OA
BRANCH   3   5
HETATM    5  N2  UNL     1      30.497  47.561  -5.574  1.00  0.00    -0.236 N 
HETATM    6  C2  UNL     1      31.440  47.904  -4.573  1.00  0.00     0.329 C 
HETATM    7  N1  UNL     1      32.158  49.102  -4.651  1.00  0.00    -0.347 N 
HETATM    8  O1  UNL     1      31.615  47.098  -3.608  1.00  0.00    -0.246 OA
HETATM    9  C1  UNL     1      33.125  49.471  -3.639  1.00  0.00     0.151 C 
ATOM     10  H1  UNL     1      31.998  49.729  -5.439  1.00  0.00     0.163 HD
ATOM     11  H2  UNL     1      30.352  48.200  -6.356  1.00  0.00     0.183 HD
ENDBRANCH   3   5
BRANCH   3  12
HETATM   12  N3  UNL     1      30.591  44.915  -5.417  1.00  0.00    -0.328 N 
ATOM     13  H32 UNL     1      31.594  45.012  -5.267  1.00  0.00     0.168 HD
ATOM     14  H31 UNL     1      30.065  44.049  -5.536  1.00  0.00     0.168 HD
ENDBRANCH   3  12
ENDBRANCH   1   3
BRANCH   1  15
HETATM   15  C3  UNL     1      28.306  46.788  -3.209  1.00  0.00     0.130 A 
HETATM   16  C4  UNL     1      27.426  47.826  -3.087  1.00  0.00     0.070 A 
HETATM   17  C5  UNL     1      27.301  48.533  -1.891  1.00  0.00     0.074 A 
HETATM   18  C7  UNL     1      28.088  48.166  -0.825  1.00  0.00     0.273 A 
HETATM   19  O4  UNL     1      27.977  48.810   0.264  1.00  0.00    -0.266 OA
HETATM   20  N5  UNL     1      28.945  47.147  -0.961  1.00  0.00    -0.264 N 
HETATM   21  N6  UNL     1      29.052  46.492  -2.086  1.00  0.00    -0.282 N 
ATOM     22  H5  UNL     1      29.527  46.875  -0.169  1.00  0.00     0.190 HD
ATOM     23  H6  UNL     1      29.722  45.724  -2.137  1.00  0.00     0.188 HD
BRANCH  17  24
HETATM   24  C6  UNL     1      26.356  49.617  -1.796  1.00  0.00     0.275 C 
HETATM   25  O3  UNL     1      25.263  49.586  -2.372  1.00  0.00    -0.301 OA
ENDBRANCH  17  24
ENDBRANCH   1  15
TORSDOF 5
ENDMDL
