MODEL 1
REMARK VINA RESULT: -8.398409807      0.000      0.000
REMARK  4 active torsions:
REMARK  status: ('A' for Active; 'I' for Inactive)
REMARK    1  A    between atoms: C2_2  and  C4_4 
REMARK    2  A    between atoms: C4_4  and  N1_5 
REMARK    3  A    between atoms: C4_4  and  C12_22 
REMARK       I    between atoms: N1_5  and  C5_7 
REMARK    4  A    between atoms: C5_7  and  C6_9 
ROOT
HETATM    1  C6  UNL     1      30.862  48.605  -4.685  1.00  0.00     0.100 A 
HETATM    2  S1  UNL     1      30.765  48.729  -6.381  1.00  0.00    -0.064 SA
HETATM    3  C7  UNL     1      31.940  49.749  -7.068  1.00  0.00     0.094 A 
HETATM    4  N2  UNL     1      32.057  49.994  -8.343  1.00  0.00    -0.392 N 
ATOM      5  H21 UNL     1      32.761  50.605  -8.755  1.00  0.00     0.156 HD
ATOM      6  H22 UNL     1      31.421  49.567  -9.017  1.00  0.00     0.156 HD
HETATM    7  C8  UNL     1      32.803  50.328  -6.153  1.00  0.00     0.102 A 
HETATM    8  N3  UNL     1      33.821  51.204  -6.702  1.00  0.00    -0.098 NA
HETATM    9  C9  UNL     1      32.764  50.135  -4.799  1.00  0.00     0.097 A 
HETATM   10  C10 UNL     1      33.766  50.839  -4.003  1.00  0.00     0.103 C 
HETATM   11  N4  UNL     1      34.580  51.390  -3.356  1.00  0.00    -0.191 NA
HETATM   12  C11 UNL     1      31.876  49.345  -4.113  1.00  0.00     0.091 A 
HETATM   13  N5  UNL     1      31.976  49.253  -2.679  1.00  0.00    -0.099 NA
ENDROOT
BRANCH   1  14
HETATM   14  C5  UNL     1      29.945  47.776  -3.871  1.00  0.00     0.261 C 
HETATM   15  N1  UNL     1      29.242  48.293  -2.778  1.00  0.00    -0.342 N 
ATOM     16  H1  UNL     1      29.353  49.274  -2.520  1.00  0.00     0.163 HD
HETATM   17  O1  UNL     1      29.822  46.571  -4.203  1.00  0.00    -0.267 OA
BRANCH  15  18
HETATM   18  C4  UNL     1      28.358  47.446  -2.014  1.00  0.00     0.189 C 
BRANCH  18  19
HETATM   19  C2  UNL     1      27.097  48.210  -1.627  1.00  0.00     0.011 C 
HETATM   20  C1  UNL     1      27.465  49.153  -0.522  1.00  0.00     0.012 C 
HETATM   21  C3  UNL     1      26.576  48.915  -2.860  1.00  0.00     0.012 C 
ENDBRANCH  18  19
BRANCH  18  22
HETATM   22  C12 UNL     1      29.036  46.963  -0.770  1.00  0.00     0.197 C 
HETATM   23  O2  UNL     1      30.058  47.528  -0.366  1.00  0.00    -0.646 OA
HETATM   24  O3  UNL     1      28.530  45.891  -0.068  1.00  0.00    -0.646 OA
ENDBRANCH  18  22
ENDBRANCH  15  18
ENDBRANCH   1  14
TORSDOF 4
ENDMDL
MODEL 2
REMARK VINA RESULT: -8.201903634      3.208      6.497
REMARK  4 active torsions:
REMARK  status: ('A' for Active; 'I' for Inactive)
REMARK    1  A    between atoms: C2_2  and  C4_4 
REMARK    2  A    between atoms: C4_4  and  N1_5 
REMARK    3  A    between atoms: C4_4  and  C12_22 
REMARK       I    between atoms: N1_5  and  C5_7 
REMARK    4  A    between atoms: C5_7  and  C6_9 
ROOT
HETATM    1  C6  UNL     1      31.522  48.452  -3.521  1.00  0.00     0.100 A 
HETATM    2  S1  UNL     1      30.815  47.707  -4.880  1.00  0.00    -0.064 SA
HETATM    3  C7  UNL     1      29.387  46.852  -4.535  1.00  0.00     0.094 A 
HETATM    4  N2  UNL     1      28.677  46.206  -5.416  1.00  0.00    -0.392 N 
ATOM      5  H21 UNL     1      27.820  45.692  -5.210  1.00  0.00     0.156 HD
ATOM      6  H22 UNL     1      28.957  46.182  -6.397  1.00  0.00     0.156 HD
HETATM    7  C8  UNL     1      29.006  46.885  -3.204  1.00  0.00     0.102 A 
HETATM    8  N3  UNL     1      27.790  46.166  -2.870  1.00  0.00    -0.098 NA
HETATM    9  C9  UNL     1      29.680  47.533  -2.205  1.00  0.00     0.097 A 
HETATM   10  C10 UNL     1      29.112  47.447  -0.862  1.00  0.00     0.103 C 
HETATM   11  N4  UNL     1      28.652  47.396   0.220  1.00  0.00    -0.191 NA
HETATM   12  C11 UNL     1      30.838  48.257  -2.339  1.00  0.00     0.091 A 
HETATM   13  N5  UNL     1      31.420  48.879  -1.177  1.00  0.00    -0.099 NA
ENDROOT
BRANCH   1  14
HETATM   14  C5  UNL     1      32.768  49.249  -3.580  1.00  0.00     0.261 C 
HETATM   15  N1  UNL     1      34.027  48.658  -3.729  1.00  0.00    -0.342 N 
ATOM     16  H1  UNL     1      34.107  47.644  -3.802  1.00  0.00     0.163 HD
HETATM   17  O1  UNL     1      32.651  50.496  -3.487  1.00  0.00    -0.267 OA
BRANCH  15  18
HETATM   18  C4  UNL     1      35.214  49.477  -3.781  1.00  0.00     0.189 C 
BRANCH  18  19
HETATM   19  C2  UNL     1      35.773  49.507  -5.200  1.00  0.00     0.011 C 
HETATM   20  C1  UNL     1      35.161  48.361  -5.947  1.00  0.00     0.012 C 
HETATM   21  C3  UNL     1      35.446  50.853  -5.808  1.00  0.00     0.012 C 
ENDBRANCH  18  19
BRANCH  18  22
HETATM   22  C12 UNL     1      36.263  48.945  -2.856  1.00  0.00     0.197 C 
HETATM   23  O2  UNL     1      37.094  48.129  -3.270  1.00  0.00    -0.646 OA
HETATM   24  O3  UNL     1      36.312  49.358  -1.542  1.00  0.00    -0.646 OA
ENDBRANCH  18  22
ENDBRANCH  15  18
ENDBRANCH   1  14
TORSDOF 4
ENDMDL
MODEL 3
REMARK VINA RESULT: -8.054394696      1.780      2.376
REMARK  4 active torsions:
REMARK  status: ('A' for Active; 'I' for Inactive)
REMARK    1  A    between atoms: C2_2  and  C4_4 
REMARK    2  A    between atoms: C4_4  and  N1_5 
REMARK    3  A    between atoms: C4_4  and  C12_22 
REMARK       I    between atoms: N1_5  and  C5_7 
REMARK    4  A    between atoms: C5_7  and  C6_9 
ROOT
HETATM    1  C6  UNL     1      29.510  47.132  -5.644  1.00  0.00     0.100 A 
HETATM    2  S1  UNL     1      29.504  46.341  -7.153  1.00  0.00    -0.064 SA
HETATM    3  C7  UNL     1      30.423  47.126  -8.349  1.00  0.00     0.094 A 
HETATM    4  N2  UNL     1      30.562  46.704  -9.574  1.00  0.00    -0.392 N 
ATOM      5  H21 UNL     1      31.113  47.175 -10.292  1.00  0.00     0.156 HD
ATOM      6  H22 UNL     1      30.107  45.846  -9.887  1.00  0.00     0.156 HD
HETATM    7  C8  UNL     1      31.041  48.290  -7.925  1.00  0.00     0.102 A 
HETATM    8  N3  UNL     1      31.836  48.989  -8.919  1.00  0.00    -0.098 NA
HETATM    9  C9  UNL     1      30.958  48.815  -6.665  1.00  0.00     0.097 A 
HETATM   10  C10 UNL     1      31.686  50.056  -6.417  1.00  0.00     0.103 C 
HETATM   11  N4  UNL     1      32.284  51.048  -6.205  1.00  0.00    -0.191 NA
HETATM   12  C11 UNL     1      30.256  48.291  -5.607  1.00  0.00     0.091 A 
HETATM   13  N5  UNL     1      30.275  48.976  -4.340  1.00  0.00    -0.099 NA
ENDROOT
BRANCH   1  14
HETATM   14  C5  UNL     1      28.782  46.634  -4.455  1.00  0.00     0.261 C 
HETATM   15  N1  UNL     1      28.536  47.439  -3.338  1.00  0.00    -0.342 N 
ATOM     16  H1  UNL     1      28.863  48.405  -3.327  1.00  0.00     0.163 HD
HETATM   17  O1  UNL     1      28.388  45.441  -4.488  1.00  0.00    -0.267 OA
BRANCH  15  18
HETATM   18  C4  UNL     1      27.821  46.909  -2.202  1.00  0.00     0.189 C 
BRANCH  18  19
HETATM   19  C2  UNL     1      26.987  48.003  -1.546  1.00  0.00     0.011 C 
HETATM   20  C1  UNL     1      27.879  48.732  -0.586  1.00  0.00     0.012 C 
HETATM   21  C3  UNL     1      26.435  48.894  -2.635  1.00  0.00     0.012 C 
ENDBRANCH  18  19
BRANCH  18  22
HETATM   22  C12 UNL     1      28.775  46.351  -1.193  1.00  0.00     0.197 C 
HETATM   23  O2  UNL     1      29.990  46.533  -1.327  1.00  0.00    -0.646 OA
HETATM   24  O3  UNL     1      28.310  45.635  -0.112  1.00  0.00    -0.646 OA
ENDBRANCH  18  22
ENDBRANCH  15  18
ENDBRANCH   1  14
TORSDOF 4
ENDMDL
MODEL 4
REMARK VINA RESULT: -8.020775190      2.402      3.821
REMARK  4 active torsions:
REMARK  status: ('A' for Active; 'I' for Inactive)
REMARK    1  A    between atoms: C2_2  and  C4_4 
REMARK    2  A    between atoms: C4_4  and  N1_5 
REMARK    3  A    between atoms: C4_4  and  C12_22 
REMARK       I    between atoms: N1_5  and  C5_7 
REMARK    4  A    between atoms: C5_7  and  C6_9 
ROOT
HETATM    1  C6  UNL     1      30.527  48.802  -5.190  1.00  0.00     0.100 A 
HETATM    2  S1  UNL     1      31.687  50.011  -5.497  1.00  0.00    -0.064 SA
HETATM    3  C7  UNL     1      32.330  49.969  -7.070  1.00  0.00     0.094 A 
HETATM    4  N2  UNL     1      33.229  50.795  -7.528  1.00  0.00    -0.392 N 
ATOM      5  H21 UNL     1      33.615  50.770  -8.471  1.00  0.00     0.156 HD
ATOM      6  H22 UNL     1      33.605  51.537  -6.937  1.00  0.00     0.156 HD
HETATM    7  C8  UNL     1      31.820  48.962  -7.872  1.00  0.00     0.102 A 
HETATM    8  N3  UNL     1      32.344  48.894  -9.224  1.00  0.00    -0.098 NA
HETATM    9  C9  UNL     1      30.877  48.048  -7.488  1.00  0.00     0.097 A 
HETATM   10  C10 UNL     1      30.469  47.062  -8.485  1.00  0.00     0.103 C 
HETATM   11  N4  UNL     1      30.122  46.275  -9.288  1.00  0.00    -0.191 NA
HETATM   12  C11 UNL     1      30.275  47.965  -6.257  1.00  0.00     0.091 A 
HETATM   13  N5  UNL     1      29.296  46.935  -6.019  1.00  0.00    -0.099 NA
ENDROOT
BRANCH   1  14
HETATM   14  C5  UNL     1      29.832  48.644  -3.893  1.00  0.00     0.261 C 
HETATM   15  N1  UNL     1      28.438  48.613  -3.791  1.00  0.00    -0.342 N 
ATOM     16  H1  UNL     1      27.865  48.701  -4.630  1.00  0.00     0.163 HD
HETATM   17  O1  UNL     1      30.554  48.539  -2.870  1.00  0.00    -0.267 OA
BRANCH  15  18
HETATM   18  C4  UNL     1      27.805  48.457  -2.503  1.00  0.00     0.189 C 
BRANCH  18  19
HETATM   19  C2  UNL     1      27.346  47.016  -2.311  1.00  0.00     0.011 C 
HETATM   20  C1  UNL     1      28.221  46.149  -3.165  1.00  0.00     0.012 C 
HETATM   21  C3  UNL     1      27.438  46.683  -0.839  1.00  0.00     0.012 C 
ENDBRANCH  18  19
BRANCH  18  22
HETATM   22  C12 UNL     1      26.621  49.366  -2.384  1.00  0.00     0.197 C 
HETATM   23  O2  UNL     1      25.913  49.588  -3.372  1.00  0.00    -0.646 OA
HETATM   24  O3  UNL     1      26.312  49.958  -1.179  1.00  0.00    -0.646 OA
ENDBRANCH  18  22
ENDBRANCH  15  18
ENDBRANCH   1  14
TORSDOF 4
ENDMDL
MODEL 5
REMARK VINA RESULT: -7.968827332      3.105      4.532
REMARK  4 active torsions:
REMARK  status: ('A' for Active; 'I' for Inactive)
REMARK    1  A    between atoms: C2_2  and  C4_4 
REMARK    2  A    between atoms: C4_4  and  N1_5 
REMARK    3  A    between atoms: C4_4  and  C12_22 
REMARK       I    between atoms: N1_5  and  C5_7 
REMARK    4  A    between atoms: C5_7  and  C6_9 
ROOT
HETATM    1  C6  UNL     1      30.446  47.410  -4.673  1.00  0.00     0.100 A 
HETATM    2  S1  UNL     1      31.824  47.987  -5.491  1.00  0.00    -0.064 SA
HETATM    3  C7  UNL     1      32.291  47.033  -6.819  1.00  0.00     0.094 A 
HETATM    4  N2  UNL     1      33.312  47.280  -7.590  1.00  0.00    -0.392 N 
ATOM      5  H21 UNL     1      33.592  46.708  -8.386  1.00  0.00     0.156 HD
ATOM      6  H22 UNL     1      33.905  48.094  -7.425  1.00  0.00     0.156 HD
HETATM    7  C8  UNL     1      31.485  45.929  -7.043  1.00  0.00     0.102 A 
HETATM    8  N3  UNL     1      31.851  45.089  -8.169  1.00  0.00    -0.098 NA
HETATM    9  C9  UNL     1      30.394  45.582  -6.294  1.00  0.00     0.097 A 
HETATM   10  C10 UNL     1      29.674  44.376  -6.695  1.00  0.00     0.103 C 
HETATM   11  N4  UNL     1      29.079  43.415  -7.022  1.00  0.00    -0.191 NA
HETATM   12  C11 UNL     1      29.906  46.256  -5.202  1.00  0.00     0.091 A 
HETATM   13  N5  UNL     1      28.739  45.751  -4.525  1.00  0.00    -0.099 NA
ENDROOT
BRANCH   1  14
HETATM   14  C5  UNL     1      29.857  48.076  -3.490  1.00  0.00     0.261 C 
HETATM   15  N1  UNL     1      28.503  47.957  -3.162  1.00  0.00    -0.342 N 
ATOM     16  H1  UNL     1      27.886  47.394  -3.748  1.00  0.00     0.163 HD
HETATM   17  O1  UNL     1      30.632  48.766  -2.781  1.00  0.00    -0.267 OA
BRANCH  15  18
HETATM   18  C4  UNL     1      27.974  48.625  -1.997  1.00  0.00     0.189 C 
BRANCH  18  19
HETATM   19  C2  UNL     1      27.597  47.606  -0.929  1.00  0.00     0.011 C 
HETATM   20  C1  UNL     1      26.813  46.519  -1.601  1.00  0.00     0.012 C 
HETATM   21  C3  UNL     1      28.870  47.106  -0.282  1.00  0.00     0.012 C 
ENDBRANCH  18  19
BRANCH  18  22
HETATM   22  C12 UNL     1      26.762  49.427  -2.355  1.00  0.00     0.197 C 
HETATM   23  O2  UNL     1      26.109  49.986  -1.467  1.00  0.00    -0.646 OA
HETATM   24  O3  UNL     1      26.367  49.550  -3.669  1.00  0.00    -0.646 OA
ENDBRANCH  18  22
ENDBRANCH  15  18
ENDBRANCH   1  14
TORSDOF 4
ENDMDL
