MODEL 1
REMARK VINA RESULT: -8.000261391      0.000      0.000
REMARK  6 active torsions:
REMARK  status: ('A' for Active; 'I' for Inactive)
REMARK    1  A    between atoms: C2_2  and  O1_3 
REMARK    2  A    between atoms: O1_3  and  C3_4 
REMARK    3  A    between atoms: C3_4  and  C4_6 
REMARK    4  A    between atoms: C10_15  and  C11_16 
REMARK    5  A    between atoms: C11_16  and  O3_17 
REMARK    6  A    between atoms: C11_16  and  N3_19 
REMARK       I    between atoms: N3_19  and  C12_21 
ROOT
HETATM    1  C4  UNL     1      30.430  48.650  -4.965  1.00  0.00     0.057 A 
HETATM    2  C5  UNL     1      30.116  47.754  -6.020  1.00  0.00     0.042 A 
HETATM    3  C6  UNL     1      30.590  47.888  -7.285  1.00  0.00     0.065 A 
HETATM    4  C7  UNL     1      30.227  46.935  -8.304  1.00  0.00     0.101 C 
HETATM    5  N1  UNL     1      29.936  46.157  -9.106  1.00  0.00    -0.191 NA
HETATM    6  C8  UNL     1      31.409  48.943  -7.546  1.00  0.00     0.058 A 
HETATM    7  S1  UNL     1      32.032  49.129  -9.219  1.00  0.00    -0.049 SA
HETATM    8  C9  UNL     1      31.744  49.828  -6.563  1.00  0.00     0.081 A 
HETATM    9  N2  UNL     1      32.602  50.892  -6.921  1.00  0.00    -0.100 NA
HETATM   10  C10 UNL     1      31.249  49.678  -5.238  1.00  0.00     0.057 A 
ENDROOT
BRANCH   1  11
HETATM   11  C3  UNL     1      29.557  48.503  -3.830  1.00  0.00     0.294 C 
HETATM   12  O2  UNL     1      29.930  48.116  -2.722  1.00  0.00    -0.259 OA
BRANCH  11  13
HETATM   13  O1  UNL     1      28.192  48.793  -3.924  1.00  0.00    -0.318 OA
BRANCH  13  14
HETATM   14  C2  UNL     1      27.302  48.452  -2.869  1.00  0.00     0.174 C 
HETATM   15  C1  UNL     1      26.262  49.514  -2.644  1.00  0.00     0.034 C 
ENDBRANCH  13  14
ENDBRANCH  11  13
ENDBRANCH   1  11
BRANCH  10  16
HETATM   16  C11 UNL     1      31.719  50.650  -4.284  1.00  0.00     0.155 C 
BRANCH  16  17
HETATM   17  O3  UNL     1      32.294  50.186  -3.207  1.00  0.00    -0.345 OA
ATOM     18  H3  UNL     1      32.427  50.801  -2.495  1.00  0.00     0.219 HD
ENDBRANCH  16  17
BRANCH  16  19
HETATM   19  N3  UNL     1      31.655  52.050  -4.286  1.00  0.00    -0.311 N 
HETATM   20  C12 UNL     1      32.806  52.864  -3.983  1.00  0.00     0.187 C 
HETATM   21  N4  UNL     1      32.676  54.144  -4.003  1.00  0.00    -0.373 N 
HETATM   22  N5  UNL     1      34.077  52.342  -3.662  1.00  0.00    -0.064 NA
ATOM     23  H42 UNL     1      31.758  54.522  -4.234  1.00  0.00     0.158 HD
ATOM     24  H41 UNL     1      33.490  54.720  -3.788  1.00  0.00     0.158 HD
ATOM     25  H3  UNL     1      30.770  52.505  -4.509  1.00  0.00     0.170 HD
ENDBRANCH  16  19
ENDBRANCH  10  16
TORSDOF 6
ENDMDL
MODEL 2
REMARK VINA RESULT: -7.942087404      3.179      4.878
REMARK  6 active torsions:
REMARK  status: ('A' for Active; 'I' for Inactive)
REMARK    1  A    between atoms: C2_2  and  O1_3 
REMARK    2  A    between atoms: O1_3  and  C3_4 
REMARK    3  A    between atoms: C3_4  and  C4_6 
REMARK    4  A    between atoms: C10_15  and  C11_16 
REMARK    5  A    between atoms: C11_16  and  O3_17 
REMARK    6  A    between atoms: C11_16  and  N3_19 
REMARK       I    between atoms: N3_19  and  C12_21 
ROOT
HETATM    1  C4  UNL     1      30.551  48.641  -5.901  1.00  0.00     0.057 A 
HETATM    2  C5  UNL     1      30.969  47.931  -7.057  1.00  0.00     0.042 A 
HETATM    3  C6  UNL     1      30.632  46.640  -7.307  1.00  0.00     0.065 A 
HETATM    4  C7  UNL     1      31.094  45.986  -8.505  1.00  0.00     0.101 C 
HETATM    5  N1  UNL     1      31.463  45.480  -9.476  1.00  0.00    -0.191 NA
HETATM    6  C8  UNL     1      29.852  46.001  -6.393  1.00  0.00     0.058 A 
HETATM    7  S1  UNL     1      29.411  44.290  -6.716  1.00  0.00    -0.049 SA
HETATM    8  C9  UNL     1      29.421  46.643  -5.270  1.00  0.00     0.081 A 
HETATM    9  N2  UNL     1      28.614  45.904  -4.376  1.00  0.00    -0.100 NA
HETATM   10  C10 UNL     1      29.772  47.998  -5.017  1.00  0.00     0.057 A 
ENDROOT
BRANCH   1  11
HETATM   11  C3  UNL     1      31.298  49.854  -5.692  1.00  0.00     0.294 C 
HETATM   12  O2  UNL     1      31.481  50.707  -6.561  1.00  0.00    -0.259 OA
BRANCH  11  13
HETATM   13  O1  UNL     1      31.883  50.140  -4.453  1.00  0.00    -0.318 OA
BRANCH  13  14
HETATM   14  C2  UNL     1      33.230  49.775  -4.184  1.00  0.00     0.174 C 
HETATM   15  C1  UNL     1      33.336  48.380  -3.633  1.00  0.00     0.034 C 
ENDBRANCH  13  14
ENDBRANCH  11  13
ENDBRANCH   1  11
BRANCH  10  16
HETATM   16  C11 UNL     1      29.211  48.574  -3.822  1.00  0.00     0.155 C 
BRANCH  16  17
HETATM   17  O3  UNL     1      29.879  48.397  -2.713  1.00  0.00    -0.345 OA
ATOM     18  H3  UNL     1      29.624  48.931  -1.971  1.00  0.00     0.219 HD
ENDBRANCH  16  17
BRANCH  16  19
HETATM   19  N3  UNL     1      28.029  49.299  -3.615  1.00  0.00    -0.311 N 
HETATM   20  C12 UNL     1      27.024  48.864  -2.677  1.00  0.00     0.187 C 
HETATM   21  N4  UNL     1      25.963  49.578  -2.537  1.00  0.00    -0.373 N 
HETATM   22  N5  UNL     1      27.132  47.694  -1.895  1.00  0.00    -0.064 NA
ATOM     23  H42 UNL     1      25.885  50.423  -3.101  1.00  0.00     0.158 HD
ATOM     24  H41 UNL     1      25.252  49.270  -1.873  1.00  0.00     0.158 HD
ATOM     25  H3  UNL     1      27.876  50.159  -4.142  1.00  0.00     0.170 HD
ENDBRANCH  16  19
ENDBRANCH  10  16
TORSDOF 6
ENDMDL
MODEL 3
REMARK VINA RESULT: -7.825386941      3.288      5.019
REMARK  6 active torsions:
REMARK  status: ('A' for Active; 'I' for Inactive)
REMARK    1  A    between atoms: C2_2  and  O1_3 
REMARK    2  A    between atoms: O1_3  and  C3_4 
REMARK    3  A    between atoms: C3_4  and  C4_6 
REMARK    4  A    between atoms: C10_15  and  C11_16 
REMARK    5  A    between atoms: C11_16  and  O3_17 
REMARK    6  A    between atoms: C11_16  and  N3_19 
REMARK       I    between atoms: N3_19  and  C12_21 
ROOT
HETATM    1  C4  UNL     1      31.656  47.910  -4.252  1.00  0.00     0.057 A 
HETATM    2  C5  UNL     1      32.234  47.579  -5.506  1.00  0.00     0.042 A 
HETATM    3  C6  UNL     1      31.672  46.711  -6.386  1.00  0.00     0.065 A 
HETATM    4  C7  UNL     1      32.319  46.427  -7.641  1.00  0.00     0.101 C 
HETATM    5  N1  UNL     1      32.845  46.218  -8.649  1.00  0.00    -0.191 NA
HETATM    6  C8  UNL     1      30.491  46.132  -6.037  1.00  0.00     0.058 A 
HETATM    7  S1  UNL     1      29.749  44.977  -7.194  1.00  0.00    -0.049 SA
HETATM    8  C9  UNL     1      29.894  46.423  -4.845  1.00  0.00     0.081 A 
HETATM    9  N2  UNL     1      28.669  45.777  -4.565  1.00  0.00    -0.100 NA
HETATM   10  C10 UNL     1      30.485  47.338  -3.931  1.00  0.00     0.057 A 
ENDROOT
BRANCH   1  11
HETATM   11  C3  UNL     1      32.582  48.569  -3.368  1.00  0.00     0.294 C 
HETATM   12  O2  UNL     1      33.582  48.029  -2.893  1.00  0.00    -0.259 OA
BRANCH  11  13
HETATM   13  O1  UNL     1      32.391  49.899  -2.979  1.00  0.00    -0.318 OA
BRANCH  13  14
HETATM   14  C2  UNL     1      32.609  50.962  -3.897  1.00  0.00     0.174 C 
HETATM   15  C1  UNL     1      34.037  51.435  -3.880  1.00  0.00     0.034 C 
ENDBRANCH  13  14
ENDBRANCH  11  13
ENDBRANCH   1  11
BRANCH  10  16
HETATM   16  C11 UNL     1      29.729  47.596  -2.731  1.00  0.00     0.155 C 
BRANCH  16  17
HETATM   17  O3  UNL     1      29.754  46.672  -1.810  1.00  0.00    -0.345 OA
ATOM     18  H3  UNL     1      30.498  46.081  -1.817  1.00  0.00     0.219 HD
ENDBRANCH  16  17
BRANCH  16  19
HETATM   19  N3  UNL     1      28.926  48.685  -2.364  1.00  0.00    -0.311 N 
HETATM   20  C12 UNL     1      27.569  48.511  -1.912  1.00  0.00     0.187 C 
HETATM   21  N4  UNL     1      26.888  49.554  -1.591  1.00  0.00    -0.373 N 
HETATM   22  N5  UNL     1      26.932  47.256  -1.798  1.00  0.00    -0.064 NA
ATOM     23  H42 UNL     1      27.347  50.461  -1.673  1.00  0.00     0.158 HD
ATOM     24  H41 UNL     1      25.928  49.431  -1.271  1.00  0.00     0.158 HD
ATOM     25  H3  UNL     1      29.314  49.628  -2.419  1.00  0.00     0.170 HD
ENDBRANCH  16  19
ENDBRANCH  10  16
TORSDOF 6
ENDMDL
MODEL 4
REMARK VINA RESULT: -7.768520502      3.764      5.623
REMARK  6 active torsions:
REMARK  status: ('A' for Active; 'I' for Inactive)
REMARK    1  A    between atoms: C2_2  and  O1_3 
REMARK    2  A    between atoms: O1_3  and  C3_4 
REMARK    3  A    between atoms: C3_4  and  C4_6 
REMARK    4  A    between atoms: C10_15  and  C11_16 
REMARK    5  A    between atoms: C11_16  and  O3_17 
REMARK    6  A    between atoms: C11_16  and  N3_19 
REMARK       I    between atoms: N3_19  and  C12_21 
ROOT
HETATM    1  C4  UNL     1      32.393  48.188  -4.692  1.00  0.00     0.057 A 
HETATM    2  C5  UNL     1      33.173  47.991  -5.861  1.00  0.00     0.042 A 
HETATM    3  C6  UNL     1      32.839  47.120  -6.848  1.00  0.00     0.065 A 
HETATM    4  C7  UNL     1      33.683  46.975  -8.007  1.00  0.00     0.101 C 
HETATM    5  N1  UNL     1      34.364  46.879  -8.936  1.00  0.00    -0.191 NA
HETATM    6  C8  UNL     1      31.693  46.402  -6.698  1.00  0.00     0.058 A 
HETATM    7  S1  UNL     1      31.252  45.243  -7.996  1.00  0.00    -0.049 SA
HETATM    8  C9  UNL     1      30.907  46.561  -5.594  1.00  0.00     0.081 A 
HETATM    9  N2  UNL     1      29.734  45.777  -5.521  1.00  0.00    -0.100 NA
HETATM   10  C10 UNL     1      31.259  47.481  -4.567  1.00  0.00     0.057 A 
ENDROOT
BRANCH   1  11
HETATM   11  C3  UNL     1      33.107  48.889  -3.657  1.00  0.00     0.294 C 
HETATM   12  O2  UNL     1      32.755  49.974  -3.192  1.00  0.00    -0.259 OA
BRANCH  11  13
HETATM   13  O1  UNL     1      34.282  48.366  -3.107  1.00  0.00    -0.318 OA
BRANCH  13  14
HETATM   14  C2  UNL     1      35.544  48.955  -3.394  1.00  0.00     0.174 C 
HETATM   15  C1  UNL     1      36.597  48.537  -2.406  1.00  0.00     0.034 C 
ENDBRANCH  13  14
ENDBRANCH  11  13
ENDBRANCH   1  11
BRANCH  10  16
HETATM   16  C11 UNL     1      30.319  47.591  -3.481  1.00  0.00     0.155 C 
BRANCH  16  17
HETATM   17  O3  UNL     1      29.681  48.725  -3.368  1.00  0.00    -0.345 OA
ATOM     18  H3  UNL     1      29.282  48.909  -2.527  1.00  0.00     0.219 HD
ENDBRANCH  16  17
BRANCH  16  19
HETATM   19  N3  UNL     1      29.962  46.683  -2.475  1.00  0.00    -0.311 N 
HETATM   20  C12 UNL     1      28.589  46.311  -2.238  1.00  0.00     0.187 C 
HETATM   21  N4  UNL     1      28.332  45.472  -1.297  1.00  0.00    -0.373 N 
HETATM   22  N5  UNL     1      27.499  46.814  -2.980  1.00  0.00    -0.064 NA
ATOM     23  H42 UNL     1      29.120  45.109  -0.761  1.00  0.00     0.158 HD
ATOM     24  H41 UNL     1      27.361  45.209  -1.130  1.00  0.00     0.158 HD
ATOM     25  H3  UNL     1      30.694  46.273  -1.893  1.00  0.00     0.170 HD
ENDBRANCH  16  19
ENDBRANCH  10  16
TORSDOF 6
ENDMDL
MODEL 5
REMARK VINA RESULT: -7.764677836      3.536      5.197
REMARK  6 active torsions:
REMARK  status: ('A' for Active; 'I' for Inactive)
REMARK    1  A    between atoms: C2_2  and  O1_3 
REMARK    2  A    between atoms: O1_3  and  C3_4 
REMARK    3  A    between atoms: C3_4  and  C4_6 
REMARK    4  A    between atoms: C10_15  and  C11_16 
REMARK    5  A    between atoms: C11_16  and  O3_17 
REMARK    6  A    between atoms: C11_16  and  N3_19 
REMARK       I    between atoms: N3_19  and  C12_21 
ROOT
HETATM    1  C4  UNL     1      32.364  48.192  -4.662  1.00  0.00     0.057 A 
HETATM    2  C5  UNL     1      33.177  48.008  -5.812  1.00  0.00     0.042 A 
HETATM    3  C6  UNL     1      32.870  47.149  -6.818  1.00  0.00     0.065 A 
HETATM    4  C7  UNL     1      33.745  47.017  -7.955  1.00  0.00     0.101 C 
HETATM    5  N1  UNL     1      34.452  46.932  -8.865  1.00  0.00    -0.191 NA
HETATM    6  C8  UNL     1      31.720  46.431  -6.708  1.00  0.00     0.058 A 
HETATM    7  S1  UNL     1      31.314  45.288  -8.033  1.00  0.00    -0.049 SA
HETATM    8  C9  UNL     1      30.903  46.578  -5.625  1.00  0.00     0.081 A 
HETATM    9  N2  UNL     1      29.728  45.794  -5.595  1.00  0.00    -0.100 NA
HETATM   10  C10 UNL     1      31.227  47.484  -4.578  1.00  0.00     0.057 A 
ENDROOT
BRANCH   1  11
HETATM   11  C3  UNL     1      33.050  48.880  -3.600  1.00  0.00     0.294 C 
HETATM   12  O2  UNL     1      33.965  48.386  -2.939  1.00  0.00    -0.259 OA
BRANCH  11  13
HETATM   13  O1  UNL     1      32.702  50.186  -3.239  1.00  0.00    -0.318 OA
BRANCH  13  14
HETATM   14  C2  UNL     1      33.160  51.296  -4.000  1.00  0.00     0.174 C 
HETATM   15  C1  UNL     1      32.038  51.977  -4.733  1.00  0.00     0.034 C 
ENDBRANCH  13  14
ENDBRANCH  11  13
ENDBRANCH   1  11
BRANCH  10  16
HETATM   16  C11 UNL     1      30.257  47.582  -3.517  1.00  0.00     0.155 C 
BRANCH  16  17
HETATM   17  O3  UNL     1      29.550  48.680  -3.466  1.00  0.00    -0.345 OA
ATOM     18  H3  UNL     1      28.813  48.741  -4.061  1.00  0.00     0.219 HD
ENDBRANCH  16  17
BRANCH  16  19
HETATM   19  N3  UNL     1      29.931  46.697  -2.481  1.00  0.00    -0.311 N 
HETATM   20  C12 UNL     1      28.570  46.296  -2.223  1.00  0.00     0.187 C 
HETATM   21  N4  UNL     1      28.341  45.481  -1.254  1.00  0.00    -0.373 N 
HETATM   22  N5  UNL     1      27.461  46.747  -2.971  1.00  0.00    -0.064 NA
ATOM     23  H42 UNL     1      29.142  45.155  -0.713  1.00  0.00     0.158 HD
ATOM     24  H41 UNL     1      27.379  45.198  -1.072  1.00  0.00     0.158 HD
ATOM     25  H3  UNL     1      30.677  46.325  -1.893  1.00  0.00     0.170 HD
ENDBRANCH  16  19
ENDBRANCH  10  16
TORSDOF 6
ENDMDL
