MODEL 1
REMARK VINA RESULT: -9.045970240      0.000      0.000
REMARK  6 active torsions:
REMARK  status: ('A' for Active; 'I' for Inactive)
REMARK    1  A    between atoms: C2_2  and  O1_3 
REMARK    2  A    between atoms: O1_3  and  C3_4 
REMARK    3  A    between atoms: C3_4  and  C4_6 
REMARK    4  A    between atoms: C5_7  and  C6_8 
REMARK    5  A    between atoms: C7_9  and  O3_10 
REMARK    6  A    between atoms: C8_14  and  N2_15 
ROOT
HETATM    1  C6  UNL     1      29.579  47.138  -4.801  1.00  0.00     0.028 A 
HETATM    2  C7  UNL     1      29.093  45.839  -4.807  1.00  0.00     0.152 A 
HETATM    3  N1  UNL     1      29.541  44.895  -5.653  1.00  0.00    -0.322 N 
ATOM      4  H1  UNL     1      29.156  43.951  -5.632  1.00  0.00     0.169 HD
HETATM    5  C8  UNL     1      30.481  45.217  -6.504  1.00  0.00     0.107 A 
HETATM    6  C9  UNL     1      31.024  46.508  -6.552  1.00  0.00    -0.005 A 
HETATM    7  C10 UNL     1      32.151  46.705  -7.474  1.00  0.00     0.053 C 
HETATM    8  C11 UNL     1      30.586  47.521  -5.697  1.00  0.00     0.012 A 
HETATM    9  C12 UNL     1      31.155  48.847  -5.693  1.00  0.00     0.043 C 
HETATM   10  C13 UNL     1      31.661  49.415  -7.001  1.00  0.00     0.289 C 
HETATM   11  N3  UNL     1      31.610  50.906  -6.824  1.00  0.00    -0.068 N 
ATOM     12  H31 UNL     1      30.651  51.252  -6.786  1.00  0.00     0.277 HD
ATOM     13  H32 UNL     1      31.915  51.401  -7.662  1.00  0.00     0.277 HD
HETATM   14  C14 UNL     1      32.362  51.289  -5.675  1.00  0.00     0.252 C 
HETATM   15  C15 UNL     1      31.797  50.688  -4.397  1.00  0.00     0.147 C 
HETATM   16  N4  UNL     1      30.652  49.857  -4.828  1.00  0.00    -0.389 N 
ATOM     17  H4  UNL     1      29.678  49.986  -4.554  1.00  0.00     0.159 HD
ENDROOT
BRANCH   1  18
HETATM   18  C5  UNL     1      28.953  48.092  -3.945  1.00  0.00     0.023 C 
HETATM   19  C4  UNL     1      27.640  48.047  -3.691  1.00  0.00     0.083 C 
BRANCH  19  20
HETATM   20  C3  UNL     1      26.994  49.036  -2.805  1.00  0.00     0.282 C 
HETATM   21  O2  UNL     1      26.666  50.152  -3.251  1.00  0.00    -0.260 OA
BRANCH  20  22
HETATM   22  O1  UNL     1      26.740  48.749  -1.477  1.00  0.00    -0.319 OA
BRANCH  22  23
HETATM   23  C2  UNL     1      27.824  48.747  -0.558  1.00  0.00     0.174 C 
HETATM   24  C1  UNL     1      28.191  47.372  -0.098  1.00  0.00     0.034 C 
ENDBRANCH  22  23
ENDBRANCH  20  22
ENDBRANCH  19  20
ENDBRANCH   1  18
BRANCH   2  25
HETATM   25  O3  UNL     1      28.106  45.387  -3.934  1.00  0.00    -0.345 OA
ATOM     26  H3  UNL     1      28.273  44.770  -3.231  1.00  0.00     0.219 HD
ENDBRANCH   2  25
BRANCH   5  27
HETATM   27  N2  UNL     1      30.926  44.311  -7.316  1.00  0.00    -0.385 N 
ATOM     28  H22 UNL     1      31.751  43.769  -7.058  1.00  0.00     0.157 HD
ATOM     29  H21 UNL     1      30.435  44.155  -8.197  1.00  0.00     0.157 HD
ENDBRANCH   5  27
TORSDOF 6
ENDMDL
MODEL 2
REMARK VINA RESULT: -9.015146232      1.948      2.116
REMARK  6 active torsions:
REMARK  status: ('A' for Active; 'I' for Inactive)
REMARK    1  A    between atoms: C2_2  and  O1_3 
REMARK    2  A    between atoms: O1_3  and  C3_4 
REMARK    3  A    between atoms: C3_4  and  C4_6 
REMARK    4  A    between atoms: C5_7  and  C6_8 
REMARK    5  A    between atoms: C7_9  and  O3_10 
REMARK    6  A    between atoms: C8_14  and  N2_15 
ROOT
HETATM    1  C6  UNL     1      29.882  47.639  -4.947  1.00  0.00     0.028 A 
HETATM    2  C7  UNL     1      29.146  46.522  -5.310  1.00  0.00     0.152 A 
HETATM    3  N1  UNL     1      29.063  46.082  -6.578  1.00  0.00    -0.322 N 
ATOM      4  H1  UNL     1      28.506  45.259  -6.810  1.00  0.00     0.169 HD
HETATM    5  C8  UNL     1      29.712  46.735  -7.508  1.00  0.00     0.107 A 
HETATM    6  C9  UNL     1      30.481  47.869  -7.214  1.00  0.00    -0.005 A 
HETATM    7  C10 UNL     1      31.250  48.439  -8.329  1.00  0.00     0.053 C 
HETATM    8  C11 UNL     1      30.591  48.365  -5.914  1.00  0.00     0.012 A 
HETATM    9  C12 UNL     1      31.410  49.503  -5.573  1.00  0.00     0.043 C 
HETATM   10  C13 UNL     1      31.564  50.608  -6.595  1.00  0.00     0.289 C 
HETATM   11  N3  UNL     1      31.908  51.833  -5.796  1.00  0.00    -0.068 N 
ATOM     12  H31 UNL     1      31.120  52.156  -5.235  1.00  0.00     0.277 HD
ATOM     13  H32 UNL     1      32.018  52.656  -6.388  1.00  0.00     0.277 HD
HETATM   14  C14 UNL     1      33.066  51.589  -5.000  1.00  0.00     0.252 C 
HETATM   15  C15 UNL     1      32.841  50.472  -3.993  1.00  0.00     0.147 C 
HETATM   16  N4  UNL     1      31.463  49.995  -4.239  1.00  0.00    -0.389 N 
ATOM     17  H4  UNL     1      30.691  50.014  -3.573  1.00  0.00     0.159 HD
ENDROOT
BRANCH   1  18
HETATM   18  C5  UNL     1      29.808  48.091  -3.595  1.00  0.00     0.023 C 
HETATM   19  C4  UNL     1      30.495  47.485  -2.619  1.00  0.00     0.083 C 
BRANCH  19  20
HETATM   20  C3  UNL     1      30.416  47.955  -1.221  1.00  0.00     0.282 C 
HETATM   21  O2  UNL     1      30.991  49.008  -0.884  1.00  0.00    -0.260 OA
BRANCH  20  22
HETATM   22  O1  UNL     1      29.708  47.248  -0.267  1.00  0.00    -0.319 OA
BRANCH  22  23
HETATM   23  C2  UNL     1      28.339  47.564  -0.058  1.00  0.00     0.174 C 
HETATM   24  C1  UNL     1      27.415  46.671  -0.824  1.00  0.00     0.034 C 
ENDBRANCH  22  23
ENDBRANCH  20  22
ENDBRANCH  19  20
ENDBRANCH   1  18
BRANCH   2  25
HETATM   25  O3  UNL     1      28.432  45.746  -4.399  1.00  0.00    -0.345 OA
ATOM     26  H3  UNL     1      28.783  44.963  -3.993  1.00  0.00     0.219 HD
ENDBRANCH   2  25
BRANCH   5  27
HETATM   27  N2  UNL     1      29.646  46.312  -8.730  1.00  0.00    -0.385 N 
ATOM     28  H22 UNL     1      28.792  45.861  -9.058  1.00  0.00     0.157 HD
ATOM     29  H21 UNL     1      30.452  46.447  -9.343  1.00  0.00     0.157 HD
ENDBRANCH   5  27
TORSDOF 6
ENDMDL
MODEL 3
REMARK VINA RESULT: -8.711444507      1.636      2.222
REMARK  6 active torsions:
REMARK  status: ('A' for Active; 'I' for Inactive)
REMARK    1  A    between atoms: C2_2  and  O1_3 
REMARK    2  A    between atoms: O1_3  and  C3_4 
REMARK    3  A    between atoms: C3_4  and  C4_6 
REMARK    4  A    between atoms: C5_7  and  C6_8 
REMARK    5  A    between atoms: C7_9  and  O3_10 
REMARK    6  A    between atoms: C8_14  and  N2_15 
ROOT
HETATM    1  C6  UNL     1      30.102  46.997  -5.623  1.00  0.00     0.028 A 
HETATM    2  C7  UNL     1      29.666  45.926  -6.389  1.00  0.00     0.152 A 
HETATM    3  N1  UNL     1      29.789  45.887  -7.727  1.00  0.00    -0.322 N 
ATOM      4  H1  UNL     1      29.452  45.085  -8.259  1.00  0.00     0.169 HD
HETATM    5  C8  UNL     1      30.352  46.903  -8.331  1.00  0.00     0.107 A 
HETATM    6  C9  UNL     1      30.820  48.016  -7.621  1.00  0.00    -0.005 A 
HETATM    7  C10 UNL     1      31.532  49.034  -8.407  1.00  0.00     0.053 C 
HETATM    8  C11 UNL     1      30.709  48.103  -6.233  1.00  0.00     0.012 A 
HETATM    9  C12 UNL     1      31.221  49.216  -5.470  1.00  0.00     0.043 C 
HETATM   10  C13 UNL     1      31.209  50.588  -6.107  1.00  0.00     0.289 C 
HETATM   11  N3  UNL     1      31.203  51.552  -4.955  1.00  0.00    -0.068 N 
ATOM     12  H31 UNL     1      30.319  51.534  -4.447  1.00  0.00     0.277 HD
ATOM     13  H32 UNL     1      31.176  52.522  -5.269  1.00  0.00     0.277 HD
HETATM   14  C14 UNL     1      32.316  51.300  -4.099  1.00  0.00     0.252 C 
HETATM   15  C15 UNL     1      32.264  49.907  -3.491  1.00  0.00     0.147 C 
HETATM   16  N4  UNL     1      31.052  49.277  -4.059  1.00  0.00    -0.389 N 
ATOM     17  H4  UNL     1      30.243  48.946  -3.535  1.00  0.00     0.159 HD
ENDROOT
BRANCH   1  18
HETATM   18  C5  UNL     1      29.816  46.991  -4.225  1.00  0.00     0.023 C 
HETATM   19  C4  UNL     1      28.568  46.836  -3.769  1.00  0.00     0.083 C 
BRANCH  19  20
HETATM   20  C3  UNL     1      28.275  46.831  -2.321  1.00  0.00     0.282 C 
HETATM   21  O2  UNL     1      29.081  46.314  -1.524  1.00  0.00    -0.260 OA
BRANCH  20  22
HETATM   22  O1  UNL     1      27.115  47.395  -1.824  1.00  0.00    -0.319 OA
BRANCH  22  23
HETATM   23  C2  UNL     1      27.059  48.805  -1.654  1.00  0.00     0.174 C 
HETATM   24  C1  UNL     1      26.237  49.482  -2.704  1.00  0.00     0.034 C 
ENDBRANCH  22  23
ENDBRANCH  20  22
ENDBRANCH  19  20
ENDBRANCH   1  18
BRANCH   2  25
HETATM   25  O3  UNL     1      29.070  44.789  -5.847  1.00  0.00    -0.345 OA
ATOM     26  H3  UNL     1      29.543  44.147  -5.332  1.00  0.00     0.219 HD
ENDBRANCH   2  25
BRANCH   5  27
HETATM   27  N2  UNL     1      30.484  46.869  -9.619  1.00  0.00    -0.385 N 
ATOM     28  H22 UNL     1      31.354  47.193 -10.041  1.00  0.00     0.157 HD
ATOM     29  H21 UNL     1      29.713  46.513 -10.185  1.00  0.00     0.157 HD
ENDBRANCH   5  27
TORSDOF 6
ENDMDL
MODEL 4
REMARK VINA RESULT: -8.628474487      1.386      1.565
REMARK  6 active torsions:
REMARK  status: ('A' for Active; 'I' for Inactive)
REMARK    1  A    between atoms: C2_2  and  O1_3 
REMARK    2  A    between atoms: O1_3  and  C3_4 
REMARK    3  A    between atoms: C3_4  and  C4_6 
REMARK    4  A    between atoms: C5_7  and  C6_8 
REMARK    5  A    between atoms: C7_9  and  O3_10 
REMARK    6  A    between atoms: C8_14  and  N2_15 
ROOT
HETATM    1  C6  UNL     1      29.794  47.560  -4.953  1.00  0.00     0.028 A 
HETATM    2  C7  UNL     1      29.151  46.422  -5.414  1.00  0.00     0.152 A 
HETATM    3  N1  UNL     1      29.186  46.032  -6.701  1.00  0.00    -0.322 N 
ATOM      4  H1  UNL     1      28.695  45.191  -7.005  1.00  0.00     0.169 HD
HETATM    5  C8  UNL     1      29.865  46.757  -7.552  1.00  0.00     0.107 A 
HETATM    6  C9  UNL     1      30.544  47.918  -7.158  1.00  0.00    -0.005 A 
HETATM    7  C10 UNL     1      31.360  48.575  -8.188  1.00  0.00     0.053 C 
HETATM    8  C11 UNL     1      30.530  48.363  -5.835  1.00  0.00     0.012 A 
HETATM    9  C12 UNL     1      31.256  49.528  -5.389  1.00  0.00     0.043 C 
HETATM   10  C13 UNL     1      31.423  50.682  -6.354  1.00  0.00     0.289 C 
HETATM   11  N3  UNL     1      31.638  51.888  -5.485  1.00  0.00    -0.068 N 
ATOM     12  H31 UNL     1      30.794  52.145  -4.973  1.00  0.00     0.277 HD
ATOM     13  H32 UNL     1      31.744  52.741  -6.034  1.00  0.00     0.277 HD
HETATM   14  C14 UNL     1      32.746  51.673  -4.613  1.00  0.00     0.252 C 
HETATM   15  C15 UNL     1      32.510  50.503  -3.670  1.00  0.00     0.147 C 
HETATM   16  N4  UNL     1      31.184  49.964  -4.038  1.00  0.00    -0.389 N 
ATOM     17  H4  UNL     1      30.364  49.914  -3.432  1.00  0.00     0.159 HD
ENDROOT
BRANCH   1  18
HETATM   18  C5  UNL     1      29.595  47.949  -3.595  1.00  0.00     0.023 C 
HETATM   19  C4  UNL     1      28.370  48.180  -3.108  1.00  0.00     0.083 C 
BRANCH  19  20
HETATM   20  C3  UNL     1      28.166  48.583  -1.702  1.00  0.00     0.282 C 
HETATM   21  O2  UNL     1      27.115  49.160  -1.365  1.00  0.00    -0.260 OA
BRANCH  20  22
HETATM   22  O1  UNL     1      29.124  48.328  -0.738  1.00  0.00    -0.319 OA
BRANCH  22  23
HETATM   23  C2  UNL     1      29.222  47.016  -0.203  1.00  0.00     0.174 C 
HETATM   24  C1  UNL     1      27.919  46.282  -0.226  1.00  0.00     0.034 C 
ENDBRANCH  22  23
ENDBRANCH  20  22
ENDBRANCH  19  20
ENDBRANCH   1  18
BRANCH   2  25
HETATM   25  O3  UNL     1      28.416  45.571  -4.591  1.00  0.00    -0.345 OA
ATOM     26  H3  UNL     1      27.672  45.064  -4.894  1.00  0.00     0.219 HD
ENDBRANCH   2  25
BRANCH   5  27
HETATM   27  N2  UNL     1      29.913  46.385  -8.792  1.00  0.00    -0.385 N 
ATOM     28  H22 UNL     1      30.667  46.726  -9.388  1.00  0.00     0.157 HD
ATOM     29  H21 UNL     1      29.195  45.750  -9.144  1.00  0.00     0.157 HD
ENDBRANCH   5  27
TORSDOF 6
ENDMDL
MODEL 5
REMARK VINA RESULT: -8.569155070      1.902      2.753
REMARK  6 active torsions:
REMARK  status: ('A' for Active; 'I' for Inactive)
REMARK    1  A    between atoms: C2_2  and  O1_3 
REMARK    2  A    between atoms: O1_3  and  C3_4 
REMARK    3  A    between atoms: C3_4  and  C4_6 
REMARK    4  A    between atoms: C5_7  and  C6_8 
REMARK    5  A    between atoms: C7_9  and  O3_10 
REMARK    6  A    between atoms: C8_14  and  N2_15 
ROOT
HETATM    1  C6  UNL     1      30.255  47.209  -6.638  1.00  0.00     0.028 A 
HETATM    2  C7  UNL     1      29.864  46.353  -7.657  1.00  0.00     0.152 A 
HETATM    3  N1  UNL     1      30.134  46.590  -8.953  1.00  0.00    -0.322 N 
ATOM      4  H1  UNL     1      29.826  45.940  -9.677  1.00  0.00     0.169 HD
HETATM    5  C8  UNL     1      30.800  47.672  -9.264  1.00  0.00     0.107 A 
HETATM    6  C9  UNL     1      31.231  48.580  -8.287  1.00  0.00    -0.005 A 
HETATM    7  C10 UNL     1      32.066  49.693  -8.759  1.00  0.00     0.053 C 
HETATM    8  C11 UNL     1      30.969  48.379  -6.931  1.00  0.00     0.012 A 
HETATM    9  C12 UNL     1      31.438  49.271  -5.898  1.00  0.00     0.043 C 
HETATM   10  C13 UNL     1      31.551  50.745  -6.221  1.00  0.00     0.289 C 
HETATM   11  N3  UNL     1      31.456  51.443  -4.895  1.00  0.00    -0.068 N 
ATOM     12  H31 UNL     1      30.521  51.374  -4.494  1.00  0.00     0.277 HD
ATOM     13  H32 UNL     1      31.502  52.457  -4.993  1.00  0.00     0.277 HD
HETATM   14  C14 UNL     1      32.456  50.947  -4.007  1.00  0.00     0.252 C 
HETATM   15  C15 UNL     1      32.281  49.463  -3.723  1.00  0.00     0.147 C 
HETATM   16  N4  UNL     1      31.116  49.044  -4.532  1.00  0.00    -0.389 N 
ATOM     17  H4  UNL     1      30.240  48.662  -4.175  1.00  0.00     0.159 HD
ENDROOT
BRANCH   1  18
HETATM   18  C5  UNL     1      29.816  46.927  -5.311  1.00  0.00     0.023 C 
HETATM   19  C4  UNL     1      28.579  47.237  -4.904  1.00  0.00     0.083 C 
BRANCH  19  20
HETATM   20  C3  UNL     1      28.126  46.944  -3.529  1.00  0.00     0.282 C 
HETATM   21  O2  UNL     1      27.807  45.783  -3.213  1.00  0.00    -0.260 OA
BRANCH  20  22
HETATM   22  O1  UNL     1      28.052  47.940  -2.573  1.00  0.00    -0.319 OA
BRANCH  22  23
HETATM   23  C2  UNL     1      26.776  48.311  -2.070  1.00  0.00     0.174 C 
HETATM   24  C1  UNL     1      26.196  49.495  -2.777  1.00  0.00     0.034 C 
ENDBRANCH  22  23
ENDBRANCH  20  22
ENDBRANCH  19  20
ENDBRANCH   1  18
BRANCH   2  25
HETATM   25  O3  UNL     1      29.167  45.167  -7.437  1.00  0.00    -0.345 OA
ATOM     26  H3  UNL     1      29.427  44.521  -6.791  1.00  0.00     0.219 HD
ENDBRANCH   2  25
BRANCH   5  27
HETATM   27  N2  UNL     1      31.073  47.903 -10.509  1.00  0.00    -0.385 N 
ATOM     28  H22 UNL     1      30.364  47.717 -11.219  1.00  0.00     0.157 HD
ATOM     29  H21 UNL     1      31.992  48.273 -10.752  1.00  0.00     0.157 HD
ENDBRANCH   5  27
TORSDOF 6
ENDMDL
