MODEL 1
REMARK VINA RESULT: -7.129374586      0.000      0.000
REMARK  2 active torsions:
REMARK  status: ('A' for Active; 'I' for Inactive)
REMARK    1  A    between atoms: C5_7  and  C6_8 
REMARK    2  A    between atoms: C6_8  and  N2_9 
ROOT
HETATM    1  C1  UNL     1      43.905  35.130  35.913  1.00  0.00     0.019 C 
HETATM    2  C2  UNL     1      43.558  34.595  34.887  1.00  0.00    -0.058 C 
HETATM    3  C3  UNL     1      43.157  33.941  33.673  1.00  0.00     0.110 A 
HETATM    4  N1  UNL     1      42.631  34.597  32.622  1.00  0.00    -0.357 N 
ATOM      5  H1  UNL     1      42.515  35.608  32.694  1.00  0.00     0.166 HD
HETATM    6  C4  UNL     1      42.253  33.994  31.484  1.00  0.00     0.097 A 
HETATM    7  C5  UNL     1      42.397  32.650  31.363  1.00  0.00    -0.016 A 
HETATM    8  C7  UNL     1      42.927  31.911  32.395  1.00  0.00     0.039 A 
HETATM    9  C8  UNL     1      43.305  32.566  33.548  1.00  0.00     0.082 A 
HETATM   10  N3  UNL     1      43.858  31.848  34.647  1.00  0.00    -0.099 NA
ENDROOT
BRANCH   7  11
HETATM   11  C6  UNL     1      41.989  31.965  30.123  1.00  0.00     0.269 C 
BRANCH  11  12
HETATM   12  N2  UNL     1      41.084  32.793  29.333  1.00  0.00    -0.075 N 
ATOM     13  H23 UNL     1      40.134  32.421  29.340  1.00  0.00     0.274 HD
ATOM     14  H22 UNL     1      40.904  33.689  29.785  1.00  0.00     0.274 HD
ATOM     15  H21 UNL     1      41.429  32.916  28.381  1.00  0.00     0.274 HD
ENDBRANCH  11  12
ENDBRANCH   7  11
TORSDOF 2
ENDMDL
MODEL 2
REMARK VINA RESULT: -6.205239949      1.487      4.366
REMARK  2 active torsions:
REMARK  status: ('A' for Active; 'I' for Inactive)
REMARK    1  A    between atoms: C5_7  and  C6_8 
REMARK    2  A    between atoms: C6_8  and  N2_9 
ROOT
HETATM    1  C1  UNL     1      41.644  32.202  29.543  1.00  0.00     0.019 C 
HETATM    2  C2  UNL     1      42.001  32.638  30.611  1.00  0.00    -0.058 C 
HETATM    3  C3  UNL     1      42.432  33.136  31.888  1.00  0.00     0.110 A 
HETATM    4  N1  UNL     1      42.091  34.350  32.357  1.00  0.00    -0.357 N 
ATOM      5  H1  UNL     1      41.498  34.942  31.776  1.00  0.00     0.166 HD
HETATM    6  C4  UNL     1      42.490  34.824  33.548  1.00  0.00     0.097 A 
HETATM    7  C5  UNL     1      43.281  34.056  34.339  1.00  0.00    -0.016 A 
HETATM    8  C7  UNL     1      43.671  32.803  33.927  1.00  0.00     0.039 A 
HETATM    9  C8  UNL     1      43.241  32.350  32.698  1.00  0.00     0.082 A 
HETATM   10  N3  UNL     1      43.617  31.061  32.223  1.00  0.00    -0.099 NA
ENDROOT
BRANCH   7  11
HETATM   11  C6  UNL     1      43.731  34.555  35.652  1.00  0.00     0.269 C 
BRANCH  11  12
HETATM   12  N2  UNL     1      44.038  35.980  35.601  1.00  0.00    -0.075 N 
ATOM     13  H23 UNL     1      43.623  36.424  34.783  1.00  0.00     0.274 HD
ATOM     14  H22 UNL     1      43.543  36.497  36.328  1.00  0.00     0.274 HD
ATOM     15  H21 UNL     1      45.044  36.145  35.644  1.00  0.00     0.274 HD
ENDBRANCH  11  12
ENDBRANCH   7  11
TORSDOF 2
ENDMDL
MODEL 3
REMARK VINA RESULT: -5.917861086      1.551      4.733
REMARK  2 active torsions:
REMARK  status: ('A' for Active; 'I' for Inactive)
REMARK    1  A    between atoms: C5_7  and  C6_8 
REMARK    2  A    between atoms: C6_8  and  N2_9 
ROOT
HETATM    1  C1  UNL     1      41.499  32.194  29.492  1.00  0.00     0.019 C 
HETATM    2  C2  UNL     1      41.959  32.514  30.561  1.00  0.00    -0.058 C 
HETATM    3  C3  UNL     1      42.496  32.913  31.832  1.00  0.00     0.110 A 
HETATM    4  N1  UNL     1      43.507  32.266  32.440  1.00  0.00    -0.357 N 
ATOM      5  H1  UNL     1      43.909  31.454  31.973  1.00  0.00     0.166 HD
HETATM    6  C4  UNL     1      44.015  32.632  33.628  1.00  0.00     0.097 A 
HETATM    7  C5  UNL     1      43.496  33.709  34.270  1.00  0.00    -0.016 A 
HETATM    8  C7  UNL     1      42.461  34.421  33.711  1.00  0.00     0.039 A 
HETATM    9  C8  UNL     1      41.966  34.016  32.489  1.00  0.00     0.082 A 
HETATM   10  N3  UNL     1      40.895  34.718  31.867  1.00  0.00    -0.099 NA
ENDROOT
BRANCH   7  11
HETATM   11  C6  UNL     1      44.037  34.131  35.575  1.00  0.00     0.269 C 
BRANCH  11  12
HETATM   12  N2  UNL     1      44.007  35.583  35.718  1.00  0.00    -0.075 N 
ATOM     13  H23 UNL     1      43.151  35.897  36.174  1.00  0.00     0.274 HD
ATOM     14  H22 UNL     1      44.682  35.905  36.412  1.00  0.00     0.274 HD
ATOM     15  H21 UNL     1      44.144  36.046  34.820  1.00  0.00     0.274 HD
ENDBRANCH  11  12
ENDBRANCH   7  11
TORSDOF 2
ENDMDL
MODEL 4
REMARK VINA RESULT: -4.734216314      0.901      2.074
REMARK  2 active torsions:
REMARK  status: ('A' for Active; 'I' for Inactive)
REMARK    1  A    between atoms: C5_7  and  C6_8 
REMARK    2  A    between atoms: C6_8  and  N2_9 
ROOT
HETATM    1  C1  UNL     1      43.644  34.804  35.545  1.00  0.00     0.019 C 
HETATM    2  C2  UNL     1      43.334  34.255  34.516  1.00  0.00    -0.058 C 
HETATM    3  C3  UNL     1      42.951  33.618  33.286  1.00  0.00     0.110 A 
HETATM    4  N1  UNL     1      43.295  32.355  32.973  1.00  0.00    -0.357 N 
ATOM      5  H1  UNL     1      43.854  31.828  33.643  1.00  0.00     0.166 HD
HETATM    6  C4  UNL     1      42.941  31.752  31.826  1.00  0.00     0.097 A 
HETATM    7  C5  UNL     1      42.198  32.433  30.918  1.00  0.00    -0.016 A 
HETATM    8  C7  UNL     1      41.809  33.729  31.168  1.00  0.00     0.039 A 
HETATM    9  C8  UNL     1      42.190  34.314  32.356  1.00  0.00     0.082 A 
HETATM   10  N3  UNL     1      41.813  35.653  32.664  1.00  0.00    -0.099 NA
ENDROOT
BRANCH   7  11
HETATM   11  C6  UNL     1      41.797  31.793  29.652  1.00  0.00     0.269 C 
BRANCH  11  12
HETATM   12  N2  UNL     1      40.803  32.593  28.944  1.00  0.00    -0.075 N 
ATOM     13  H23 UNL     1      40.736  32.325  27.963  1.00  0.00     0.274 HD
ATOM     14  H22 UNL     1      39.855  32.357  29.236  1.00  0.00     0.274 HD
ATOM     15  H21 UNL     1      40.988  33.590  29.046  1.00  0.00     0.274 HD
ENDBRANCH  11  12
ENDBRANCH   7  11
TORSDOF 2
ENDMDL
MODEL 5
REMARK VINA RESULT: -4.625113394      4.545      7.518
REMARK  2 active torsions:
REMARK  status: ('A' for Active; 'I' for Inactive)
REMARK    1  A    between atoms: C5_7  and  C6_8 
REMARK    2  A    between atoms: C6_8  and  N2_9 
ROOT
HETATM    1  C1  UNL     1      44.233  34.738  34.900  1.00  0.00     0.019 C 
HETATM    2  C2  UNL     1      43.850  35.118  35.980  1.00  0.00    -0.058 C 
HETATM    3  C3  UNL     1      43.410  35.556  37.276  1.00  0.00     0.110 A 
HETATM    4  N1  UNL     1      42.294  36.285  37.466  1.00  0.00    -0.357 N 
ATOM      5  H1  UNL     1      41.737  36.535  36.650  1.00  0.00     0.166 HD
HETATM    6  C4  UNL     1      41.875  36.699  38.673  1.00  0.00     0.097 A 
HETATM    7  C5  UNL     1      42.599  36.379  39.775  1.00  0.00    -0.016 A 
HETATM    8  C7  UNL     1      43.752  35.637  39.659  1.00  0.00     0.039 A 
HETATM    9  C8  UNL     1      44.150  35.229  38.404  1.00  0.00     0.082 A 
HETATM   10  N3  UNL     1      45.335  34.460  38.229  1.00  0.00    -0.099 NA
ENDROOT
BRANCH   7  11
HETATM   11  C6  UNL     1      42.160  36.822  41.111  1.00  0.00     0.269 C 
BRANCH  11  12
HETATM   12  N2  UNL     1      41.714  38.212  41.088  1.00  0.00    -0.075 N 
ATOM     13  H23 UNL     1      41.688  38.582  40.139  1.00  0.00     0.274 HD
ATOM     14  H22 UNL     1      40.722  38.291  41.314  1.00  0.00     0.274 HD
ATOM     15  H21 UNL     1      42.284  38.794  41.700  1.00  0.00     0.274 HD
ENDBRANCH  11  12
ENDBRANCH   7  11
TORSDOF 2
ENDMDL
