MODEL 1
REMARK VINA RESULT: -4.734235048      0.000      0.000
REMARK  3 active torsions:
REMARK  status: ('A' for Active; 'I' for Inactive)
REMARK    1  A    between atoms: N1_1  and  C1_4 
REMARK    2  A    between atoms: C2_7  and  C3_8 
REMARK    3  A    between atoms: C3_8  and  N3_9 
ROOT
HETATM    1  C1  UNL     1      42.661  33.651  32.348  1.00  0.00     0.142 A 
HETATM    2  N2  UNL     1      43.093  34.609  33.172  1.00  0.00    -0.335 N 
ATOM      3  H2  UNL     1      43.022  35.591  32.904  1.00  0.00     0.168 HD
HETATM    4  C2  UNL     1      43.609  34.274  34.330  1.00  0.00     0.062 A 
HETATM    5  C4  UNL     1      43.659  32.909  34.600  1.00  0.00     0.084 A 
HETATM    6  S1  UNL     1      42.976  32.226  33.202  1.00  0.00    -0.064 SA
ENDROOT
BRANCH   4   7
HETATM    7  C3  UNL     1      44.136  35.210  35.360  1.00  0.00     0.197 C 
BRANCH   7   8
HETATM    8  N3  UNL     1      43.872  35.213  36.588  1.00  0.00    -0.125 N 
HETATM    9  O1  UNL     1      42.791  35.799  37.139  1.00  0.00    -0.532 OA
HETATM   10  O2  UNL     1      44.760  34.562  37.471  1.00  0.00    -0.532 OA
ENDBRANCH   7   8
ENDBRANCH   4   7
BRANCH   1  11
HETATM   11  N1  UNL     1      42.118  33.825  31.155  1.00  0.00    -0.380 N 
ATOM     12  H12 UNL     1      41.506  34.567  30.815  1.00  0.00     0.158 HD
ATOM     13  H11 UNL     1      42.231  33.219  30.343  1.00  0.00     0.158 HD
ENDBRANCH   1  11
TORSDOF 3
ENDMDL
MODEL 2
REMARK VINA RESULT: -4.731124116      0.030      1.051
REMARK  3 active torsions:
REMARK  status: ('A' for Active; 'I' for Inactive)
REMARK    1  A    between atoms: N1_1  and  C1_4 
REMARK    2  A    between atoms: C2_7  and  C3_8 
REMARK    3  A    between atoms: C3_8  and  N3_9 
ROOT
HETATM    1  C1  UNL     1      42.650  33.651  32.360  1.00  0.00     0.142 A 
HETATM    2  N2  UNL     1      43.080  34.611  33.182  1.00  0.00    -0.335 N 
ATOM      3  H2  UNL     1      43.002  35.593  32.915  1.00  0.00     0.168 HD
HETATM    4  C2  UNL     1      43.604  34.278  34.338  1.00  0.00     0.062 A 
HETATM    5  C4  UNL     1      43.663  32.914  34.607  1.00  0.00     0.084 A 
HETATM    6  S1  UNL     1      42.978  32.228  33.211  1.00  0.00    -0.064 SA
ENDROOT
BRANCH   4   7
HETATM    7  C3  UNL     1      44.130  35.217  35.365  1.00  0.00     0.197 C 
BRANCH   7   8
HETATM    8  N3  UNL     1      43.942  35.167  36.606  1.00  0.00    -0.125 N 
HETATM    9  O1  UNL     1      44.761  34.551  37.481  1.00  0.00    -0.532 OA
HETATM   10  O2  UNL     1      42.797  35.793  37.142  1.00  0.00    -0.532 OA
ENDBRANCH   7   8
ENDBRANCH   4   7
BRANCH   1  11
HETATM   11  N1  UNL     1      42.102  33.822  31.169  1.00  0.00    -0.380 N 
ATOM     12  H12 UNL     1      42.513  33.735  30.239  1.00  0.00     0.158 HD
ATOM     13  H11 UNL     1      41.134  34.080  30.978  1.00  0.00     0.158 HD
ENDBRANCH   1  11
TORSDOF 3
ENDMDL
MODEL 3
REMARK VINA RESULT: -4.534194318      3.521      4.147
REMARK  3 active torsions:
REMARK  status: ('A' for Active; 'I' for Inactive)
REMARK    1  A    between atoms: N1_1  and  C1_4 
REMARK    2  A    between atoms: C2_7  and  C3_8 
REMARK    3  A    between atoms: C3_8  and  N3_9 
ROOT
HETATM    1  C1  UNL     1      41.622  32.871  30.239  1.00  0.00     0.142 A 
HETATM    2  N2  UNL     1      42.414  31.983  30.845  1.00  0.00    -0.335 N 
ATOM      3  H2  UNL     1      42.645  31.100  30.388  1.00  0.00     0.168 HD
HETATM    4  C2  UNL     1      42.893  32.258  32.035  1.00  0.00     0.062 A 
HETATM    5  C4  UNL     1      42.520  33.488  32.569  1.00  0.00     0.084 A 
HETATM    6  S1  UNL     1      41.531  34.141  31.351  1.00  0.00    -0.064 SA
ENDROOT
BRANCH   4   7
HETATM    7  C3  UNL     1      43.784  31.384  32.845  1.00  0.00     0.197 C 
BRANCH   7   8
HETATM    8  N3  UNL     1      43.462  30.683  33.836  1.00  0.00    -0.125 N 
HETATM    9  O1  UNL     1      43.623  31.053  35.122  1.00  0.00    -0.532 OA
HETATM   10  O2  UNL     1      42.889  29.414  33.608  1.00  0.00    -0.532 OA
ENDBRANCH   7   8
ENDBRANCH   4   7
BRANCH   1  11
HETATM   11  N1  UNL     1      41.064  32.743  29.047  1.00  0.00    -0.380 N 
ATOM     12  H12 UNL     1      40.955  31.915  28.460  1.00  0.00     0.158 HD
ATOM     13  H11 UNL     1      40.632  33.484  28.497  1.00  0.00     0.158 HD
ENDBRANCH   1  11
TORSDOF 3
ENDMDL
MODEL 4
REMARK VINA RESULT: -4.341202395      1.626      1.870
REMARK  3 active torsions:
REMARK  status: ('A' for Active; 'I' for Inactive)
REMARK    1  A    between atoms: N1_1  and  C1_4 
REMARK    2  A    between atoms: C2_7  and  C3_8 
REMARK    3  A    between atoms: C3_8  and  N3_9 
ROOT
HETATM    1  C1  UNL     1      43.205  31.985  33.721  1.00  0.00     0.142 A 
HETATM    2  N2  UNL     1      43.631  32.831  34.662  1.00  0.00    -0.335 N 
ATOM      3  H2  UNL     1      44.035  32.477  35.529  1.00  0.00     0.168 HD
HETATM    4  C2  UNL     1      43.525  34.123  34.457  1.00  0.00     0.062 A 
HETATM    5  C4  UNL     1      42.962  34.500  33.242  1.00  0.00     0.084 A 
HETATM    6  S1  UNL     1      42.634  33.006  32.501  1.00  0.00    -0.064 SA
ENDROOT
BRANCH   4   7
HETATM    7  C3  UNL     1      43.948  35.196  35.397  1.00  0.00     0.197 C 
BRANCH   7   8
HETATM    8  N3  UNL     1      43.813  35.208  36.646  1.00  0.00    -0.125 N 
HETATM    9  O1  UNL     1      42.868  35.902  37.309  1.00  0.00    -0.532 OA
HETATM   10  O2  UNL     1      44.707  34.446  37.428  1.00  0.00    -0.532 OA
ENDBRANCH   7   8
ENDBRANCH   4   7
BRANCH   1  11
HETATM   11  N1  UNL     1      43.242  30.664  33.775  1.00  0.00    -0.380 N 
ATOM     12  H12 UNL     1      42.595  30.007  34.212  1.00  0.00     0.158 HD
ATOM     13  H11 UNL     1      43.957  30.060  33.370  1.00  0.00     0.158 HD
ENDBRANCH   1  11
TORSDOF 3
ENDMDL
MODEL 5
REMARK VINA RESULT: -4.340869006      1.319      1.352
REMARK  3 active torsions:
REMARK  status: ('A' for Active; 'I' for Inactive)
REMARK    1  A    between atoms: N1_1  and  C1_4 
REMARK    2  A    between atoms: C2_7  and  C3_8 
REMARK    3  A    between atoms: C3_8  and  N3_9 
ROOT
HETATM    1  C1  UNL     1      42.426  32.966  31.802  1.00  0.00     0.142 A 
HETATM    2  N2  UNL     1      42.380  33.907  32.748  1.00  0.00    -0.335 N 
ATOM      3  H2  UNL     1      42.003  34.832  32.538  1.00  0.00     0.168 HD
HETATM    4  C2  UNL     1      42.825  33.630  33.950  1.00  0.00     0.062 A 
HETATM    5  C4  UNL     1      43.318  32.341  34.132  1.00  0.00     0.084 A 
HETATM    6  S1  UNL     1      43.110  31.641  32.598  1.00  0.00    -0.064 SA
ENDROOT
BRANCH   4   7
HETATM    7  C3  UNL     1      42.847  34.558  35.113  1.00  0.00     0.197 C 
BRANCH   7   8
HETATM    8  N3  UNL     1      43.843  35.165  35.581  1.00  0.00    -0.125 N 
HETATM    9  O1  UNL     1      43.938  35.622  36.844  1.00  0.00    -0.532 OA
HETATM   10  O2  UNL     1      44.952  35.393  34.738  1.00  0.00    -0.532 OA
ENDBRANCH   7   8
ENDBRANCH   4   7
BRANCH   1  11
HETATM   11  N1  UNL     1      42.019  33.089  30.549  1.00  0.00    -0.380 N 
ATOM     12  H12 UNL     1      42.010  33.907  29.940  1.00  0.00     0.158 HD
ATOM     13  H11 UNL     1      41.632  32.350  29.962  1.00  0.00     0.158 HD
ENDBRANCH   1  11
TORSDOF 3
ENDMDL
