MODEL 1
REMARK VINA RESULT: -5.301096166      0.000      0.000
REMARK  4 active torsions:
REMARK  status: ('A' for Active; 'I' for Inactive)
REMARK    1  A    between atoms: O1_1  and  C1_3 
REMARK    2  A    between atoms: C1_3  and  C2_4 
REMARK    3  A    between atoms: C3_6  and  C4_7 
REMARK    4  A    between atoms: C7_10  and  O3_11 
ROOT
HETATM    1  C2  UNL     1      42.124  33.255  30.357  1.00  0.00     0.175 A 
HETATM    2  O2  UNL     1      41.235  33.724  31.487  1.00  0.00    -0.372 OA
HETATM    3  C3  UNL     1      42.623  33.257  31.666  1.00  0.00     0.163 A 
ENDROOT
BRANCH   3   4
HETATM    4  C4  UNL     1      42.667  32.144  32.670  1.00  0.00     0.072 A 
HETATM    5  C5  UNL     1      43.942  31.851  33.279  1.00  0.00    -0.018 A 
HETATM    6  C6  UNL     1      43.536  32.110  34.462  1.00  0.00     0.002 A 
HETATM    7  C7  UNL     1      42.194  32.443  34.030  1.00  0.00     0.150 A 
BRANCH   7   8
HETATM    8  O3  UNL     1      41.937  33.805  34.295  1.00  0.00    -0.391 OA
ATOM      9  H3  UNL     1      41.096  33.990  34.696  1.00  0.00     0.210 HD
ENDBRANCH   7   8
ENDBRANCH   3   4
BRANCH   1  10
HETATM   10  C1  UNL     1      41.421  32.199  29.583  1.00  0.00     0.198 C 
BRANCH  10  11
HETATM   11  O1  UNL     1      40.409  32.614  28.758  1.00  0.00    -0.398 OA
ATOM     12  H1  UNL     1      40.396  32.247  27.882  1.00  0.00     0.209 HD
ENDBRANCH  10  11
ENDBRANCH   1  10
TORSDOF 4
ENDMDL
MODEL 2
REMARK VINA RESULT: -5.223914825      2.404      4.776
REMARK  4 active torsions:
REMARK  status: ('A' for Active; 'I' for Inactive)
REMARK    1  A    between atoms: O1_1  and  C1_3 
REMARK    2  A    between atoms: C1_3  and  C2_4 
REMARK    3  A    between atoms: C3_6  and  C4_7 
REMARK    4  A    between atoms: C7_10  and  O3_11 
ROOT
HETATM    1  C2  UNL     1      44.140  34.511  34.807  1.00  0.00     0.175 A 
HETATM    2  O2  UNL     1      44.079  33.007  34.958  1.00  0.00    -0.372 OA
HETATM    3  C3  UNL     1      43.921  33.717  33.675  1.00  0.00     0.163 A 
ENDROOT
BRANCH   3   4
HETATM    4  C4  UNL     1      42.629  33.322  33.024  1.00  0.00     0.072 A 
HETATM    5  C5  UNL     1      42.369  33.837  31.701  1.00  0.00    -0.018 A 
HETATM    6  C6  UNL     1      42.310  32.678  31.166  1.00  0.00     0.002 A 
HETATM    7  C7  UNL     1      42.562  31.986  32.413  1.00  0.00     0.150 A 
BRANCH   7   8
HETATM    8  O3  UNL     1      43.790  31.296  32.330  1.00  0.00    -0.391 OA
ATOM      9  H3  UNL     1      43.787  30.523  31.778  1.00  0.00     0.210 HD
ENDBRANCH   7   8
ENDBRANCH   3   4
BRANCH   1  10
HETATM   10  C1  UNL     1      43.186  35.141  35.757  1.00  0.00     0.198 C 
BRANCH  10  11
HETATM   11  O1  UNL     1      43.655  35.403  37.016  1.00  0.00    -0.398 OA
ATOM     12  H1  UNL     1      44.189  36.182  37.118  1.00  0.00     0.209 HD
ENDBRANCH  10  11
ENDBRANCH   1  10
TORSDOF 4
ENDMDL
MODEL 3
REMARK VINA RESULT: -5.222777544      1.437      1.620
REMARK  4 active torsions:
REMARK  status: ('A' for Active; 'I' for Inactive)
REMARK    1  A    between atoms: O1_1  and  C1_3 
REMARK    2  A    between atoms: C1_3  and  C2_4 
REMARK    3  A    between atoms: C3_6  and  C4_7 
REMARK    4  A    between atoms: C7_10  and  O3_11 
ROOT
HETATM    1  C2  UNL     1      42.236  33.969  31.232  1.00  0.00     0.175 A 
HETATM    2  O2  UNL     1      40.990  34.407  31.971  1.00  0.00    -0.372 OA
HETATM    3  C3  UNL     1      42.352  34.464  32.537  1.00  0.00     0.163 A 
ENDROOT
BRANCH   3   4
HETATM    4  C4  UNL     1      42.400  33.719  33.838  1.00  0.00     0.072 A 
HETATM    5  C5  UNL     1      42.992  32.403  33.826  1.00  0.00    -0.018 A 
HETATM    6  C6  UNL     1      43.917  32.717  34.650  1.00  0.00     0.002 A 
HETATM    7  C7  UNL     1      43.462  34.085  34.787  1.00  0.00     0.150 A 
BRANCH   7   8
HETATM    8  O3  UNL     1      44.446  34.962  34.284  1.00  0.00    -0.391 OA
ATOM      9  H3  UNL     1      44.707  35.661  34.872  1.00  0.00     0.210 HD
ENDBRANCH   7   8
ENDBRANCH   3   4
BRANCH   1  10
HETATM   10  C1  UNL     1      42.048  32.585  30.727  1.00  0.00     0.198 C 
BRANCH  10  11
HETATM   11  O1  UNL     1      41.372  32.449  29.544  1.00  0.00    -0.398 OA
ATOM     12  H1  UNL     1      41.899  32.408  28.754  1.00  0.00     0.209 HD
ENDBRANCH  10  11
ENDBRANCH   1  10
TORSDOF 4
ENDMDL
MODEL 4
REMARK VINA RESULT: -5.009574665      1.794      3.804
REMARK  4 active torsions:
REMARK  status: ('A' for Active; 'I' for Inactive)
REMARK    1  A    between atoms: O1_1  and  C1_3 
REMARK    2  A    between atoms: C1_3  and  C2_4 
REMARK    3  A    between atoms: C3_6  and  C4_7 
REMARK    4  A    between atoms: C7_10  and  O3_11 
ROOT
HETATM    1  C2  UNL     1      42.772  31.762  34.329  1.00  0.00     0.175 A 
HETATM    2  O2  UNL     1      43.725  32.927  34.488  1.00  0.00    -0.372 OA
HETATM    3  C3  UNL     1      42.512  32.958  33.648  1.00  0.00     0.163 A 
ENDROOT
BRANCH   3   4
HETATM    4  C4  UNL     1      42.867  33.353  32.246  1.00  0.00     0.072 A 
HETATM    5  C5  UNL     1      42.482  32.452  31.186  1.00  0.00    -0.018 A 
HETATM    6  C6  UNL     1      41.732  33.312  30.609  1.00  0.00     0.002 A 
HETATM    7  C7  UNL     1      42.006  34.346  31.586  1.00  0.00     0.150 A 
BRANCH   7   8
HETATM    8  O3  UNL     1      40.818  34.670  32.275  1.00  0.00    -0.391 OA
ATOM      9  H3  UNL     1      40.033  34.698  31.742  1.00  0.00     0.210 HD
ENDBRANCH   7   8
ENDBRANCH   3   4
BRANCH   1  10
HETATM   10  C1  UNL     1      43.535  30.554  33.921  1.00  0.00     0.198 C 
BRANCH  10  11
HETATM   11  O1  UNL     1      42.813  29.528  33.372  1.00  0.00    -0.398 OA
ATOM     12  H1  UNL     1      42.280  29.015  33.968  1.00  0.00     0.209 HD
ENDBRANCH  10  11
ENDBRANCH   1  10
TORSDOF 4
ENDMDL
MODEL 5
REMARK VINA RESULT: -4.892824381      2.560      4.547
REMARK  4 active torsions:
REMARK  status: ('A' for Active; 'I' for Inactive)
REMARK    1  A    between atoms: O1_1  and  C1_3 
REMARK    2  A    between atoms: C1_3  and  C2_4 
REMARK    3  A    between atoms: C3_6  and  C4_7 
REMARK    4  A    between atoms: C7_10  and  O3_11 
ROOT
HETATM    1  C2  UNL     1      43.279  34.776  34.599  1.00  0.00     0.175 A 
HETATM    2  O2  UNL     1      44.498  34.772  33.704  1.00  0.00    -0.372 OA
HETATM    3  C3  UNL     1      43.416  33.772  33.634  1.00  0.00     0.163 A 
ENDROOT
BRANCH   3   4
HETATM    4  C4  UNL     1      43.983  32.390  33.770  1.00  0.00     0.072 A 
HETATM    5  C5  UNL     1      43.235  31.442  34.561  1.00  0.00    -0.018 A 
HETATM    6  C6  UNL     1      43.059  30.635  33.585  1.00  0.00     0.002 A 
HETATM    7  C7  UNL     1      43.784  31.464  32.644  1.00  0.00     0.150 A 
BRANCH   7   8
HETATM    8  O3  UNL     1      42.903  31.916  31.639  1.00  0.00    -0.391 OA
ATOM      9  H3  UNL     1      43.286  32.500  30.995  1.00  0.00     0.210 HD
ENDBRANCH   7   8
ENDBRANCH   3   4
BRANCH   1  10
HETATM   10  C1  UNL     1      43.711  34.829  36.020  1.00  0.00     0.198 C 
BRANCH  10  11
HETATM   11  O1  UNL     1      43.731  36.064  36.611  1.00  0.00    -0.398 OA
ATOM     12  H1  UNL     1      42.889  36.480  36.758  1.00  0.00     0.209 HD
ENDBRANCH  10  11
ENDBRANCH   1  10
TORSDOF 4
ENDMDL
