MODEL 1
REMARK VINA RESULT: -5.951909243      0.000      0.000
REMARK  2 active torsions:
REMARK  status: ('A' for Active; 'I' for Inactive)
REMARK    1  A    between atoms: C2_3  and  C3_4 
REMARK    2  A    between atoms: C6_10  and  N3_11 
ROOT
HETATM    1  N1  UNL     1      43.311  35.716  37.188  1.00  0.00    -0.197 NA
HETATM    2  C1  UNL     1      43.926  35.557  36.218  1.00  0.00     0.065 C 
HETATM    3  C2  UNL     1      44.711  35.340  35.002  1.00  0.00     0.181 C 
ENDROOT
BRANCH   3   4
HETATM    4  C3  UNL     1      44.030  34.270  34.219  1.00  0.00     0.044 A 
HETATM    5  C4  UNL     1      44.110  32.973  34.668  1.00  0.00     0.101 A 
HETATM    6  C5  UNL     1      43.484  31.978  33.949  1.00  0.00     0.261 A 
HETATM    7  O1  UNL     1      43.568  30.787  34.380  1.00  0.00    -0.268 OA
HETATM    8  N2  UNL     1      42.800  32.238  32.827  1.00  0.00    -0.156 N 
HETATM    9  C6  UNL     1      42.747  33.532  32.420  1.00  0.00     0.678 A 
ATOM     10  H2  UNL     1      42.338  31.496  32.301  1.00  0.00     0.187 HD
HETATM   11  N4  UNL     1      43.347  34.526  33.099  1.00  0.00    -0.195 N 
ATOM     12  H4  UNL     1      43.280  35.484  32.755  1.00  0.00     0.184 HD
BRANCH   9  13
HETATM   13  N3  UNL     1      42.095  33.772  31.353  1.00  0.00    -0.234 N 
ATOM     14  H32 UNL     1      41.253  33.244  31.125  1.00  0.00     0.174 HD
ATOM     15  H31 UNL     1      42.458  34.510  30.749  1.00  0.00     0.174 HD
ENDBRANCH   9  13
ENDBRANCH   3   4
TORSDOF 2
ENDMDL
MODEL 2
REMARK VINA RESULT: -5.822408945      2.468      4.437
REMARK  2 active torsions:
REMARK  status: ('A' for Active; 'I' for Inactive)
REMARK    1  A    between atoms: C2_3  and  C3_4 
REMARK    2  A    between atoms: C6_10  and  N3_11 
ROOT
HETATM    1  N1  UNL     1      41.483  31.917  29.373  1.00  0.00    -0.197 NA
HETATM    2  C1  UNL     1      41.863  32.720  30.118  1.00  0.00     0.065 C 
HETATM    3  C2  UNL     1      42.326  33.733  31.068  1.00  0.00     0.181 C 
ENDROOT
BRANCH   3   4
HETATM    4  C3  UNL     1      42.806  33.016  32.283  1.00  0.00     0.044 A 
HETATM    5  C4  UNL     1      43.292  33.756  33.335  1.00  0.00     0.101 A 
HETATM    6  C5  UNL     1      43.739  33.100  34.462  1.00  0.00     0.261 A 
HETATM    7  O1  UNL     1      44.183  33.801  35.423  1.00  0.00    -0.268 OA
HETATM    8  N2  UNL     1      43.712  31.765  34.562  1.00  0.00    -0.156 N 
HETATM    9  C6  UNL     1      43.224  31.075  33.500  1.00  0.00     0.678 A 
ATOM     10  H2  UNL     1      44.043  31.287  35.400  1.00  0.00     0.187 HD
HETATM   11  N4  UNL     1      42.781  31.684  32.386  1.00  0.00    -0.195 N 
ATOM     12  H4  UNL     1      42.422  31.124  31.613  1.00  0.00     0.184 HD
BRANCH   9  13
HETATM   13  N3  UNL     1      43.201  29.805  33.602  1.00  0.00    -0.234 N 
ATOM     14  H32 UNL     1      44.019  29.247  33.357  1.00  0.00     0.174 HD
ATOM     15  H31 UNL     1      42.333  29.387  33.937  1.00  0.00     0.174 HD
ENDBRANCH   9  13
ENDBRANCH   3   4
TORSDOF 2
ENDMDL
MODEL 3
REMARK VINA RESULT: -5.810145703      3.180      4.202
REMARK  2 active torsions:
REMARK  status: ('A' for Active; 'I' for Inactive)
REMARK    1  A    between atoms: C2_3  and  C3_4 
REMARK    2  A    between atoms: C6_10  and  N3_11 
ROOT
HETATM    1  N1  UNL     1      42.773  28.757  33.626  1.00  0.00    -0.197 NA
HETATM    2  C1  UNL     1      43.197  29.824  33.791  1.00  0.00     0.065 C 
HETATM    3  C2  UNL     1      43.745  31.167  33.984  1.00  0.00     0.181 C 
ENDROOT
BRANCH   3   4
HETATM    4  C3  UNL     1      43.175  32.038  32.918  1.00  0.00     0.044 A 
HETATM    5  C4  UNL     1      43.062  33.387  33.160  1.00  0.00     0.101 A 
HETATM    6  C5  UNL     1      42.535  34.198  32.179  1.00  0.00     0.261 A 
HETATM    7  O1  UNL     1      42.439  35.441  32.421  1.00  0.00    -0.268 OA
HETATM    8  N2  UNL     1      42.131  33.712  30.998  1.00  0.00    -0.156 N 
HETATM    9  C6  UNL     1      42.261  32.376  30.802  1.00  0.00     0.678 A 
ATOM     10  H2  UNL     1      41.743  34.320  30.276  1.00  0.00     0.187 HD
HETATM   11  N4  UNL     1      42.771  31.556  31.739  1.00  0.00    -0.195 N 
ATOM     12  H4  UNL     1      42.850  30.558  31.547  1.00  0.00     0.184 HD
BRANCH   9  13
HETATM   13  N3  UNL     1      41.875  31.920  29.677  1.00  0.00    -0.234 N 
ATOM     14  H32 UNL     1      40.909  32.033  29.371  1.00  0.00     0.174 HD
ATOM     15  H31 UNL     1      42.576  31.443  29.110  1.00  0.00     0.174 HD
ENDBRANCH   9  13
ENDBRANCH   3   4
TORSDOF 2
ENDMDL
MODEL 4
REMARK VINA RESULT: -5.602911443      1.529      4.060
REMARK  2 active torsions:
REMARK  status: ('A' for Active; 'I' for Inactive)
REMARK    1  A    between atoms: C2_3  and  C3_4 
REMARK    2  A    between atoms: C6_10  and  N3_11 
ROOT
HETATM    1  N1  UNL     1      42.058  31.652  30.006  1.00  0.00    -0.197 NA
HETATM    2  C1  UNL     1      42.068  32.653  30.593  1.00  0.00     0.065 C 
HETATM    3  C2  UNL     1      42.065  33.908  31.345  1.00  0.00     0.181 C 
ENDROOT
BRANCH   3   4
HETATM    4  C3  UNL     1      42.809  33.669  32.613  1.00  0.00     0.044 A 
HETATM    5  C4  UNL     1      42.995  32.372  33.033  1.00  0.00     0.101 A 
HETATM    6  C5  UNL     1      43.682  32.143  34.205  1.00  0.00     0.261 A 
HETATM    7  O1  UNL     1      43.844  30.939  34.575  1.00  0.00    -0.268 OA
HETATM    8  N2  UNL     1      44.173  33.144  34.947  1.00  0.00    -0.156 N 
HETATM    9  C6  UNL     1      43.966  34.407  34.495  1.00  0.00     0.678 A 
ATOM     10  H2  UNL     1      44.681  32.966  35.813  1.00  0.00     0.187 HD
HETATM   11  N4  UNL     1      43.300  34.665  33.356  1.00  0.00    -0.195 N 
ATOM     12  H4  UNL     1      43.169  35.631  33.055  1.00  0.00     0.184 HD
BRANCH   9  13
HETATM   13  N3  UNL     1      44.436  35.355  35.205  1.00  0.00    -0.234 N 
ATOM     14  H32 UNL     1      45.257  35.210  35.793  1.00  0.00     0.174 HD
ATOM     15  H31 UNL     1      43.953  36.252  35.153  1.00  0.00     0.174 HD
ENDBRANCH   9  13
ENDBRANCH   3   4
TORSDOF 2
ENDMDL
MODEL 5
REMARK VINA RESULT: -5.360487036      2.104      2.748
REMARK  2 active torsions:
REMARK  status: ('A' for Active; 'I' for Inactive)
REMARK    1  A    between atoms: C2_3  and  C3_4 
REMARK    2  A    between atoms: C6_10  and  N3_11 
ROOT
HETATM    1  N1  UNL     1      44.608  34.555  36.249  1.00  0.00    -0.197 NA
HETATM    2  C1  UNL     1      43.924  34.772  35.339  1.00  0.00     0.065 C 
HETATM    3  C2  UNL     1      43.077  35.048  34.177  1.00  0.00     0.181 C 
ENDROOT
BRANCH   3   4
HETATM    4  C3  UNL     1      42.995  33.793  33.378  1.00  0.00     0.044 A 
HETATM    5  C4  UNL     1      42.558  33.869  32.076  1.00  0.00     0.101 A 
HETATM    6  C5  UNL     1      42.479  32.713  31.331  1.00  0.00     0.261 A 
HETATM    7  O1  UNL     1      42.074  32.804  30.131  1.00  0.00    -0.268 OA
HETATM    8  N2  UNL     1      42.816  31.519  31.837  1.00  0.00    -0.156 N 
HETATM    9  C6  UNL     1      43.241  31.491  33.125  1.00  0.00     0.678 A 
ATOM     10  H2  UNL     1      42.755  30.668  31.278  1.00  0.00     0.187 HD
HETATM   11  N4  UNL     1      43.329  32.601  33.879  1.00  0.00    -0.195 N 
ATOM     12  H4  UNL     1      43.655  32.531  34.844  1.00  0.00     0.184 HD
BRANCH   9  13
HETATM   13  N3  UNL     1      43.560  30.353  33.600  1.00  0.00    -0.234 N 
ATOM     14  H32 UNL     1      44.534  30.123  33.795  1.00  0.00     0.174 HD
ATOM     15  H31 UNL     1      42.798  29.696  33.770  1.00  0.00     0.174 HD
ENDBRANCH   9  13
ENDBRANCH   3   4
TORSDOF 2
ENDMDL
