MODEL 1
REMARK VINA RESULT: -4.774388015      0.000      0.000
REMARK  2 active torsions:
REMARK  status: ('A' for Active; 'I' for Inactive)
REMARK       I    between atoms: N1_2  and  C2_4 
REMARK    1  A    between atoms: N3_6  and  O1_8 
REMARK    2  A    between atoms: O1_8  and  C3_9 
ROOT
HETATM    1  C3  UNL     1      44.170  36.232  37.037  1.00  0.00     0.169 C 
HETATM    2  C4  UNL     1      42.847  35.844  37.734  1.00  0.00     0.065 C 
HETATM    3  C5  UNL     1      44.366  37.714  37.085  1.00  0.00     0.065 C 
HETATM    4  C6  UNL     1      45.243  35.544  37.795  1.00  0.00     0.099 C 
HETATM    5  N4  UNL     1      46.068  34.996  38.406  1.00  0.00    -0.194 NA
ENDROOT
BRANCH   1   6
HETATM    6  O1  UNL     1      44.140  35.803  35.717  1.00  0.00    -0.252 OA
BRANCH   6   7
HETATM    7  N3  UNL     1      43.715  34.675  35.224  1.00  0.00    -0.237 N 
HETATM    8  C2  UNL     1      43.263  34.184  34.179  1.00  0.00     0.207 C 
HETATM    9  N1  UNL     1      42.937  32.771  34.209  1.00  0.00    -0.367 N 
HETATM   10  N2  UNL     1      43.005  34.790  32.929  1.00  0.00    -0.062 NA
HETATM   11  C1  UNL     1      43.940  31.775  34.540  1.00  0.00     0.148 C 
ATOM     12  H1  UNL     1      41.986  32.471  33.993  1.00  0.00     0.161 HD
ATOM     13  H3  UNL     1      43.773  33.950  35.939  1.00  0.00     0.197 HD
ENDBRANCH   6   7
ENDBRANCH   1   6
TORSDOF 2
ENDMDL
MODEL 2
REMARK VINA RESULT: -4.656690113      1.607      4.882
REMARK  2 active torsions:
REMARK  status: ('A' for Active; 'I' for Inactive)
REMARK       I    between atoms: N1_2  and  C2_4 
REMARK    1  A    between atoms: N3_6  and  O1_8 
REMARK    2  A    between atoms: O1_8  and  C3_9 
ROOT
HETATM    1  C3  UNL     1      43.211  33.714  33.739  1.00  0.00     0.169 C 
HETATM    2  C4  UNL     1      42.894  34.547  32.477  1.00  0.00     0.065 C 
HETATM    3  C5  UNL     1      41.964  33.480  34.532  1.00  0.00     0.065 C 
HETATM    4  C6  UNL     1      43.759  32.427  33.247  1.00  0.00     0.099 C 
HETATM    5  N4  UNL     1      44.186  31.425  32.838  1.00  0.00    -0.194 NA
ENDROOT
BRANCH   1   6
HETATM    6  O1  UNL     1      44.143  34.388  34.515  1.00  0.00    -0.252 OA
BRANCH   6   7
HETATM    7  N3  UNL     1      43.958  35.152  35.554  1.00  0.00    -0.237 N 
HETATM    8  C2  UNL     1      44.260  35.247  36.752  1.00  0.00     0.207 C 
HETATM    9  N1  UNL     1      43.729  36.389  37.472  1.00  0.00    -0.367 N 
HETATM   10  N2  UNL     1      45.058  34.403  37.557  1.00  0.00    -0.062 NA
HETATM   11  C1  UNL     1      44.004  37.747  37.035  1.00  0.00     0.148 C 
ATOM     12  H1  UNL     1      43.151  36.236  38.299  1.00  0.00     0.161 HD
ATOM     13  H3  UNL     1      43.364  35.938  35.293  1.00  0.00     0.197 HD
ENDBRANCH   6   7
ENDBRANCH   1   6
TORSDOF 2
ENDMDL
MODEL 3
REMARK VINA RESULT: -4.581799835      1.340      1.871
REMARK  2 active torsions:
REMARK  status: ('A' for Active; 'I' for Inactive)
REMARK       I    between atoms: N1_2  and  C2_4 
REMARK    1  A    between atoms: N3_6  and  O1_8 
REMARK    2  A    between atoms: O1_8  and  C3_9 
ROOT
HETATM    1  C3  UNL     1      44.075  36.265  37.069  1.00  0.00     0.169 C 
HETATM    2  C4  UNL     1      45.301  35.697  37.820  1.00  0.00     0.065 C 
HETATM    3  C5  UNL     1      42.810  35.816  37.727  1.00  0.00     0.065 C 
HETATM    4  C6  UNL     1      44.202  37.740  37.145  1.00  0.00     0.099 C 
HETATM    5  N4  UNL     1      44.322  38.896  37.219  1.00  0.00    -0.194 NA
ENDROOT
BRANCH   1   6
HETATM    6  O1  UNL     1      44.100  35.831  35.751  1.00  0.00    -0.252 OA
BRANCH   6   7
HETATM    7  N3  UNL     1      43.694  34.703  35.243  1.00  0.00    -0.237 N 
HETATM    8  C2  UNL     1      43.283  34.209  34.183  1.00  0.00     0.207 C 
HETATM    9  N1  UNL     1      42.956  32.796  34.203  1.00  0.00    -0.367 N 
HETATM   10  N2  UNL     1      43.075  34.812  32.922  1.00  0.00    -0.062 NA
HETATM   11  C1  UNL     1      43.945  31.801  34.576  1.00  0.00     0.148 C 
ATOM     12  H1  UNL     1      42.014  32.496  33.950  1.00  0.00     0.161 HD
ATOM     13  H3  UNL     1      43.724  33.979  35.962  1.00  0.00     0.197 HD
ENDBRANCH   6   7
ENDBRANCH   1   6
TORSDOF 2
ENDMDL
MODEL 4
REMARK VINA RESULT: -4.573140905      3.502      5.773
REMARK  2 active torsions:
REMARK  status: ('A' for Active; 'I' for Inactive)
REMARK       I    between atoms: N1_2  and  C2_4 
REMARK    1  A    between atoms: N3_6  and  O1_8 
REMARK    2  A    between atoms: O1_8  and  C3_9 
ROOT
HETATM    1  C3  UNL     1      44.261  36.342  37.605  1.00  0.00     0.169 C 
HETATM    2  C4  UNL     1      44.126  35.769  36.176  1.00  0.00     0.065 C 
HETATM    3  C5  UNL     1      42.982  36.159  38.360  1.00  0.00     0.065 C 
HETATM    4  C6  UNL     1      45.353  35.573  38.248  1.00  0.00     0.099 C 
HETATM    5  N4  UNL     1      46.213  34.955  38.732  1.00  0.00    -0.194 NA
ENDROOT
BRANCH   1   6
HETATM    6  O1  UNL     1      44.577  37.691  37.534  1.00  0.00    -0.252 OA
BRANCH   6   7
HETATM    7  N3  UNL     1      45.099  38.468  38.440  1.00  0.00    -0.237 N 
HETATM    8  C2  UNL     1      45.622  39.583  38.576  1.00  0.00     0.207 C 
HETATM    9  N1  UNL     1      46.046  39.948  39.914  1.00  0.00    -0.367 N 
HETATM   10  N2  UNL     1      45.882  40.586  37.616  1.00  0.00    -0.062 NA
HETATM   11  C1  UNL     1      45.104  39.978  41.019  1.00  0.00     0.148 C 
ATOM     12  H1  UNL     1      47.023  40.189  40.082  1.00  0.00     0.161 HD
ATOM     13  H3  UNL     1      45.066  37.999  39.346  1.00  0.00     0.197 HD
ENDBRANCH   6   7
ENDBRANCH   1   6
TORSDOF 2
ENDMDL
MODEL 5
REMARK VINA RESULT: -4.569818964      3.770      5.512
REMARK  2 active torsions:
REMARK  status: ('A' for Active; 'I' for Inactive)
REMARK       I    between atoms: N1_2  and  C2_4 
REMARK    1  A    between atoms: N3_6  and  O1_8 
REMARK    2  A    between atoms: O1_8  and  C3_9 
ROOT
HETATM    1  C3  UNL     1      43.803  36.435  37.891  1.00  0.00     0.169 C 
HETATM    2  C4  UNL     1      42.391  36.387  38.516  1.00  0.00     0.065 C 
HETATM    3  C5  UNL     1      43.820  35.697  36.590  1.00  0.00     0.065 C 
HETATM    4  C6  UNL     1      44.100  37.872  37.673  1.00  0.00     0.099 C 
HETATM    5  N4  UNL     1      44.310  39.005  37.511  1.00  0.00    -0.194 NA
ENDROOT
BRANCH   1   6
HETATM    6  O1  UNL     1      44.717  35.866  38.767  1.00  0.00    -0.252 OA
BRANCH   6   7
HETATM    7  N3  UNL     1      45.805  36.372  39.271  1.00  0.00    -0.237 N 
HETATM    8  C2  UNL     1      47.024  36.162  39.353  1.00  0.00     0.207 C 
HETATM    9  N1  UNL     1      47.807  37.133  40.094  1.00  0.00    -0.367 N 
HETATM   10  N2  UNL     1      47.799  35.103  38.830  1.00  0.00    -0.062 NA
HETATM   11  C1  UNL     1      47.820  38.534  39.715  1.00  0.00     0.148 C 
ATOM     12  H1  UNL     1      48.359  36.825  40.895  1.00  0.00     0.161 HD
ATOM     13  H3  UNL     1      45.579  37.234  39.768  1.00  0.00     0.197 HD
ENDBRANCH   6   7
ENDBRANCH   1   6
TORSDOF 2
ENDMDL
