MODEL 1
REMARK VINA RESULT: -5.714371170      0.000      0.000
REMARK  3 active torsions:
REMARK  status: ('A' for Active; 'I' for Inactive)
REMARK    1  A    between atoms: N1_1  and  N2_4 
REMARK       I    between atoms: N2_4  and  C1_6 
REMARK    2  A    between atoms: N4_8  and  N5_10 
REMARK    3  A    between atoms: C2_12  and  C3_13 
ROOT
HETATM    1  N2  UNL     1      42.298  32.768  33.869  1.00  0.00    -0.279 N 
ATOM      2  H2  UNL     1      41.354  32.860  34.245  1.00  0.00     0.189 HD
HETATM    3  C1  UNL     1      42.877  33.866  33.183  1.00  0.00     0.221 C 
HETATM    4  N3  UNL     1      42.712  34.025  31.775  1.00  0.00    -0.061 NA
HETATM    5  N4  UNL     1      43.569  34.741  33.826  1.00  0.00    -0.273 N 
ATOM      6  H4  UNL     1      43.985  35.528  33.328  1.00  0.00     0.189 HD
ENDROOT
BRANCH   5   7
HETATM    7  N5  UNL     1      43.748  34.617  35.190  1.00  0.00    -0.307 N 
HETATM    8  C2  UNL     1      44.229  35.549  35.939  1.00  0.00     0.144 C 
ATOM      9  H5  UNL     1      43.484  33.735  35.630  1.00  0.00     0.186 HD
BRANCH   8  10
HETATM   10  C3  UNL     1      44.381  35.321  37.370  1.00  0.00     0.091 A 
HETATM   11  C4  UNL     1      43.547  35.841  38.362  1.00  0.00     0.040 A 
HETATM   12  C5  UNL     1      44.041  35.383  39.564  1.00  0.00     0.027 A 
HETATM   13  C6  UNL     1      45.139  34.614  39.272  1.00  0.00     0.142 A 
HETATM   14  O1  UNL     1      45.302  34.604  37.971  1.00  0.00    -0.321 OA
ENDBRANCH   8  10
ENDBRANCH   5   7
BRANCH   1  15
HETATM   15  N1  UNL     1      42.974  31.580  34.044  1.00  0.00    -0.343 N 
ATOM     16  H12 UNL     1      43.994  31.604  34.043  1.00  0.00     0.176 HD
ATOM     17  H11 UNL     1      42.484  30.695  34.173  1.00  0.00     0.176 HD
ENDBRANCH   1  15
TORSDOF 3
ENDMDL
MODEL 2
REMARK VINA RESULT: -5.625612461      1.703      2.340
REMARK  3 active torsions:
REMARK  status: ('A' for Active; 'I' for Inactive)
REMARK    1  A    between atoms: N1_1  and  N2_4 
REMARK       I    between atoms: N2_4  and  C1_6 
REMARK    2  A    between atoms: N4_8  and  N5_10 
REMARK    3  A    between atoms: C2_12  and  C3_13 
ROOT
HETATM    1  N2  UNL     1      42.817  34.346  32.483  1.00  0.00    -0.279 N 
ATOM      2  H2  UNL     1      43.443  35.008  32.022  1.00  0.00     0.189 HD
HETATM    3  C1  UNL     1      43.371  33.223  33.149  1.00  0.00     0.221 C 
HETATM    4  N3  UNL     1      43.595  31.993  32.461  1.00  0.00    -0.061 NA
HETATM    5  N4  UNL     1      43.682  33.298  34.397  1.00  0.00    -0.273 N 
ATOM      6  H4  UNL     1      44.078  32.487  34.872  1.00  0.00     0.189 HD
ENDROOT
BRANCH   5   7
HETATM    7  N5  UNL     1      43.479  34.474  35.092  1.00  0.00    -0.307 N 
HETATM    8  C2  UNL     1      44.163  34.823  36.128  1.00  0.00     0.144 C 
ATOM      9  H5  UNL     1      42.745  35.103  34.767  1.00  0.00     0.186 HD
BRANCH   8  10
HETATM   10  C3  UNL     1      43.872  36.086  36.795  1.00  0.00     0.091 A 
HETATM   11  C4  UNL     1      43.026  36.240  37.895  1.00  0.00     0.040 A 
HETATM   12  C5  UNL     1      43.033  37.582  38.205  1.00  0.00     0.027 A 
HETATM   13  C6  UNL     1      43.868  38.191  37.302  1.00  0.00     0.142 A 
HETATM   14  O1  UNL     1      44.340  37.274  36.492  1.00  0.00    -0.321 OA
ENDBRANCH   8  10
ENDBRANCH   5   7
BRANCH   1  15
HETATM   15  N1  UNL     1      41.458  34.570  32.439  1.00  0.00    -0.343 N 
ATOM     16  H12 UNL     1      40.849  33.779  32.225  1.00  0.00     0.176 HD
ATOM     17  H11 UNL     1      41.058  35.491  32.612  1.00  0.00     0.176 HD
ENDBRANCH   1  15
TORSDOF 3
ENDMDL
MODEL 3
REMARK VINA RESULT: -5.452476790      1.183      1.459
REMARK  3 active torsions:
REMARK  status: ('A' for Active; 'I' for Inactive)
REMARK    1  A    between atoms: N1_1  and  N2_4 
REMARK       I    between atoms: N2_4  and  C1_6 
REMARK    2  A    between atoms: N4_8  and  N5_10 
REMARK    3  A    between atoms: C2_12  and  C3_13 
ROOT
HETATM    1  N2  UNL     1      42.519  32.035  33.842  1.00  0.00    -0.279 N 
ATOM      2  H2  UNL     1      41.583  31.813  34.181  1.00  0.00     0.189 HD
HETATM    3  C1  UNL     1      42.675  33.056  32.869  1.00  0.00     0.221 C 
HETATM    4  N3  UNL     1      42.621  32.762  31.475  1.00  0.00    -0.061 NA
HETATM    5  N4  UNL     1      42.871  34.276  33.236  1.00  0.00    -0.273 N 
ATOM      6  H4  UNL     1      42.985  35.006  32.533  1.00  0.00     0.189 HD
ENDROOT
BRANCH   5   7
HETATM    7  N5  UNL     1      42.929  34.595  34.578  1.00  0.00    -0.307 N 
HETATM    8  C2  UNL     1      43.987  35.039  35.166  1.00  0.00     0.144 C 
ATOM      9  H5  UNL     1      42.084  34.473  35.137  1.00  0.00     0.186 HD
BRANCH   8  10
HETATM   10  C3  UNL     1      43.947  35.348  36.590  1.00  0.00     0.091 A 
HETATM   11  C4  UNL     1      44.944  35.023  37.512  1.00  0.00     0.040 A 
HETATM   12  C5  UNL     1      44.511  35.493  38.732  1.00  0.00     0.027 A 
HETATM   13  C6  UNL     1      43.288  36.078  38.518  1.00  0.00     0.142 A 
HETATM   14  O1  UNL     1      42.996  35.971  37.245  1.00  0.00    -0.321 OA
ENDBRANCH   8  10
ENDBRANCH   5   7
BRANCH   1  15
HETATM   15  N1  UNL     1      43.595  31.335  34.341  1.00  0.00    -0.343 N 
ATOM     16  H12 UNL     1      43.543  30.996  35.302  1.00  0.00     0.176 HD
ATOM     17  H11 UNL     1      44.427  31.152  33.779  1.00  0.00     0.176 HD
ENDBRANCH   1  15
TORSDOF 3
ENDMDL
MODEL 4
REMARK VINA RESULT: -5.349267582      2.858      5.207
REMARK  3 active torsions:
REMARK  status: ('A' for Active; 'I' for Inactive)
REMARK    1  A    between atoms: N1_1  and  N2_4 
REMARK       I    between atoms: N2_4  and  C1_6 
REMARK    2  A    between atoms: N4_8  and  N5_10 
REMARK    3  A    between atoms: C2_12  and  C3_13 
ROOT
HETATM    1  N2  UNL     1      43.396  36.182  38.295  1.00  0.00    -0.279 N 
ATOM      2  H2  UNL     1      43.935  35.563  38.901  1.00  0.00     0.189 HD
HETATM    3  C1  UNL     1      44.082  37.010  37.370  1.00  0.00     0.221 C 
HETATM    4  N3  UNL     1      44.514  38.320  37.732  1.00  0.00    -0.061 NA
HETATM    5  N4  UNL     1      44.325  36.587  36.178  1.00  0.00    -0.273 N 
ATOM      6  H4  UNL     1      44.818  37.187  35.515  1.00  0.00     0.189 HD
ENDROOT
BRANCH   5   7
HETATM    7  N5  UNL     1      43.921  35.323  35.795  1.00  0.00    -0.307 N 
HETATM    8  C2  UNL     1      44.159  34.815  34.634  1.00  0.00     0.144 C 
ATOM      9  H5  UNL     1      43.405  34.759  36.470  1.00  0.00     0.186 HD
BRANCH   8  10
HETATM   10  C3  UNL     1      43.689  33.470  34.324  1.00  0.00     0.091 A 
HETATM   11  C4  UNL     1      42.706  33.157  33.383  1.00  0.00     0.040 A 
HETATM   12  C5  UNL     1      42.569  31.787  33.406  1.00  0.00     0.027 A 
HETATM   13  C6  UNL     1      43.456  31.318  34.343  1.00  0.00     0.142 A 
HETATM   14  O1  UNL     1      44.094  32.341  34.857  1.00  0.00    -0.321 OA
ENDBRANCH   8  10
ENDBRANCH   5   7
BRANCH   1  15
HETATM   15  N1  UNL     1      42.022  36.188  38.398  1.00  0.00    -0.343 N 
ATOM     16  H12 UNL     1      41.503  36.877  37.853  1.00  0.00     0.176 HD
ATOM     17  H11 UNL     1      41.524  35.530  38.997  1.00  0.00     0.176 HD
ENDBRANCH   1  15
TORSDOF 3
ENDMDL
MODEL 5
REMARK VINA RESULT: -5.294634305      1.805      2.132
REMARK  3 active torsions:
REMARK  status: ('A' for Active; 'I' for Inactive)
REMARK    1  A    between atoms: N1_1  and  N2_4 
REMARK       I    between atoms: N2_4  and  C1_6 
REMARK    2  A    between atoms: N4_8  and  N5_10 
REMARK    3  A    between atoms: C2_12  and  C3_13 
ROOT
HETATM    1  N2  UNL     1      41.850  33.792  33.445  1.00  0.00    -0.279 N 
ATOM      2  H2  UNL     1      41.505  34.528  32.828  1.00  0.00     0.189 HD
HETATM    3  C1  UNL     1      43.213  33.408  33.364  1.00  0.00     0.221 C 
HETATM    4  N3  UNL     1      43.637  32.376  32.475  1.00  0.00    -0.061 NA
HETATM    5  N4  UNL     1      44.095  33.990  34.101  1.00  0.00    -0.273 N 
ATOM      6  H4  UNL     1      45.074  33.709  34.041  1.00  0.00     0.189 HD
ENDROOT
BRANCH   5   7
HETATM    7  N5  UNL     1      43.719  34.993  34.972  1.00  0.00    -0.307 N 
HETATM    8  C2  UNL     1      44.169  35.106  36.175  1.00  0.00     0.144 C 
ATOM      9  H5  UNL     1      43.045  35.685  34.644  1.00  0.00     0.186 HD
BRANCH   8  10
HETATM   10  C3  UNL     1      43.709  36.201  37.019  1.00  0.00     0.091 A 
HETATM   11  C4  UNL     1      44.213  37.503  36.996  1.00  0.00     0.040 A 
HETATM   12  C5  UNL     1      43.505  38.211  37.941  1.00  0.00     0.027 A 
HETATM   13  C6  UNL     1      42.608  37.335  38.500  1.00  0.00     0.142 A 
HETATM   14  O1  UNL     1      42.762  36.165  37.927  1.00  0.00    -0.321 OA
ENDBRANCH   8  10
ENDBRANCH   5   7
BRANCH   1  15
HETATM   15  N1  UNL     1      40.978  33.201  34.332  1.00  0.00    -0.343 N 
ATOM     16  H12 UNL     1      40.566  33.784  35.061  1.00  0.00     0.176 HD
ATOM     17  H11 UNL     1      40.741  32.210  34.275  1.00  0.00     0.176 HD
ENDBRANCH   1  15
TORSDOF 3
ENDMDL
