MODEL 1
REMARK VINA RESULT: -7.298697083      0.000      0.000
REMARK  6 active torsions:
REMARK  status: ('A' for Active; 'I' for Inactive)
REMARK       I    between atoms: C1_4  and  N2_5 
REMARK       I    between atoms: C1_4  and  N3_9 
REMARK    1  A    between atoms: N2_5  and  C2_7 
REMARK    2  A    between atoms: N3_9  and  C3_11 
REMARK    3  A    between atoms: C3_11  and  C4_17 
REMARK    4  A    between atoms: N4_12  and  N5_14 
REMARK       I    between atoms: C4_17  and  N6_19 
REMARK    5  A    between atoms: C5_21  and  N7_22 
REMARK    6  A    between atoms: N7_22  and  N8_24 
ROOT
HETATM    1  C3  UNL     1      29.059  48.035  -3.610  1.00  0.00     0.203 C 
HETATM    2  N4  UNL     1      29.811  48.697  -4.398  1.00  0.00    -0.287 N 
ATOM      3  H4  UNL     1      29.840  48.430  -5.382  1.00  0.00     0.188 HD
ENDROOT
BRANCH   1   4
HETATM    4  N3  UNL     1      29.000  48.386  -2.241  1.00  0.00    -0.170 N 
HETATM    5  C1  UNL     1      27.780  48.369  -1.559  1.00  0.00     0.679 C 
HETATM    6  N1  UNL     1      26.897  49.253  -1.841  1.00  0.00    -0.234 N 
HETATM    7  N2  UNL     1      27.508  47.403  -0.567  1.00  0.00    -0.168 N 
ATOM      8  H12 UNL     1      26.007  49.241  -1.344  1.00  0.00     0.174 HD
ATOM      9  H11 UNL     1      27.094  49.951  -2.558  1.00  0.00     0.174 HD
ATOM     10  H2  UNL     1      26.611  47.412  -0.079  1.00  0.00     0.186 HD
ATOM     11  H3  UNL     1      29.853  48.652  -1.749  1.00  0.00     0.186 HD
BRANCH   7  12
HETATM   12  C2  UNL     1      28.471  46.428  -0.249  1.00  0.00     0.368 C 
HETATM   13  O1  UNL     1      29.503  46.755   0.376  1.00  0.00    -0.283 OA
ENDBRANCH   7  12
ENDBRANCH   1   4
BRANCH   1  14
HETATM   14  C4  UNL     1      28.266  46.932  -4.098  1.00  0.00     0.292 C 
HETATM   15  O2  UNL     1      27.024  46.965  -4.290  1.00  0.00    -0.264 OA
HETATM   16  N6  UNL     1      28.929  45.698  -4.394  1.00  0.00    -0.315 N 
HETATM   17  C5  UNL     1      29.498  45.577  -5.545  1.00  0.00     0.199 C 
ATOM     18  H6  UNL     1      28.951  44.937  -3.714  1.00  0.00     0.170 HD
BRANCH  17  19
HETATM   19  N7  UNL     1      30.148  44.339  -5.809  1.00  0.00    -0.303 N 
ATOM     20  H7  UNL     1      31.146  44.219  -5.635  1.00  0.00     0.187 HD
BRANCH  19  21
HETATM   21  N8  UNL     1      29.369  43.293  -6.314  1.00  0.00    -0.344 N 
ATOM     22  H82 UNL     1      29.680  42.771  -7.133  1.00  0.00     0.176 HD
ATOM     23  H81 UNL     1      28.494  43.081  -5.836  1.00  0.00     0.176 HD
ENDBRANCH  19  21
ENDBRANCH  17  19
ENDBRANCH   1  14
BRANCH   2  24
HETATM   24  N5  UNL     1      30.594  49.770  -3.973  1.00  0.00    -0.343 N 
ATOM     25  H52 UNL     1      31.484  49.921  -4.448  1.00  0.00     0.176 HD
ATOM     26  H51 UNL     1      30.313  50.396  -3.219  1.00  0.00     0.176 HD
ENDBRANCH   2  24
TORSDOF 6
ENDMDL
MODEL 2
REMARK VINA RESULT: -7.066209461      2.456      4.036
REMARK  6 active torsions:
REMARK  status: ('A' for Active; 'I' for Inactive)
REMARK       I    between atoms: C1_4  and  N2_5 
REMARK       I    between atoms: C1_4  and  N3_9 
REMARK    1  A    between atoms: N2_5  and  C2_7 
REMARK    2  A    between atoms: N3_9  and  C3_11 
REMARK    3  A    between atoms: C3_11  and  C4_17 
REMARK    4  A    between atoms: N4_12  and  N5_14 
REMARK       I    between atoms: C4_17  and  N6_19 
REMARK    5  A    between atoms: C5_21  and  N7_22 
REMARK    6  A    between atoms: N7_22  and  N8_24 
ROOT
HETATM    1  C3  UNL     1      28.672  47.094  -1.682  1.00  0.00     0.203 C 
HETATM    2  N4  UNL     1      29.022  45.869  -1.655  1.00  0.00    -0.287 N 
ATOM      3  H4  UNL     1      29.998  45.637  -1.839  1.00  0.00     0.188 HD
ENDROOT
BRANCH   1   4
HETATM    4  N3  UNL     1      27.324  47.441  -1.430  1.00  0.00    -0.170 N 
HETATM    5  C1  UNL     1      26.991  48.739  -1.032  1.00  0.00     0.679 C 
HETATM    6  N1  UNL     1      27.330  49.138   0.136  1.00  0.00    -0.234 N 
HETATM    7  N2  UNL     1      26.287  49.611  -1.891  1.00  0.00    -0.168 N 
ATOM      8  H12 UNL     1      27.087  50.085   0.427  1.00  0.00     0.174 HD
ATOM      9  H11 UNL     1      27.838  48.508   0.756  1.00  0.00     0.174 HD
ATOM     10  H2  UNL     1      26.052  50.553  -1.578  1.00  0.00     0.186 HD
ATOM     11  H3  UNL     1      26.591  46.741  -1.540  1.00  0.00     0.186 HD
BRANCH   7  12
HETATM   12  C2  UNL     1      25.910  49.182  -3.177  1.00  0.00     0.368 C 
HETATM   13  O1  UNL     1      26.765  48.686  -3.941  1.00  0.00    -0.283 OA
ENDBRANCH   7  12
ENDBRANCH   1   4
BRANCH   1  14
HETATM   14  C4  UNL     1      29.635  48.132  -1.963  1.00  0.00     0.292 C 
HETATM   15  O2  UNL     1      30.456  48.598  -1.134  1.00  0.00    -0.264 OA
HETATM   16  N6  UNL     1      29.672  48.683  -3.284  1.00  0.00    -0.315 N 
HETATM   17  C5  UNL     1      30.345  48.050  -4.185  1.00  0.00     0.199 C 
ATOM     18  H6  UNL     1      29.181  49.549  -3.506  1.00  0.00     0.170 HD
BRANCH  17  19
HETATM   19  N7  UNL     1      30.363  48.623  -5.487  1.00  0.00    -0.303 N 
ATOM     20  H7  UNL     1      29.881  48.176  -6.267  1.00  0.00     0.187 HD
BRANCH  19  21
HETATM   21  N8  UNL     1      31.064  49.821  -5.659  1.00  0.00    -0.344 N 
ATOM     22  H82 UNL     1      32.037  49.807  -5.964  1.00  0.00     0.176 HD
ATOM     23  H81 UNL     1      30.568  50.691  -5.467  1.00  0.00     0.176 HD
ENDBRANCH  19  21
ENDBRANCH  17  19
ENDBRANCH   1  14
BRANCH   2  24
HETATM   24  N5  UNL     1      28.128  44.832  -1.387  1.00  0.00    -0.343 N 
ATOM     25  H52 UNL     1      27.191  44.904  -1.782  1.00  0.00     0.176 HD
ATOM     26  H51 UNL     1      28.376  44.020  -0.821  1.00  0.00     0.176 HD
ENDBRANCH   2  24
TORSDOF 6
ENDMDL
MODEL 3
REMARK VINA RESULT: -6.988573177      1.987      4.251
REMARK  6 active torsions:
REMARK  status: ('A' for Active; 'I' for Inactive)
REMARK       I    between atoms: C1_4  and  N2_5 
REMARK       I    between atoms: C1_4  and  N3_9 
REMARK    1  A    between atoms: N2_5  and  C2_7 
REMARK    2  A    between atoms: N3_9  and  C3_11 
REMARK    3  A    between atoms: C3_11  and  C4_17 
REMARK    4  A    between atoms: N4_12  and  N5_14 
REMARK       I    between atoms: C4_17  and  N6_19 
REMARK    5  A    between atoms: C5_21  and  N7_22 
REMARK    6  A    between atoms: N7_22  and  N8_24 
ROOT
HETATM    1  C3  UNL     1      29.288  46.843  -3.894  1.00  0.00     0.203 C 
HETATM    2  N4  UNL     1      29.934  46.085  -4.689  1.00  0.00    -0.287 N 
ATOM      3  H4  UNL     1      30.919  46.288  -4.862  1.00  0.00     0.188 HD
ENDROOT
BRANCH   1   4
HETATM    4  N3  UNL     1      27.922  46.583  -3.637  1.00  0.00    -0.170 N 
HETATM    5  C1  UNL     1      27.467  46.428  -2.324  1.00  0.00     0.679 C 
HETATM    6  N1  UNL     1      27.808  45.384  -1.666  1.00  0.00    -0.234 N 
HETATM    7  N2  UNL     1      26.639  47.397  -1.716  1.00  0.00    -0.168 N 
ATOM      8  H12 UNL     1      27.476  45.271  -0.708  1.00  0.00     0.174 HD
ATOM      9  H11 UNL     1      28.405  44.684  -2.105  1.00  0.00     0.174 HD
ATOM     10  H2  UNL     1      26.316  47.262  -0.758  1.00  0.00     0.186 HD
ATOM     11  H3  UNL     1      27.265  46.507  -4.413  1.00  0.00     0.186 HD
BRANCH   7  12
HETATM   12  C2  UNL     1      26.258  48.547  -2.431  1.00  0.00     0.368 C 
HETATM   13  O1  UNL     1      25.872  49.563  -1.814  1.00  0.00    -0.283 OA
ENDBRANCH   7  12
ENDBRANCH   1   4
BRANCH   1  14
HETATM   14  C4  UNL     1      29.934  47.962  -3.251  1.00  0.00     0.292 C 
HETATM   15  O2  UNL     1      30.439  47.941  -2.100  1.00  0.00    -0.264 OA
HETATM   16  N6  UNL     1      30.016  49.201  -3.966  1.00  0.00    -0.315 N 
HETATM   17  C5  UNL     1      30.979  49.348  -4.811  1.00  0.00     0.199 C 
ATOM     18  H6  UNL     1      29.333  49.943  -3.812  1.00  0.00     0.170 HD
BRANCH  17  19
HETATM   19  N7  UNL     1      31.033  50.589  -5.505  1.00  0.00    -0.303 N 
ATOM     20  H7  UNL     1      31.357  50.640  -6.471  1.00  0.00     0.187 HD
BRANCH  19  21
HETATM   21  N8  UNL     1      30.626  51.736  -4.816  1.00  0.00    -0.344 N 
ATOM     22  H82 UNL     1      31.308  52.446  -4.551  1.00  0.00     0.176 HD
ATOM     23  H81 UNL     1      29.634  51.827  -4.594  1.00  0.00     0.176 HD
ENDBRANCH  19  21
ENDBRANCH  17  19
ENDBRANCH   1  14
BRANCH   2  24
HETATM   24  N5  UNL     1      29.354  44.992  -5.332  1.00  0.00    -0.343 N 
ATOM     25  H52 UNL     1      28.733  44.397  -4.783  1.00  0.00     0.176 HD
ATOM     26  H51 UNL     1      29.526  44.771  -6.313  1.00  0.00     0.176 HD
ENDBRANCH   2  24
TORSDOF 6
ENDMDL
MODEL 4
REMARK VINA RESULT: -6.945488475      2.457      4.112
REMARK  6 active torsions:
REMARK  status: ('A' for Active; 'I' for Inactive)
REMARK       I    between atoms: C1_4  and  N2_5 
REMARK       I    between atoms: C1_4  and  N3_9 
REMARK    1  A    between atoms: N2_5  and  C2_7 
REMARK    2  A    between atoms: N3_9  and  C3_11 
REMARK    3  A    between atoms: C3_11  and  C4_17 
REMARK    4  A    between atoms: N4_12  and  N5_14 
REMARK       I    between atoms: C4_17  and  N6_19 
REMARK    5  A    between atoms: C5_21  and  N7_22 
REMARK    6  A    between atoms: N7_22  and  N8_24 
ROOT
HETATM    1  C3  UNL     1      27.781  46.372  -2.250  1.00  0.00     0.203 C 
HETATM    2  N4  UNL     1      28.327  45.402  -1.630  1.00  0.00    -0.287 N 
ATOM      3  H4  UNL     1      29.063  44.875  -2.100  1.00  0.00     0.188 HD
ENDROOT
BRANCH   1   4
HETATM    4  N3  UNL     1      26.758  47.118  -1.620  1.00  0.00    -0.170 N 
HETATM    5  C1  UNL     1      27.002  48.423  -1.184  1.00  0.00     0.679 C 
HETATM    6  N1  UNL     1      27.779  48.611  -0.184  1.00  0.00    -0.234 N 
HETATM    7  N2  UNL     1      26.405  49.533  -1.822  1.00  0.00    -0.168 N 
ATOM      8  H12 UNL     1      27.957  49.564   0.134  1.00  0.00     0.174 HD
ATOM      9  H11 UNL     1      28.210  47.810   0.277  1.00  0.00     0.174 HD
ATOM     10  H2  UNL     1      26.594  50.477  -1.485  1.00  0.00     0.186 HD
ATOM     11  H3  UNL     1      25.838  46.701  -1.482  1.00  0.00     0.186 HD
BRANCH   7  12
HETATM   12  C2  UNL     1      25.549  49.337  -2.921  1.00  0.00     0.368 C 
HETATM   13  O1  UNL     1      26.023  49.288  -4.076  1.00  0.00    -0.283 OA
ENDBRANCH   7  12
ENDBRANCH   1   4
BRANCH   1  14
HETATM   14  C4  UNL     1      28.198  46.721  -3.588  1.00  0.00     0.292 C 
HETATM   15  O2  UNL     1      27.530  46.506  -4.631  1.00  0.00    -0.264 OA
HETATM   16  N6  UNL     1      29.467  47.362  -3.757  1.00  0.00    -0.315 N 
HETATM   17  C5  UNL     1      29.526  48.640  -3.588  1.00  0.00     0.199 C 
ATOM     18  H6  UNL     1      30.299  46.825  -4.004  1.00  0.00     0.170 HD
BRANCH  17  19
HETATM   19  N7  UNL     1      30.801  49.247  -3.764  1.00  0.00    -0.303 N 
ATOM     20  H7  UNL     1      31.641  48.840  -3.353  1.00  0.00     0.187 HD
BRANCH  19  21
HETATM   21  N8  UNL     1      30.861  50.421  -4.521  1.00  0.00    -0.344 N 
ATOM     22  H82 UNL     1      30.048  50.731  -5.054  1.00  0.00     0.176 HD
ATOM     23  H81 UNL     1      31.737  50.943  -4.516  1.00  0.00     0.176 HD
ENDBRANCH  19  21
ENDBRANCH  17  19
ENDBRANCH   1  14
BRANCH   2  24
HETATM   24  N5  UNL     1      27.960  45.028  -0.336  1.00  0.00    -0.343 N 
ATOM     25  H52 UNL     1      26.967  44.893  -0.149  1.00  0.00     0.176 HD
ATOM     26  H51 UNL     1      28.638  44.889   0.412  1.00  0.00     0.176 HD
ENDBRANCH   2  24
TORSDOF 6
ENDMDL
MODEL 5
REMARK VINA RESULT: -6.912882894      2.168      3.168
REMARK  6 active torsions:
REMARK  status: ('A' for Active; 'I' for Inactive)
REMARK       I    between atoms: C1_4  and  N2_5 
REMARK       I    between atoms: C1_4  and  N3_9 
REMARK    1  A    between atoms: N2_5  and  C2_7 
REMARK    2  A    between atoms: N3_9  and  C3_11 
REMARK    3  A    between atoms: C3_11  and  C4_17 
REMARK    4  A    between atoms: N4_12  and  N5_14 
REMARK       I    between atoms: C4_17  and  N6_19 
REMARK    5  A    between atoms: C5_21  and  N7_22 
REMARK    6  A    between atoms: N7_22  and  N8_24 
ROOT
HETATM    1  C3  UNL     1      27.951  46.624  -2.608  1.00  0.00     0.203 C 
HETATM    2  N4  UNL     1      28.488  45.552  -2.176  1.00  0.00    -0.287 N 
ATOM      3  H4  UNL     1      29.223  45.116  -2.732  1.00  0.00     0.188 HD
ENDROOT
BRANCH   1   4
HETATM    4  N3  UNL     1      26.930  47.248  -1.854  1.00  0.00    -0.170 N 
HETATM    5  C1  UNL     1      27.096  48.554  -1.384  1.00  0.00     0.679 C 
HETATM    6  N1  UNL     1      27.946  48.777  -0.452  1.00  0.00    -0.234 N 
HETATM    7  N2  UNL     1      26.345  49.625  -1.915  1.00  0.00    -0.168 N 
ATOM      8  H12 UNL     1      28.067  49.730  -0.110  1.00  0.00     0.174 HD
ATOM      9  H11 UNL     1      28.488  48.004  -0.069  1.00  0.00     0.174 HD
ATOM     10  H2  UNL     1      26.480  50.569  -1.555  1.00  0.00     0.186 HD
ATOM     11  H3  UNL     1      26.068  46.742  -1.652  1.00  0.00     0.186 HD
BRANCH   7  12
HETATM   12  C2  UNL     1      25.409  49.390  -2.939  1.00  0.00     0.368 C 
HETATM   13  O1  UNL     1      25.800  49.246  -4.117  1.00  0.00    -0.283 OA
ENDBRANCH   7  12
ENDBRANCH   1   4
BRANCH   1  14
HETATM   14  C4  UNL     1      28.375  47.210  -3.858  1.00  0.00     0.292 C 
HETATM   15  O2  UNL     1      28.785  48.389  -4.000  1.00  0.00    -0.264 OA
HETATM   16  N6  UNL     1      28.330  46.398  -5.037  1.00  0.00    -0.315 N 
HETATM   17  C5  UNL     1      29.325  45.609  -5.265  1.00  0.00     0.199 C 
ATOM     18  H6  UNL     1      27.536  46.442  -5.676  1.00  0.00     0.170 HD
BRANCH  17  19
HETATM   19  N7  UNL     1      29.252  44.816  -6.444  1.00  0.00    -0.303 N 
ATOM     20  H7  UNL     1      28.905  45.205  -7.321  1.00  0.00     0.187 HD
BRANCH  19  21
HETATM   21  N8  UNL     1      29.673  43.485  -6.358  1.00  0.00    -0.344 N 
ATOM     22  H82 UNL     1      29.997  43.106  -5.468  1.00  0.00     0.176 HD
ATOM     23  H81 UNL     1      29.642  42.923  -7.208  1.00  0.00     0.176 HD
ENDBRANCH  19  21
ENDBRANCH  17  19
ENDBRANCH   1  14
BRANCH   2  24
HETATM   24  N5  UNL     1      28.114  44.949  -0.974  1.00  0.00    -0.343 N 
ATOM     25  H52 UNL     1      27.158  45.094  -0.652  1.00  0.00     0.176 HD
ATOM     26  H51 UNL     1      28.753  44.381  -0.418  1.00  0.00     0.176 HD
ENDBRANCH   2  24
TORSDOF 6
ENDMDL
