MODEL 1
REMARK VINA RESULT: -6.974958747      0.000      0.000
REMARK  5 active torsions:
REMARK  status: ('A' for Active; 'I' for Inactive)
REMARK    1  A    between atoms: C1_2  and  N2_4 
REMARK    2  A    between atoms: N2_4  and  N3_6 
REMARK    3  A    between atoms: C2_8  and  N4_9 
REMARK    4  A    between atoms: C2_8  and  C4_16 
REMARK    5  A    between atoms: N4_9  and  N5_11 
ROOT
HETATM    1  N3  UNL     1      29.299  46.144  -3.044  1.00  0.00    -0.277 N 
ATOM      2  H3  UNL     1      30.315  46.200  -2.974  1.00  0.00     0.189 HD
HETATM    3  C2  UNL     1      28.535  46.417  -2.026  1.00  0.00     0.213 C 
ENDROOT
BRANCH   3   4
HETATM    4  N4  UNL     1      27.111  46.333  -2.137  1.00  0.00    -0.277 N 
ATOM      5  H4  UNL     1      26.663  45.485  -2.487  1.00  0.00     0.189 HD
BRANCH   4   6
HETATM    6  N5  UNL     1      26.355  47.432  -1.757  1.00  0.00    -0.274 N 
HETATM    7  C3  UNL     1      26.352  48.514  -2.451  1.00  0.00     0.215 C 
HETATM    8  N6  UNL     1      25.558  49.617  -2.021  1.00  0.00    -0.065 NA
HETATM    9  N7  UNL     1      27.140  48.569  -3.624  1.00  0.00    -0.065 NA
ATOM     10  H5  UNL     1      25.789  47.380  -0.910  1.00  0.00     0.189 HD
ENDBRANCH   4   6
ENDBRANCH   3   4
BRANCH   3  11
HETATM   11  C4  UNL     1      29.147  46.809  -0.775  1.00  0.00     0.247 C 
HETATM   12  O1  UNL     1      28.797  46.264   0.288  1.00  0.00    -0.642 OA
HETATM   13  O2  UNL     1      30.117  47.785  -0.761  1.00  0.00    -0.642 OA
ENDBRANCH   3  11
BRANCH   1  14
HETATM   14  N2  UNL     1      28.673  45.772  -4.231  1.00  0.00    -0.277 N 
ATOM     15  H2  UNL     1      27.716  45.422  -4.198  1.00  0.00     0.189 HD
BRANCH  14  16
HETATM   16  C1  UNL     1      29.329  45.866  -5.480  1.00  0.00     0.199 C 
HETATM   17  N1  UNL     1      29.802  47.122  -5.917  1.00  0.00    -0.068 NA
HETATM   18  S1  UNL     1      29.552  44.569  -6.427  1.00  0.00    -0.043 SA
ENDBRANCH  14  16
ENDBRANCH   1  14
TORSDOF 5
ENDMDL
MODEL 2
REMARK VINA RESULT: -6.660828787      3.529      4.081
REMARK  5 active torsions:
REMARK  status: ('A' for Active; 'I' for Inactive)
REMARK    1  A    between atoms: C1_2  and  N2_4 
REMARK    2  A    between atoms: N2_4  and  N3_6 
REMARK    3  A    between atoms: C2_8  and  N4_9 
REMARK    4  A    between atoms: C2_8  and  C4_16 
REMARK    5  A    between atoms: N4_9  and  N5_11 
ROOT
HETATM    1  N3  UNL     1      30.000  48.314  -4.835  1.00  0.00    -0.277 N 
ATOM      2  H3  UNL     1      30.424  47.754  -5.575  1.00  0.00     0.189 HD
HETATM    3  C2  UNL     1      28.962  47.888  -4.175  1.00  0.00     0.213 C 
ENDROOT
BRANCH   3   4
HETATM    4  N4  UNL     1      28.377  48.684  -3.139  1.00  0.00    -0.277 N 
ATOM      5  H4  UNL     1      27.813  49.504  -3.366  1.00  0.00     0.189 HD
BRANCH   4   6
HETATM    6  N5  UNL     1      28.595  48.313  -1.821  1.00  0.00    -0.274 N 
HETATM    7  C3  UNL     1      27.675  48.433  -0.931  1.00  0.00     0.215 C 
HETATM    8  N6  UNL     1      27.946  48.037   0.411  1.00  0.00    -0.065 NA
HETATM    9  N7  UNL     1      26.420  48.954  -1.320  1.00  0.00    -0.065 NA
ATOM     10  H5  UNL     1      29.504  47.937  -1.552  1.00  0.00     0.189 HD
ENDBRANCH   4   6
ENDBRANCH   3   4
BRANCH   3  11
HETATM   11  C4  UNL     1      28.405  46.593  -4.503  1.00  0.00     0.247 C 
HETATM   12  O1  UNL     1      28.573  46.112  -5.638  1.00  0.00    -0.642 OA
HETATM   13  O2  UNL     1      27.686  45.896  -3.559  1.00  0.00    -0.642 OA
ENDBRANCH   3  11
BRANCH   1  14
HETATM   14  N2  UNL     1      30.508  49.563  -4.489  1.00  0.00    -0.277 N 
ATOM     15  H2  UNL     1      30.050  50.402  -4.847  1.00  0.00     0.189 HD
BRANCH  14  16
HETATM   16  C1  UNL     1      31.643  49.702  -3.658  1.00  0.00     0.199 C 
HETATM   17  N1  UNL     1      31.597  49.199  -2.339  1.00  0.00    -0.068 NA
HETATM   18  S1  UNL     1      32.998  50.424  -4.176  1.00  0.00    -0.043 SA
ENDBRANCH  14  16
ENDBRANCH   1  14
TORSDOF 5
ENDMDL
MODEL 3
REMARK VINA RESULT: -6.563908586      2.192      2.453
REMARK  5 active torsions:
REMARK  status: ('A' for Active; 'I' for Inactive)
REMARK    1  A    between atoms: C1_2  and  N2_4 
REMARK    2  A    between atoms: N2_4  and  N3_6 
REMARK    3  A    between atoms: C2_8  and  N4_9 
REMARK    4  A    between atoms: C2_8  and  C4_16 
REMARK    5  A    between atoms: N4_9  and  N5_11 
ROOT
HETATM    1  N3  UNL     1      29.772  46.808  -2.339  1.00  0.00    -0.277 N 
ATOM      2  H3  UNL     1      30.078  45.837  -2.272  1.00  0.00     0.189 HD
HETATM    3  C2  UNL     1      29.111  47.378  -1.374  1.00  0.00     0.213 C 
ENDROOT
BRANCH   3   4
HETATM    4  N4  UNL     1      28.687  48.741  -1.482  1.00  0.00    -0.277 N 
ATOM      5  H4  UNL     1      29.368  49.494  -1.587  1.00  0.00     0.189 HD
BRANCH   4   6
HETATM    6  N5  UNL     1      27.328  49.013  -1.441  1.00  0.00    -0.274 N 
HETATM    7  C3  UNL     1      26.592  48.910  -2.490  1.00  0.00     0.215 C 
HETATM    8  N6  UNL     1      25.200  49.199  -2.398  1.00  0.00    -0.065 NA
HETATM    9  N7  UNL     1      27.196  48.509  -3.704  1.00  0.00    -0.065 NA
ATOM     10  H5  UNL     1      26.902  49.301  -0.559  1.00  0.00     0.189 HD
ENDBRANCH   4   6
ENDBRANCH   3   4
BRANCH   3  11
HETATM   11  C4  UNL     1      28.808  46.612  -0.184  1.00  0.00     0.247 C 
HETATM   12  O1  UNL     1      29.685  46.428   0.679  1.00  0.00    -0.642 OA
HETATM   13  O2  UNL     1      27.548  46.088  -0.008  1.00  0.00    -0.642 OA
ENDBRANCH   3  11
BRANCH   1  14
HETATM   14  N2  UNL     1      30.045  47.577  -3.467  1.00  0.00    -0.277 N 
ATOM     15  H2  UNL     1      29.323  47.688  -4.179  1.00  0.00     0.189 HD
BRANCH  14  16
HETATM   16  C1  UNL     1      31.297  48.208  -3.654  1.00  0.00     0.199 C 
HETATM   17  N1  UNL     1      31.730  49.170  -2.716  1.00  0.00    -0.068 NA
HETATM   18  S1  UNL     1      32.250  47.858  -4.917  1.00  0.00    -0.043 SA
ENDBRANCH  14  16
ENDBRANCH   1  14
TORSDOF 5
ENDMDL
MODEL 4
REMARK VINA RESULT: -6.515522211      2.187      3.060
REMARK  5 active torsions:
REMARK  status: ('A' for Active; 'I' for Inactive)
REMARK    1  A    between atoms: C1_2  and  N2_4 
REMARK    2  A    between atoms: N2_4  and  N3_6 
REMARK    3  A    between atoms: C2_8  and  N4_9 
REMARK    4  A    between atoms: C2_8  and  C4_16 
REMARK    5  A    between atoms: N4_9  and  N5_11 
ROOT
HETATM    1  N3  UNL     1      29.857  45.915  -5.105  1.00  0.00    -0.277 N 
ATOM      2  H3  UNL     1      30.641  46.354  -5.588  1.00  0.00     0.189 HD
HETATM    3  C2  UNL     1      29.279  46.489  -4.091  1.00  0.00     0.213 C 
ENDROOT
BRANCH   3   4
HETATM    4  N4  UNL     1      28.180  45.861  -3.422  1.00  0.00    -0.277 N 
ATOM      5  H4  UNL     1      27.331  45.614  -3.930  1.00  0.00     0.189 HD
BRANCH   4   6
HETATM    6  N5  UNL     1      28.300  45.596  -2.066  1.00  0.00    -0.274 N 
HETATM    7  C3  UNL     1      27.557  46.188  -1.200  1.00  0.00     0.215 C 
HETATM    8  N6  UNL     1      27.715  45.883   0.183  1.00  0.00    -0.065 NA
HETATM    9  N7  UNL     1      26.601  47.126  -1.656  1.00  0.00    -0.065 NA
ATOM     10  H5  UNL     1      28.992  44.917  -1.749  1.00  0.00     0.189 HD
ENDBRANCH   4   6
ENDBRANCH   3   4
BRANCH   3  11
HETATM   11  C4  UNL     1      29.763  47.778  -3.644  1.00  0.00     0.247 C 
HETATM   12  O1  UNL     1      29.690  48.766  -4.397  1.00  0.00    -0.642 OA
HETATM   13  O2  UNL     1      30.306  47.909  -2.387  1.00  0.00    -0.642 OA
ENDBRANCH   3  11
BRANCH   1  14
HETATM   14  N2  UNL     1      29.362  44.676  -5.506  1.00  0.00    -0.277 N 
ATOM     15  H2  UNL     1      28.670  44.206  -4.921  1.00  0.00     0.189 HD
BRANCH  14  16
HETATM   16  C1  UNL     1      29.792  44.052  -6.700  1.00  0.00     0.199 C 
HETATM   17  N1  UNL     1      29.293  42.772  -7.025  1.00  0.00    -0.068 NA
HETATM   18  S1  UNL     1      30.842  44.766  -7.706  1.00  0.00    -0.043 SA
ENDBRANCH  14  16
ENDBRANCH   1  14
TORSDOF 5
ENDMDL
MODEL 5
REMARK VINA RESULT: -6.489463944      1.762      2.369
REMARK  5 active torsions:
REMARK  status: ('A' for Active; 'I' for Inactive)
REMARK    1  A    between atoms: C1_2  and  N2_4 
REMARK    2  A    between atoms: N2_4  and  N3_6 
REMARK    3  A    between atoms: C2_8  and  N4_9 
REMARK    4  A    between atoms: C2_8  and  C4_16 
REMARK    5  A    between atoms: N4_9  and  N5_11 
ROOT
HETATM    1  N3  UNL     1      30.560  46.512  -3.711  1.00  0.00    -0.277 N 
ATOM      2  H3  UNL     1      31.388  46.057  -3.325  1.00  0.00     0.189 HD
HETATM    3  C2  UNL     1      30.278  47.751  -3.434  1.00  0.00     0.213 C 
ENDROOT
BRANCH   3   4
HETATM    4  N4  UNL     1      29.113  48.376  -3.981  1.00  0.00    -0.277 N 
ATOM      5  H4  UNL     1      29.028  48.536  -4.985  1.00  0.00     0.189 HD
BRANCH   4   6
HETATM    6  N5  UNL     1      28.101  48.759  -3.112  1.00  0.00    -0.274 N 
HETATM    7  C3  UNL     1      27.182  47.937  -2.751  1.00  0.00     0.215 C 
HETATM    8  N6  UNL     1      26.164  48.376  -1.856  1.00  0.00    -0.065 NA
HETATM    9  N7  UNL     1      27.216  46.617  -3.258  1.00  0.00    -0.065 NA
ATOM     10  H5  UNL     1      28.087  49.714  -2.752  1.00  0.00     0.189 HD
ENDBRANCH   4   6
ENDBRANCH   3   4
BRANCH   3  11
HETATM   11  C4  UNL     1      31.162  48.494  -2.560  1.00  0.00     0.247 C 
HETATM   12  O1  UNL     1      32.307  48.794  -2.941  1.00  0.00    -0.642 OA
HETATM   13  O2  UNL     1      30.733  48.866  -1.306  1.00  0.00    -0.642 OA
ENDBRANCH   3  11
BRANCH   1  14
HETATM   14  N2  UNL     1      29.687  45.831  -4.555  1.00  0.00    -0.277 N 
ATOM     15  H2  UNL     1      28.819  45.456  -4.173  1.00  0.00     0.189 HD
BRANCH  14  16
HETATM   16  C1  UNL     1      29.972  45.643  -5.928  1.00  0.00     0.199 C 
HETATM   17  N1  UNL     1      30.073  46.772  -6.770  1.00  0.00    -0.068 NA
HETATM   18  S1  UNL     1      30.185  44.167  -6.562  1.00  0.00    -0.043 SA
ENDBRANCH  14  16
ENDBRANCH   1  14
TORSDOF 5
ENDMDL
