MODEL 1
REMARK VINA RESULT: -7.278082217      0.000      0.000
REMARK  5 active torsions:
REMARK  status: ('A' for Active; 'I' for Inactive)
REMARK    1  A    between atoms: C1_2  and  C2_4 
REMARK       I    between atoms: C2_4  and  N2_6 
REMARK    2  A    between atoms: N2_6  and  N3_8 
REMARK       I    between atoms: N3_8  and  C3_10 
REMARK       I    between atoms: C3_10  and  N4_12 
REMARK    3  A    between atoms: N4_12  and  C4_14 
REMARK    4  A    between atoms: C4_14  and  N5_15 
REMARK    5  A    between atoms: C4_14  and  C5_19 
ROOT
HETATM    1  N3  UNL     1      28.928  45.588  -4.471  1.00  0.00    -0.249 N 
ATOM      2  H3  UNL     1      29.172  44.604  -4.353  1.00  0.00     0.192 HD
HETATM    3  C3  UNL     1      28.339  46.282  -3.390  1.00  0.00     0.336 C 
HETATM    4  O3  UNL     1      28.039  47.508  -3.518  1.00  0.00    -0.246 OA
HETATM    5  N4  UNL     1      28.087  45.608  -2.172  1.00  0.00    -0.305 N 
ATOM      6  H4  UNL     1      28.343  44.622  -2.108  1.00  0.00     0.166 HD
ENDROOT
BRANCH   1   7
HETATM    7  N2  UNL     1      29.187  46.209  -5.697  1.00  0.00    -0.258 N 
HETATM    8  C2  UNL     1      29.344  45.503  -6.920  1.00  0.00     0.325 C 
HETATM    9  O2  UNL     1      29.253  44.238  -6.956  1.00  0.00    -0.261 OA
ATOM     10  H2  UNL     1      29.268  47.226  -5.714  1.00  0.00     0.190 HD
BRANCH   8  11
HETATM   11  C1  UNL     1      29.610  46.223  -8.149  1.00  0.00     0.324 C 
HETATM   12  N1  UNL     1      30.394  47.404  -8.106  1.00  0.00    -0.053 NA
HETATM   13  O1  UNL     1      29.168  45.831  -9.252  1.00  0.00    -0.266 OA
ENDBRANCH   8  11
ENDBRANCH   1   7
BRANCH   5  14
HETATM   14  C4  UNL     1      27.490  46.231  -1.011  1.00  0.00     0.387 C 
BRANCH  14  15
HETATM   15  N5  UNL     1      26.366  47.023  -1.454  1.00  0.00    -0.048 N 
ATOM     16  H53 UNL     1      26.447  48.005  -1.189  1.00  0.00     0.277 HD
ATOM     17  H52 UNL     1      26.351  47.155  -2.466  1.00  0.00     0.277 HD
ATOM     18  H51 UNL     1      25.513  46.590  -1.101  1.00  0.00     0.277 HD
ENDBRANCH  14  15
BRANCH  14  19
HETATM   19  C5  UNL     1      28.442  47.148  -0.339  1.00  0.00     0.225 C 
HETATM   20  O4  UNL     1      29.399  46.653   0.286  1.00  0.00    -0.645 OA
HETATM   21  O5  UNL     1      28.224  48.502  -0.436  1.00  0.00    -0.645 OA
ENDBRANCH  14  19
ENDBRANCH   5  14
TORSDOF 5
ENDMDL
MODEL 2
REMARK VINA RESULT: -7.222660566      1.703      6.519
REMARK  5 active torsions:
REMARK  status: ('A' for Active; 'I' for Inactive)
REMARK    1  A    between atoms: C1_2  and  C2_4 
REMARK       I    between atoms: C2_4  and  N2_6 
REMARK    2  A    between atoms: N2_6  and  N3_8 
REMARK       I    between atoms: N3_8  and  C3_10 
REMARK       I    between atoms: C3_10  and  N4_12 
REMARK    3  A    between atoms: N4_12  and  C4_14 
REMARK    4  A    between atoms: C4_14  and  N5_15 
REMARK    5  A    between atoms: C4_14  and  C5_19 
ROOT
HETATM    1  N3  UNL     1      27.809  45.770  -3.361  1.00  0.00    -0.249 N 
ATOM      2  H3  UNL     1      27.645  44.819  -3.029  1.00  0.00     0.192 HD
HETATM    3  C3  UNL     1      28.584  45.966  -4.526  1.00  0.00     0.336 C 
HETATM    4  O3  UNL     1      28.789  47.142  -4.955  1.00  0.00    -0.246 OA
HETATM    5  N4  UNL     1      29.129  44.851  -5.207  1.00  0.00    -0.305 N 
ATOM      6  H4  UNL     1      28.942  43.922  -4.830  1.00  0.00     0.166 HD
ENDROOT
BRANCH   1   7
HETATM    7  N2  UNL     1      27.258  46.841  -2.649  1.00  0.00    -0.258 N 
HETATM    8  C2  UNL     1      27.881  47.439  -1.521  1.00  0.00     0.325 C 
HETATM    9  O2  UNL     1      28.999  47.016  -1.094  1.00  0.00    -0.261 OA
ATOM     10  H2  UNL     1      26.360  47.214  -2.957  1.00  0.00     0.190 HD
BRANCH   8  11
HETATM   11  C1  UNL     1      27.244  48.547  -0.838  1.00  0.00     0.324 C 
HETATM   12  N1  UNL     1      26.234  49.286  -1.505  1.00  0.00    -0.053 NA
HETATM   13  O1  UNL     1      27.559  48.873   0.328  1.00  0.00    -0.266 OA
ENDBRANCH   8  11
ENDBRANCH   1   7
BRANCH   5  14
HETATM   14  C4  UNL     1      29.933  44.949  -6.405  1.00  0.00     0.387 C 
BRANCH  14  15
HETATM   15  N5  UNL     1      29.219  45.764  -7.360  1.00  0.00    -0.048 N 
ATOM     16  H53 UNL     1      29.747  45.918  -8.220  1.00  0.00     0.277 HD
ATOM     17  H52 UNL     1      28.422  45.280  -7.774  1.00  0.00     0.277 HD
ATOM     18  H51 UNL     1      28.956  46.636  -6.900  1.00  0.00     0.277 HD
ENDBRANCH  14  15
BRANCH  14  19
HETATM   19  C5  UNL     1      30.142  43.618  -7.026  1.00  0.00     0.225 C 
HETATM   20  O4  UNL     1      29.259  42.752  -6.879  1.00  0.00    -0.645 OA
HETATM   21  O5  UNL     1      31.301  43.401  -7.733  1.00  0.00    -0.645 OA
ENDBRANCH  14  19
ENDBRANCH   5  14
TORSDOF 5
ENDMDL
MODEL 3
REMARK VINA RESULT: -7.142089393      1.690      1.896
REMARK  5 active torsions:
REMARK  status: ('A' for Active; 'I' for Inactive)
REMARK    1  A    between atoms: C1_2  and  C2_4 
REMARK       I    between atoms: C2_4  and  N2_6 
REMARK    2  A    between atoms: N2_6  and  N3_8 
REMARK       I    between atoms: N3_8  and  C3_10 
REMARK       I    between atoms: C3_10  and  N4_12 
REMARK    3  A    between atoms: N4_12  and  C4_14 
REMARK    4  A    between atoms: C4_14  and  N5_15 
REMARK    5  A    between atoms: C4_14  and  C5_19 
ROOT
HETATM    1  N3  UNL     1      28.521  45.298  -4.474  1.00  0.00    -0.249 N 
ATOM      2  H3  UNL     1      27.851  44.530  -4.539  1.00  0.00     0.192 HD
HETATM    3  C3  UNL     1      28.374  46.250  -3.439  1.00  0.00     0.336 C 
HETATM    4  O3  UNL     1      29.204  47.204  -3.341  1.00  0.00    -0.246 OA
HETATM    5  N4  UNL     1      27.304  46.134  -2.521  1.00  0.00    -0.305 N 
ATOM      6  H4  UNL     1      26.658  45.353  -2.634  1.00  0.00     0.166 HD
ENDROOT
BRANCH   1   7
HETATM    7  N2  UNL     1      29.556  45.376  -5.411  1.00  0.00    -0.258 N 
HETATM    8  C2  UNL     1      29.792  44.392  -6.408  1.00  0.00     0.325 C 
HETATM    9  O2  UNL     1      29.050  43.366  -6.497  1.00  0.00    -0.261 OA
ATOM     10  H2  UNL     1      30.177  46.184  -5.376  1.00  0.00     0.190 HD
BRANCH   8  11
HETATM   11  C1  UNL     1      30.888  44.548  -7.343  1.00  0.00     0.324 C 
HETATM   12  N1  UNL     1      31.181  43.500  -8.251  1.00  0.00    -0.053 NA
HETATM   13  O1  UNL     1      31.586  45.586  -7.374  1.00  0.00    -0.266 OA
ENDBRANCH   8  11
ENDBRANCH   1   7
BRANCH   5  14
HETATM   14  C4  UNL     1      27.071  47.056  -1.431  1.00  0.00     0.387 C 
BRANCH  14  15
HETATM   15  N5  UNL     1      27.492  48.371  -1.856  1.00  0.00    -0.048 N 
ATOM     16  H53 UNL     1      28.381  48.358  -2.356  1.00  0.00     0.277 HD
ATOM     17  H52 UNL     1      26.915  48.745  -2.611  1.00  0.00     0.277 HD
ATOM     18  H51 UNL     1      27.511  48.979  -1.037  1.00  0.00     0.277 HD
ENDBRANCH  14  15
BRANCH  14  19
HETATM   19  C5  UNL     1      27.875  46.697  -0.238  1.00  0.00     0.225 C 
HETATM   20  O4  UNL     1      28.145  47.593   0.585  1.00  0.00    -0.645 OA
HETATM   21  O5  UNL     1      28.287  45.393  -0.095  1.00  0.00    -0.645 OA
ENDBRANCH  14  19
ENDBRANCH   5  14
TORSDOF 5
ENDMDL
MODEL 4
REMARK VINA RESULT: -7.138649408      1.930      2.323
REMARK  5 active torsions:
REMARK  status: ('A' for Active; 'I' for Inactive)
REMARK    1  A    between atoms: C1_2  and  C2_4 
REMARK       I    between atoms: C2_4  and  N2_6 
REMARK    2  A    between atoms: N2_6  and  N3_8 
REMARK       I    between atoms: N3_8  and  C3_10 
REMARK       I    between atoms: C3_10  and  N4_12 
REMARK    3  A    between atoms: N4_12  and  C4_14 
REMARK    4  A    between atoms: C4_14  and  N5_15 
REMARK    5  A    between atoms: C4_14  and  C5_19 
ROOT
HETATM    1  N3  UNL     1      29.649  46.513  -4.328  1.00  0.00    -0.249 N 
ATOM      2  H3  UNL     1      30.286  47.304  -4.423  1.00  0.00     0.192 HD
HETATM    3  C3  UNL     1      28.487  46.661  -3.537  1.00  0.00     0.336 C 
HETATM    4  O3  UNL     1      27.680  45.689  -3.416  1.00  0.00    -0.246 OA
HETATM    5  N4  UNL     1      28.229  47.889  -2.885  1.00  0.00    -0.305 N 
ATOM      6  H4  UNL     1      28.902  48.647  -3.006  1.00  0.00     0.166 HD
ENDROOT
BRANCH   1   7
HETATM    7  N2  UNL     1      29.951  45.314  -4.984  1.00  0.00    -0.258 N 
HETATM    8  C2  UNL     1      29.527  45.012  -6.306  1.00  0.00     0.325 C 
HETATM    9  O2  UNL     1      28.834  45.840  -6.972  1.00  0.00    -0.261 OA
ATOM     10  H2  UNL     1      30.506  44.619  -4.485  1.00  0.00     0.190 HD
BRANCH   8  11
HETATM   11  C1  UNL     1      29.883  43.746  -6.914  1.00  0.00     0.324 C 
HETATM   12  N1  UNL     1      31.074  43.653  -7.678  1.00  0.00    -0.053 NA
HETATM   13  O1  UNL     1      29.168  42.727  -6.784  1.00  0.00    -0.266 OA
ENDBRANCH   8  11
ENDBRANCH   1   7
BRANCH   5  14
HETATM   14  C4  UNL     1      27.069  48.138  -2.056  1.00  0.00     0.387 C 
BRANCH  14  15
HETATM   15  N5  UNL     1      26.666  49.512  -2.248  1.00  0.00    -0.048 N 
ATOM     16  H53 UNL     1      26.570  50.021  -1.369  1.00  0.00     0.277 HD
ATOM     17  H52 UNL     1      27.404  50.085  -2.658  1.00  0.00     0.277 HD
ATOM     18  H51 UNL     1      25.809  49.517  -2.801  1.00  0.00     0.277 HD
ENDBRANCH  14  15
BRANCH  14  19
HETATM   19  C5  UNL     1      27.386  47.964  -0.618  1.00  0.00     0.225 C 
HETATM   20  O4  UNL     1      27.422  48.977   0.106  1.00  0.00    -0.645 OA
HETATM   21  O5  UNL     1      27.627  46.694  -0.149  1.00  0.00    -0.645 OA
ENDBRANCH  14  19
ENDBRANCH   5  14
TORSDOF 5
ENDMDL
MODEL 5
REMARK VINA RESULT: -7.074762688      2.086      6.524
REMARK  5 active torsions:
REMARK  status: ('A' for Active; 'I' for Inactive)
REMARK    1  A    between atoms: C1_2  and  C2_4 
REMARK       I    between atoms: C2_4  and  N2_6 
REMARK    2  A    between atoms: N2_6  and  N3_8 
REMARK       I    between atoms: N3_8  and  C3_10 
REMARK       I    between atoms: C3_10  and  N4_12 
REMARK    3  A    between atoms: N4_12  and  C4_14 
REMARK    4  A    between atoms: C4_14  and  N5_15 
REMARK    5  A    between atoms: C4_14  and  C5_19 
ROOT
HETATM    1  N3  UNL     1      29.668  46.484  -3.681  1.00  0.00    -0.249 N 
ATOM      2  H3  UNL     1      30.580  46.241  -3.293  1.00  0.00     0.192 HD
HETATM    3  C3  UNL     1      29.241  45.857  -4.873  1.00  0.00     0.336 C 
HETATM    4  O3  UNL     1      28.106  46.143  -5.363  1.00  0.00    -0.246 OA
HETATM    5  N4  UNL     1      30.081  44.917  -5.516  1.00  0.00    -0.305 N 
ATOM      6  H4  UNL     1      30.986  44.714  -5.091  1.00  0.00     0.166 HD
ENDROOT
BRANCH   1   7
HETATM    7  N2  UNL     1      28.877  47.427  -3.016  1.00  0.00    -0.258 N 
HETATM    8  C2  UNL     1      28.158  47.150  -1.822  1.00  0.00     0.325 C 
HETATM    9  O2  UNL     1      28.201  45.999  -1.289  1.00  0.00    -0.261 OA
ATOM     10  H2  UNL     1      28.813  48.366  -3.410  1.00  0.00     0.190 HD
BRANCH   8  11
HETATM   11  C1  UNL     1      27.360  48.185  -1.195  1.00  0.00     0.324 C 
HETATM   12  N1  UNL     1      26.159  48.609  -1.817  1.00  0.00    -0.053 NA
HETATM   13  O1  UNL     1      27.702  48.717  -0.115  1.00  0.00    -0.266 OA
ENDBRANCH   8  11
ENDBRANCH   1   7
BRANCH   5  14
HETATM   14  C4  UNL     1      29.734  44.223  -6.737  1.00  0.00     0.387 C 
BRANCH  14  15
HETATM   15  N5  UNL     1      29.388  42.862  -6.398  1.00  0.00    -0.048 N 
ATOM     16  H53 UNL     1      28.928  42.370  -7.164  1.00  0.00     0.277 HD
ATOM     17  H52 UNL     1      30.206  42.256  -6.318  1.00  0.00     0.277 HD
ATOM     18  H51 UNL     1      28.826  42.879  -5.547  1.00  0.00     0.277 HD
ENDBRANCH  14  15
BRANCH  14  19
HETATM   19  C5  UNL     1      30.882  44.170  -7.673  1.00  0.00     0.225 C 
HETATM   20  O4  UNL     1      31.072  43.121  -8.318  1.00  0.00    -0.645 OA
HETATM   21  O5  UNL     1      31.686  45.280  -7.786  1.00  0.00    -0.645 OA
ENDBRANCH  14  19
ENDBRANCH   5  14
TORSDOF 5
ENDMDL
