MODEL 1
REMARK VINA RESULT: -7.464573005      0.000      0.000
REMARK  5 active torsions:
REMARK  status: ('A' for Active; 'I' for Inactive)
REMARK       I    between atoms: C2_2  and  N1_4 
REMARK    1  A    between atoms: N1_4  and  N2_6 
REMARK       I    between atoms: N2_6  and  C3_8 
REMARK    2  A    between atoms: C3_8  and  C4_10 
REMARK    3  A    between atoms: C4_10  and  N3_11 
REMARK    4  A    between atoms: C4_10  and  C5_15 
REMARK    5  A    between atoms: N3_11  and  N4_12 
REMARK       I    between atoms: C5_15  and  N5_17 
ROOT
HETATM    1  C4  UNL     1      29.241  47.239  -0.756  1.00  0.00     0.284 C 
ENDROOT
BRANCH   1   2
HETATM    2  C3  UNL     1      29.710  47.326  -2.165  1.00  0.00     0.266 C 
HETATM    3  N2  UNL     1      29.600  46.174  -2.981  1.00  0.00    -0.266 N 
ATOM      4  H2  UNL     1      29.203  45.322  -2.584  1.00  0.00     0.190 HD
HETATM    5  O2  UNL     1      30.180  48.438  -2.553  1.00  0.00    -0.269 OA
BRANCH   3   6
HETATM    6  N1  UNL     1      30.019  46.170  -4.310  1.00  0.00    -0.268 N 
HETATM    7  C2  UNL     1      29.056  46.313  -5.347  1.00  0.00     0.232 C 
HETATM    8  C1  UNL     1      29.513  46.309  -6.754  1.00  0.00     0.119 C 
HETATM    9  O1  UNL     1      27.822  46.442  -5.119  1.00  0.00    -0.272 OA
ATOM     10  H1  UNL     1      31.008  46.065  -4.536  1.00  0.00     0.190 HD
ENDBRANCH   3   6
ENDBRANCH   1   2
BRANCH   1  11
HETATM   11  N3  UNL     1      28.906  45.854  -0.476  1.00  0.00    -0.124 NA
BRANCH  11  12
HETATM   12  N4  UNL     1      27.564  45.620  -0.324  1.00  0.00    -0.347 N 
ATOM     13  H42 UNL     1      27.150  44.704  -0.503  1.00  0.00     0.172 HD
ATOM     14  H41 UNL     1      27.028  46.434  -0.021  1.00  0.00     0.172 HD
ENDBRANCH  11  12
ENDBRANCH   1  11
BRANCH   1  15
HETATM   15  C5  UNL     1      27.922  48.003  -0.751  1.00  0.00     0.254 C 
HETATM   16  O3  UNL     1      27.481  48.350   0.350  1.00  0.00    -0.271 OA
HETATM   17  N5  UNL     1      27.339  48.231  -2.002  1.00  0.00    -0.302 N 
HETATM   18  C6  UNL     1      26.443  49.064  -2.329  1.00  0.00     0.203 C 
ATOM     19  H5  UNL     1      27.685  47.641  -2.759  1.00  0.00     0.171 HD
HETATM   20  N6  UNL     1      25.888  49.941  -1.356  1.00  0.00    -0.066 NA
HETATM   21  N7  UNL     1      26.032  49.052  -3.686  1.00  0.00    -0.066 NA
ENDBRANCH   1  15
TORSDOF 5
ENDMDL
MODEL 2
REMARK VINA RESULT: -7.380495207      2.175      2.728
REMARK  5 active torsions:
REMARK  status: ('A' for Active; 'I' for Inactive)
REMARK       I    between atoms: C2_2  and  N1_4 
REMARK    1  A    between atoms: N1_4  and  N2_6 
REMARK       I    between atoms: N2_6  and  C3_8 
REMARK    2  A    between atoms: C3_8  and  C4_10 
REMARK    3  A    between atoms: C4_10  and  N3_11 
REMARK    4  A    between atoms: C4_10  and  C5_15 
REMARK    5  A    between atoms: N3_11  and  N4_12 
REMARK       I    between atoms: C5_15  and  N5_17 
ROOT
HETATM    1  C4  UNL     1      29.283  47.285  -0.942  1.00  0.00     0.284 C 
ENDROOT
BRANCH   1   2
HETATM    2  C3  UNL     1      29.918  47.782  -2.192  1.00  0.00     0.266 C 
HETATM    3  N2  UNL     1      30.681  48.973  -2.128  1.00  0.00    -0.266 N 
ATOM      4  H2  UNL     1      30.777  49.453  -1.233  1.00  0.00     0.190 HD
HETATM    5  O2  UNL     1      29.737  47.101  -3.247  1.00  0.00    -0.269 OA
BRANCH   3   6
HETATM    6  N1  UNL     1      31.305  49.509  -3.252  1.00  0.00    -0.268 N 
HETATM    7  C2  UNL     1      32.637  49.119  -3.566  1.00  0.00     0.232 C 
HETATM    8  C1  UNL     1      33.289  49.693  -4.763  1.00  0.00     0.119 C 
HETATM    9  O1  UNL     1      33.292  48.302  -2.861  1.00  0.00    -0.272 OA
ATOM     10  H1  UNL     1      30.811  50.175  -3.846  1.00  0.00     0.190 HD
ENDBRANCH   3   6
ENDBRANCH   1   2
BRANCH   1  11
HETATM   11  N3  UNL     1      28.954  45.882  -1.128  1.00  0.00    -0.124 NA
BRANCH  11  12
HETATM   12  N4  UNL     1      27.772  45.500  -0.549  1.00  0.00    -0.347 N 
ATOM     13  H42 UNL     1      27.002  46.154  -0.408  1.00  0.00     0.172 HD
ATOM     14  H41 UNL     1      27.738  44.516  -0.279  1.00  0.00     0.172 HD
ENDBRANCH  11  12
ENDBRANCH   1  11
BRANCH   1  15
HETATM   15  C5  UNL     1      27.952  48.026  -0.876  1.00  0.00     0.254 C 
HETATM   16  O3  UNL     1      27.533  48.325   0.248  1.00  0.00    -0.271 OA
HETATM   17  N5  UNL     1      27.334  48.290  -2.102  1.00  0.00    -0.302 N 
HETATM   18  C6  UNL     1      26.417  49.119  -2.376  1.00  0.00     0.203 C 
ATOM     19  H5  UNL     1      27.671  47.735  -2.889  1.00  0.00     0.171 HD
HETATM   20  N6  UNL     1      25.873  49.950  -1.358  1.00  0.00    -0.066 NA
HETATM   21  N7  UNL     1      25.972  49.151  -3.722  1.00  0.00    -0.066 NA
ENDBRANCH   1  15
TORSDOF 5
ENDMDL
MODEL 3
REMARK VINA RESULT: -7.331961605      2.106      3.929
REMARK  5 active torsions:
REMARK  status: ('A' for Active; 'I' for Inactive)
REMARK       I    between atoms: C2_2  and  N1_4 
REMARK    1  A    between atoms: N1_4  and  N2_6 
REMARK       I    between atoms: N2_6  and  C3_8 
REMARK    2  A    between atoms: C3_8  and  C4_10 
REMARK    3  A    between atoms: C4_10  and  N3_11 
REMARK    4  A    between atoms: C4_10  and  C5_15 
REMARK    5  A    between atoms: N3_11  and  N4_12 
REMARK       I    between atoms: C5_15  and  N5_17 
ROOT
HETATM    1  C4  UNL     1      27.155  47.891  -3.539  1.00  0.00     0.284 C 
ENDROOT
BRANCH   1   2
HETATM    2  C3  UNL     1      28.586  47.718  -3.910  1.00  0.00     0.266 C 
HETATM    3  N2  UNL     1      29.406  48.871  -3.973  1.00  0.00    -0.266 N 
ATOM      4  H2  UNL     1      28.998  49.782  -3.761  1.00  0.00     0.190 HD
HETATM    5  O2  UNL     1      28.986  46.538  -4.145  1.00  0.00    -0.269 OA
BRANCH   3   6
HETATM    6  N1  UNL     1      30.755  48.797  -4.315  1.00  0.00    -0.268 N 
HETATM    7  C2  UNL     1      31.737  48.775  -3.287  1.00  0.00     0.232 C 
HETATM    8  C1  UNL     1      33.166  48.694  -3.662  1.00  0.00     0.119 C 
HETATM    9  O1  UNL     1      31.443  48.824  -2.060  1.00  0.00    -0.272 OA
ATOM     10  H1  UNL     1      31.035  48.758  -5.295  1.00  0.00     0.190 HD
ENDBRANCH   3   6
ENDBRANCH   1   2
BRANCH   1  11
HETATM   11  N3  UNL     1      26.904  49.310  -3.355  1.00  0.00    -0.124 NA
BRANCH  11  12
HETATM   12  N4  UNL     1      26.306  49.625  -2.162  1.00  0.00    -0.347 N 
ATOM     13  H42 UNL     1      26.822  50.054  -1.394  1.00  0.00     0.172 HD
ATOM     14  H41 UNL     1      25.313  49.392  -2.118  1.00  0.00     0.172 HD
ENDBRANCH  11  12
ENDBRANCH   1  11
BRANCH   1  15
HETATM   15  C5  UNL     1      27.046  47.259  -2.157  1.00  0.00     0.254 C 
HETATM   16  O3  UNL     1      25.944  46.801  -1.837  1.00  0.00    -0.271 OA
HETATM   17  N5  UNL     1      28.211  47.266  -1.384  1.00  0.00    -0.302 N 
HETATM   18  C6  UNL     1      28.501  46.573  -0.364  1.00  0.00     0.203 C 
ATOM     19  H5  UNL     1      28.931  47.923  -1.685  1.00  0.00     0.171 HD
HETATM   20  N6  UNL     1      27.574  45.621   0.145  1.00  0.00    -0.066 NA
HETATM   21  N7  UNL     1      29.767  46.816   0.228  1.00  0.00    -0.066 NA
ENDBRANCH   1  15
TORSDOF 5
ENDMDL
MODEL 4
REMARK VINA RESULT: -7.202517485      2.486      3.921
REMARK  5 active torsions:
REMARK  status: ('A' for Active; 'I' for Inactive)
REMARK       I    between atoms: C2_2  and  N1_4 
REMARK    1  A    between atoms: N1_4  and  N2_6 
REMARK       I    between atoms: N2_6  and  C3_8 
REMARK    2  A    between atoms: C3_8  and  C4_10 
REMARK    3  A    between atoms: C4_10  and  N3_11 
REMARK    4  A    between atoms: C4_10  and  C5_15 
REMARK    5  A    between atoms: N3_11  and  N4_12 
REMARK       I    between atoms: C5_15  and  N5_17 
ROOT
HETATM    1  C4  UNL     1      29.088  47.511  -4.194  1.00  0.00     0.284 C 
ENDROOT
BRANCH   1   2
HETATM    2  C3  UNL     1      29.960  46.505  -4.860  1.00  0.00     0.266 C 
HETATM    3  N2  UNL     1      29.373  45.291  -5.292  1.00  0.00    -0.266 N 
ATOM      4  H2  UNL     1      28.376  45.140  -5.139  1.00  0.00     0.190 HD
HETATM    5  O2  UNL     1      31.185  46.802  -5.002  1.00  0.00    -0.269 OA
BRANCH   3   6
HETATM    6  N1  UNL     1      30.120  44.296  -5.920  1.00  0.00    -0.268 N 
HETATM    7  C2  UNL     1      30.136  44.225  -7.341  1.00  0.00     0.232 C 
HETATM    8  C1  UNL     1      30.933  43.166  -7.997  1.00  0.00     0.119 C 
HETATM    9  O1  UNL     1      29.494  45.030  -8.071  1.00  0.00    -0.272 OA
ATOM     10  H1  UNL     1      30.650  43.624  -5.366  1.00  0.00     0.190 HD
ENDBRANCH   3   6
ENDBRANCH   1   2
BRANCH   1  11
HETATM   11  N3  UNL     1      29.939  48.536  -3.617  1.00  0.00    -0.124 NA
BRANCH  11  12
HETATM   12  N4  UNL     1      30.300  49.526  -4.494  1.00  0.00    -0.347 N 
ATOM     13  H42 UNL     1      30.169  49.430  -5.502  1.00  0.00     0.172 HD
ATOM     14  H41 UNL     1      30.705  50.351  -4.051  1.00  0.00     0.172 HD
ENDBRANCH  11  12
ENDBRANCH   1  11
BRANCH   1  15
HETATM   15  C5  UNL     1      28.477  46.758  -3.018  1.00  0.00     0.254 C 
HETATM   16  O3  UNL     1      27.555  45.975  -3.273  1.00  0.00    -0.271 OA
HETATM   17  N5  UNL     1      29.022  47.034  -1.760  1.00  0.00    -0.302 N 
HETATM   18  C6  UNL     1      28.936  46.370  -0.685  1.00  0.00     0.203 C 
ATOM     19  H5  UNL     1      29.568  47.894  -1.701  1.00  0.00     0.171 HD
HETATM   20  N6  UNL     1      28.203  45.152  -0.650  1.00  0.00    -0.066 NA
HETATM   21  N7  UNL     1      29.587  46.916   0.451  1.00  0.00    -0.066 NA
ENDBRANCH   1  15
TORSDOF 5
ENDMDL
MODEL 5
REMARK VINA RESULT: -7.164837829      1.714      3.297
REMARK  5 active torsions:
REMARK  status: ('A' for Active; 'I' for Inactive)
REMARK       I    between atoms: C2_2  and  N1_4 
REMARK    1  A    between atoms: N1_4  and  N2_6 
REMARK       I    between atoms: N2_6  and  C3_8 
REMARK    2  A    between atoms: C3_8  and  C4_10 
REMARK    3  A    between atoms: C4_10  and  N3_11 
REMARK    4  A    between atoms: C4_10  and  C5_15 
REMARK    5  A    between atoms: N3_11  and  N4_12 
REMARK       I    between atoms: C5_15  and  N5_17 
ROOT
HETATM    1  C4  UNL     1      26.978  47.754  -3.587  1.00  0.00     0.284 C 
ENDROOT
BRANCH   1   2
HETATM    2  C3  UNL     1      28.273  47.309  -4.171  1.00  0.00     0.266 C 
HETATM    3  N2  UNL     1      28.407  45.949  -4.544  1.00  0.00    -0.266 N 
ATOM      4  H2  UNL     1      27.619  45.317  -4.406  1.00  0.00     0.190 HD
HETATM    5  O2  UNL     1      29.182  48.183  -4.303  1.00  0.00    -0.269 OA
BRANCH   3   6
HETATM    6  N1  UNL     1      29.586  45.451  -5.094  1.00  0.00    -0.268 N 
HETATM    7  C2  UNL     1      29.736  45.410  -6.508  1.00  0.00     0.232 C 
HETATM    8  C1  UNL     1      30.992  44.880  -7.081  1.00  0.00     0.119 C 
HETATM    9  O1  UNL     1      28.837  45.807  -7.301  1.00  0.00    -0.272 OA
ATOM     10  H1  UNL     1      30.336  45.117  -4.488  1.00  0.00     0.190 HD
ENDBRANCH   3   6
ENDBRANCH   1   2
BRANCH   1  11
HETATM   11  N3  UNL     1      27.021  49.199  -3.442  1.00  0.00    -0.124 NA
BRANCH  11  12
HETATM   12  N4  UNL     1      26.311  49.677  -2.371  1.00  0.00    -0.347 N 
ATOM     13  H42 UNL     1      26.243  49.162  -1.493  1.00  0.00     0.172 HD
ATOM     14  H41 UNL     1      25.866  50.580  -2.534  1.00  0.00     0.172 HD
ENDBRANCH  11  12
ENDBRANCH   1  11
BRANCH   1  15
HETATM   15  C5  UNL     1      26.989  47.186  -2.173  1.00  0.00     0.254 C 
HETATM   16  O3  UNL     1      25.927  46.719  -1.749  1.00  0.00    -0.271 OA
HETATM   17  N5  UNL     1      28.210  47.255  -1.492  1.00  0.00    -0.302 N 
HETATM   18  C6  UNL     1      28.593  46.618  -0.466  1.00  0.00     0.203 C 
ATOM     19  H5  UNL     1      28.888  47.912  -1.877  1.00  0.00     0.171 HD
HETATM   20  N6  UNL     1      27.731  45.671   0.155  1.00  0.00    -0.066 NA
HETATM   21  N7  UNL     1      29.893  46.915   0.015  1.00  0.00    -0.066 NA
ENDBRANCH   1  15
TORSDOF 5
ENDMDL
