MODEL 1
REMARK VINA RESULT: -7.423180107      0.000      0.000
REMARK  3 active torsions:
REMARK  status: ('A' for Active; 'I' for Inactive)
REMARK    1  A    between atoms: N1_1  and  N2_4 
REMARK       I    between atoms: N2_4  and  C1_6 
REMARK       I    between atoms: C1_6  and  N3_8 
REMARK       I    between atoms: C2_10  and  N4_11 
REMARK       I    between atoms: C2_10  and  N8_18 
REMARK    2  A    between atoms: N4_11  and  N5_13 
REMARK    3  A    between atoms: N8_18  and  N9_20 
ROOT
HETATM    1  N2  UNL     1      30.224  45.516  -4.891  1.00  0.00    -0.258 N 
ATOM      2  H2  UNL     1      30.774  45.051  -4.169  1.00  0.00     0.191 HD
HETATM    3  C1  UNL     1      28.986  46.105  -4.564  1.00  0.00     0.352 C 
HETATM    4  O1  UNL     1      28.340  46.673  -5.509  1.00  0.00    -0.245 OA
HETATM    5  N3  UNL     1      28.448  46.082  -3.240  1.00  0.00    -0.137 N 
ATOM      6  H3  UNL     1      28.165  45.203  -2.805  1.00  0.00     0.189 HD
HETATM    7  C2  UNL     1      28.329  47.187  -2.616  1.00  0.00     0.720 C 
HETATM    8  N4  UNL     1      28.727  48.387  -3.246  1.00  0.00    -0.128 N 
ATOM      9  H4  UNL     1      28.055  49.131  -3.430  1.00  0.00     0.205 HD
HETATM   10  N8  UNL     1      27.798  47.186  -1.302  1.00  0.00    -0.070 N 
ATOM     11  H8  UNL     1      27.821  46.337  -0.737  1.00  0.00     0.212 HD
ENDROOT
BRANCH   8  12
HETATM   12  N5  UNL     1      30.070  48.525  -3.609  1.00  0.00    -0.262 N 
HETATM   13  C3  UNL     1      31.010  48.717  -2.752  1.00  0.00     0.216 C 
HETATM   14  N6  UNL     1      30.691  48.796  -1.376  1.00  0.00    -0.065 NA
HETATM   15  N7  UNL     1      32.355  48.850  -3.157  1.00  0.00    -0.065 NA
ATOM     16  H5  UNL     1      30.316  48.470  -4.598  1.00  0.00     0.190 HD
ENDBRANCH   8  12
BRANCH  10  17
HETATM   17  N9  UNL     1      27.245  48.362  -0.789  1.00  0.00    -0.024 N 
HETATM   18  O2  UNL     1      27.622  48.795   0.319  1.00  0.00    -0.516 OA
HETATM   19  O3  UNL     1      26.278  49.058  -1.497  1.00  0.00    -0.516 OA
ENDBRANCH  10  17
BRANCH   1  20
HETATM   20  N1  UNL     1      30.697  45.570  -6.195  1.00  0.00    -0.341 N 
ATOM     21  H12 UNL     1      30.074  45.900  -6.932  1.00  0.00     0.177 HD
ATOM     22  H11 UNL     1      31.653  45.283  -6.405  1.00  0.00     0.177 HD
ENDBRANCH   1  20
TORSDOF 3
ENDMDL
MODEL 2
REMARK VINA RESULT: -7.113154625      2.122      3.554
REMARK  3 active torsions:
REMARK  status: ('A' for Active; 'I' for Inactive)
REMARK    1  A    between atoms: N1_1  and  N2_4 
REMARK       I    between atoms: N2_4  and  C1_6 
REMARK       I    between atoms: C1_6  and  N3_8 
REMARK       I    between atoms: C2_10  and  N4_11 
REMARK       I    between atoms: C2_10  and  N8_18 
REMARK    2  A    between atoms: N4_11  and  N5_13 
REMARK    3  A    between atoms: N8_18  and  N9_20 
ROOT
HETATM    1  N2  UNL     1      31.416  49.490  -4.490  1.00  0.00    -0.258 N 
ATOM      2  H2  UNL     1      30.585  49.997  -4.794  1.00  0.00     0.191 HD
HETATM    3  C1  UNL     1      31.453  48.903  -3.209  1.00  0.00     0.352 C 
HETATM    4  O1  UNL     1      32.520  48.281  -2.881  1.00  0.00    -0.245 OA
HETATM    5  N3  UNL     1      30.359  48.984  -2.292  1.00  0.00    -0.137 N 
ATOM      6  H3  UNL     1      30.076  49.878  -1.893  1.00  0.00     0.189 HD
HETATM    7  C2  UNL     1      29.747  47.909  -1.986  1.00  0.00     0.720 C 
HETATM    8  N4  UNL     1      30.164  46.685  -2.554  1.00  0.00    -0.128 N 
ATOM      9  H4  UNL     1      30.506  45.924  -1.967  1.00  0.00     0.205 HD
HETATM   10  N8  UNL     1      28.659  47.967  -1.079  1.00  0.00    -0.070 N 
ATOM     11  H8  UNL     1      28.158  48.843  -0.930  1.00  0.00     0.212 HD
ENDROOT
BRANCH   8  12
HETATM   12  N5  UNL     1      30.093  46.546  -3.943  1.00  0.00    -0.262 N 
HETATM   13  C3  UNL     1      29.011  46.218  -4.558  1.00  0.00     0.216 C 
HETATM   14  N6  UNL     1      27.832  45.982  -3.814  1.00  0.00    -0.065 NA
HETATM   15  N7  UNL     1      28.979  46.089  -5.963  1.00  0.00    -0.065 NA
ATOM     16  H5  UNL     1      30.935  46.714  -4.494  1.00  0.00     0.190 HD
ENDBRANCH   8  12
BRANCH  10  17
HETATM   17  N9  UNL     1      28.281  46.810  -0.391  1.00  0.00    -0.024 N 
HETATM   18  O2  UNL     1      29.119  46.194   0.298  1.00  0.00    -0.516 OA
HETATM   19  O3  UNL     1      26.981  46.336  -0.465  1.00  0.00    -0.516 OA
ENDBRANCH  10  17
BRANCH   1  20
HETATM   20  N1  UNL     1      32.509  49.379  -5.338  1.00  0.00    -0.341 N 
ATOM     21  H12 UNL     1      33.119  50.186  -5.464  1.00  0.00     0.177 HD
ATOM     22  H11 UNL     1      32.692  48.501  -5.823  1.00  0.00     0.177 HD
ENDBRANCH   1  20
TORSDOF 3
ENDMDL
MODEL 3
REMARK VINA RESULT: -6.928062975      1.895      4.647
REMARK  3 active torsions:
REMARK  status: ('A' for Active; 'I' for Inactive)
REMARK    1  A    between atoms: N1_1  and  N2_4 
REMARK       I    between atoms: N2_4  and  C1_6 
REMARK       I    between atoms: C1_6  and  N3_8 
REMARK       I    between atoms: C2_10  and  N4_11 
REMARK       I    between atoms: C2_10  and  N8_18 
REMARK    2  A    between atoms: N4_11  and  N5_13 
REMARK    3  A    between atoms: N8_18  and  N9_20 
ROOT
HETATM    1  N2  UNL     1      26.942  49.114  -3.048  1.00  0.00    -0.258 N 
ATOM      2  H2  UNL     1      27.129  49.772  -3.804  1.00  0.00     0.191 HD
HETATM    3  C1  UNL     1      27.003  47.727  -3.292  1.00  0.00     0.352 C 
HETATM    4  O1  UNL     1      26.760  46.947  -2.308  1.00  0.00    -0.245 OA
HETATM    5  N3  UNL     1      27.321  47.183  -4.576  1.00  0.00    -0.137 N 
ATOM      6  H3  UNL     1      26.693  47.313  -5.369  1.00  0.00     0.189 HD
HETATM    7  C2  UNL     1      28.408  46.532  -4.704  1.00  0.00     0.720 C 
HETATM    8  N4  UNL     1      29.257  46.368  -3.587  1.00  0.00    -0.128 N 
ATOM      9  H4  UNL     1      29.469  45.440  -3.221  1.00  0.00     0.205 HD
HETATM   10  N8  UNL     1      28.742  45.985  -5.969  1.00  0.00    -0.070 N 
ATOM     11  H8  UNL     1      28.327  46.364  -6.820  1.00  0.00     0.212 HD
ENDROOT
BRANCH   8  12
HETATM   12  N5  UNL     1      29.798  47.515  -2.998  1.00  0.00    -0.262 N 
HETATM   13  C3  UNL     1      30.032  47.608  -1.737  1.00  0.00     0.216 C 
HETATM   14  N6  UNL     1      29.736  46.514  -0.891  1.00  0.00    -0.065 NA
HETATM   15  N7  UNL     1      30.581  48.783  -1.180  1.00  0.00    -0.065 NA
ATOM     16  H5  UNL     1      30.018  48.312  -3.596  1.00  0.00     0.190 HD
ENDBRANCH   8  12
BRANCH  10  17
HETATM   17  N9  UNL     1      29.647  44.922  -6.036  1.00  0.00    -0.024 N 
HETATM   18  O2  UNL     1      30.845  45.105  -5.735  1.00  0.00    -0.516 OA
HETATM   19  O3  UNL     1      29.231  43.662  -6.433  1.00  0.00    -0.516 OA
ENDBRANCH  10  17
BRANCH   1  20
HETATM   20  N1  UNL     1      26.629  49.583  -1.781  1.00  0.00    -0.341 N 
ATOM     21  H12 UNL     1      27.385  49.752  -1.116  1.00  0.00     0.177 HD
ATOM     22  H11 UNL     1      25.657  49.755  -1.525  1.00  0.00     0.177 HD
ENDBRANCH   1  20
TORSDOF 3
ENDMDL
MODEL 4
REMARK VINA RESULT: -6.768416877      2.330      4.947
REMARK  3 active torsions:
REMARK  status: ('A' for Active; 'I' for Inactive)
REMARK    1  A    between atoms: N1_1  and  N2_4 
REMARK       I    between atoms: N2_4  and  C1_6 
REMARK       I    between atoms: C1_6  and  N3_8 
REMARK       I    between atoms: C2_10  and  N4_11 
REMARK       I    between atoms: C2_10  and  N8_18 
REMARK    2  A    between atoms: N4_11  and  N5_13 
REMARK    3  A    between atoms: N8_18  and  N9_20 
ROOT
HETATM    1  N2  UNL     1      27.187  49.162  -2.079  1.00  0.00    -0.258 N 
ATOM      2  H2  UNL     1      27.817  49.859  -2.475  1.00  0.00     0.191 HD
HETATM    3  C1  UNL     1      26.898  47.985  -2.798  1.00  0.00     0.352 C 
HETATM    4  O1  UNL     1      26.102  47.146  -2.253  1.00  0.00    -0.245 OA
HETATM    5  N3  UNL     1      27.455  47.712  -4.086  1.00  0.00    -0.137 N 
ATOM      6  H3  UNL     1      27.212  48.286  -4.894  1.00  0.00     0.189 HD
HETATM    7  C2  UNL     1      28.262  46.733  -4.201  1.00  0.00     0.720 C 
HETATM    8  N4  UNL     1      28.578  45.955  -3.065  1.00  0.00    -0.128 N 
ATOM      9  H4  UNL     1      28.353  44.961  -3.031  1.00  0.00     0.205 HD
HETATM   10  N8  UNL     1      28.826  46.446  -5.469  1.00  0.00    -0.070 N 
ATOM     11  H8  UNL     1      28.868  47.167  -6.190  1.00  0.00     0.212 HD
ENDROOT
BRANCH   8  12
HETATM   12  N5  UNL     1      29.209  46.588  -1.989  1.00  0.00    -0.262 N 
HETATM   13  C3  UNL     1      29.009  46.249  -0.765  1.00  0.00     0.216 C 
HETATM   14  N6  UNL     1      28.117  45.192  -0.472  1.00  0.00    -0.065 NA
HETATM   15  N7  UNL     1      29.665  46.911   0.294  1.00  0.00    -0.065 NA
ATOM     16  H5  UNL     1      29.855  47.353  -2.184  1.00  0.00     0.190 HD
ENDBRANCH   8  12
BRANCH  10  17
HETATM   17  N9  UNL     1      29.324  45.165  -5.721  1.00  0.00    -0.024 N 
HETATM   18  O2  UNL     1      28.552  44.184  -5.708  1.00  0.00    -0.516 OA
HETATM   19  O3  UNL     1      30.669  44.967  -5.989  1.00  0.00    -0.516 OA
ENDBRANCH  10  17
BRANCH   1  20
HETATM   20  N1  UNL     1      26.617  49.372  -0.831  1.00  0.00    -0.341 N 
ATOM     21  H12 UNL     1      26.884  50.201  -0.300  1.00  0.00     0.177 HD
ATOM     22  H11 UNL     1      25.943  48.704  -0.458  1.00  0.00     0.177 HD
ENDBRANCH   1  20
TORSDOF 3
ENDMDL
MODEL 5
REMARK VINA RESULT: -6.676998989      2.287      3.700
REMARK  3 active torsions:
REMARK  status: ('A' for Active; 'I' for Inactive)
REMARK    1  A    between atoms: N1_1  and  N2_4 
REMARK       I    between atoms: N2_4  and  C1_6 
REMARK       I    between atoms: C1_6  and  N3_8 
REMARK       I    between atoms: C2_10  and  N4_11 
REMARK       I    between atoms: C2_10  and  N8_18 
REMARK    2  A    between atoms: N4_11  and  N5_13 
REMARK    3  A    between atoms: N8_18  and  N9_20 
ROOT
HETATM    1  N2  UNL     1      30.746  49.433  -5.477  1.00  0.00    -0.258 N 
ATOM      2  H2  UNL     1      29.781  49.689  -5.684  1.00  0.00     0.191 HD
HETATM    3  C1  UNL     1      31.102  49.024  -4.176  1.00  0.00     0.352 C 
HETATM    4  O1  UNL     1      32.327  48.716  -3.973  1.00  0.00    -0.245 OA
HETATM    5  N3  UNL     1      30.157  48.947  -3.106  1.00  0.00    -0.137 N 
ATOM      6  H3  UNL     1      29.713  49.789  -2.738  1.00  0.00     0.189 HD
HETATM    7  C2  UNL     1      29.884  47.801  -2.623  1.00  0.00     0.720 C 
HETATM    8  N4  UNL     1      30.516  46.654  -3.151  1.00  0.00    -0.128 N 
ATOM      9  H4  UNL     1      31.115  46.069  -2.569  1.00  0.00     0.205 HD
HETATM   10  N8  UNL     1      28.949  47.703  -1.562  1.00  0.00    -0.070 N 
ATOM     11  H8  UNL     1      28.267  48.445  -1.404  1.00  0.00     0.212 HD
ENDROOT
BRANCH   8  12
HETATM   12  N5  UNL     1      30.296  46.343  -4.497  1.00  0.00    -0.262 N 
HETATM   13  C3  UNL     1      29.139  46.021  -4.958  1.00  0.00     0.216 C 
HETATM   14  N6  UNL     1      28.029  45.973  -4.084  1.00  0.00    -0.065 NA
HETATM   15  N7  UNL     1      28.956  45.714  -6.324  1.00  0.00    -0.065 NA
ATOM     16  H5  UNL     1      31.087  46.373  -5.140  1.00  0.00     0.190 HD
ENDBRANCH   8  12
BRANCH  10  17
HETATM   17  N9  UNL     1      28.971  46.577  -0.734  1.00  0.00    -0.024 N 
HETATM   18  O2  UNL     1      28.442  45.513  -1.116  1.00  0.00    -0.516 OA
HETATM   19  O3  UNL     1      29.576  46.625   0.512  1.00  0.00    -0.516 OA
ENDBRANCH  10  17
BRANCH   1  20
HETATM   20  N1  UNL     1      31.707  49.488  -6.476  1.00  0.00    -0.341 N 
ATOM     21  H12 UNL     1      32.536  48.898  -6.397  1.00  0.00     0.177 HD
ATOM     22  H11 UNL     1      31.580  50.111  -7.274  1.00  0.00     0.177 HD
ENDBRANCH   1  20
TORSDOF 3
ENDMDL
