MODEL 1
REMARK VINA RESULT: -6.662643671      0.000      0.000
REMARK  4 active torsions:
REMARK  status: ('A' for Active; 'I' for Inactive)
REMARK       I    between atoms: N1_2  and  C2_4 
REMARK       I    between atoms: C2_4  and  N2_6 
REMARK    1  A    between atoms: N2_6  and  N3_8 
REMARK       I    between atoms: N3_8  and  C3_10 
REMARK    2  A    between atoms: C3_10  and  C4_12 
REMARK    3  A    between atoms: C4_12  and  N4_13 
REMARK       I    between atoms: N4_13  and  C5_15 
REMARK    4  A    between atoms: C5_15  and  C6_17 
ROOT
HETATM    1  N3  UNL     1      29.585  48.697  -4.049  1.00  0.00    -0.265 N 
ATOM      2  H3  UNL     1      29.067  48.766  -3.173  1.00  0.00     0.190 HD
HETATM    3  C3  UNL     1      29.522  47.509  -4.801  1.00  0.00     0.253 C 
HETATM    4  O2  UNL     1      30.148  47.409  -5.878  1.00  0.00    -0.270 OA
ENDROOT
BRANCH   3   5
HETATM    5  C4  UNL     1      28.713  46.388  -4.315  1.00  0.00     0.227 C 
BRANCH   5   6
HETATM    6  N4  UNL     1      28.807  46.141  -2.898  1.00  0.00    -0.344 N 
HETATM    7  C5  UNL     1      27.962  46.701  -1.911  1.00  0.00     0.307 C 
HETATM    8  O3  UNL     1      27.057  47.480  -2.290  1.00  0.00    -0.263 OA
ATOM      9  H4  UNL     1      29.544  45.511  -2.581  1.00  0.00     0.163 HD
BRANCH   7  10
HETATM   10  C6  UNL     1      28.094  46.418  -0.499  1.00  0.00     0.322 C 
HETATM   11  N5  UNL     1      28.195  47.478   0.437  1.00  0.00    -0.053 NA
HETATM   12  O4  UNL     1      28.126  45.244  -0.050  1.00  0.00    -0.266 OA
ENDBRANCH   7  10
ENDBRANCH   5   6
ENDBRANCH   3   5
BRANCH   1  13
HETATM   13  N2  UNL     1      30.344  49.782  -4.484  1.00  0.00    -0.249 N 
HETATM   14  C2  UNL     1      31.609  50.037  -3.897  1.00  0.00     0.334 C 
HETATM   15  N1  UNL     1      32.434  51.124  -4.294  1.00  0.00    -0.346 N 
HETATM   16  O1  UNL     1      32.041  49.284  -2.985  1.00  0.00    -0.246 OA
HETATM   17  C1  UNL     1      33.717  51.374  -3.691  1.00  0.00     0.151 C 
ATOM     18  H1  UNL     1      32.106  51.748  -5.032  1.00  0.00     0.163 HD
ATOM     19  H2  UNL     1      29.991  50.389  -5.223  1.00  0.00     0.192 HD
ENDBRANCH   1  13
TORSDOF 4
ENDMDL
MODEL 2
REMARK VINA RESULT: -6.531966828      3.478      5.059
REMARK  4 active torsions:
REMARK  status: ('A' for Active; 'I' for Inactive)
REMARK       I    between atoms: N1_2  and  C2_4 
REMARK       I    between atoms: C2_4  and  N2_6 
REMARK    1  A    between atoms: N2_6  and  N3_8 
REMARK       I    between atoms: N3_8  and  C3_10 
REMARK    2  A    between atoms: C3_10  and  C4_12 
REMARK    3  A    between atoms: C4_12  and  N4_13 
REMARK       I    between atoms: N4_13  and  C5_15 
REMARK    4  A    between atoms: C5_15  and  C6_17 
ROOT
HETATM    1  N3  UNL     1      29.309  44.406  -5.647  1.00  0.00    -0.265 N 
ATOM      2  H3  UNL     1      28.350  44.065  -5.596  1.00  0.00     0.190 HD
HETATM    3  C3  UNL     1      29.635  45.651  -5.075  1.00  0.00     0.253 C 
HETATM    4  O2  UNL     1      30.807  46.083  -5.127  1.00  0.00    -0.270 OA
ENDROOT
BRANCH   3   5
HETATM    5  C4  UNL     1      28.591  46.438  -4.415  1.00  0.00     0.227 C 
BRANCH   5   6
HETATM    6  N4  UNL     1      28.393  46.135  -3.020  1.00  0.00    -0.344 N 
HETATM    7  C5  UNL     1      28.949  46.856  -1.937  1.00  0.00     0.307 C 
HETATM    8  O3  UNL     1      29.680  47.838  -2.203  1.00  0.00    -0.263 OA
ATOM      9  H4  UNL     1      27.802  45.334  -2.795  1.00  0.00     0.163 HD
BRANCH   7  10
HETATM   10  C6  UNL     1      28.715  46.514  -0.552  1.00  0.00     0.322 C 
HETATM   11  N5  UNL     1      27.485  45.928  -0.158  1.00  0.00    -0.053 NA
HETATM   12  O4  UNL     1      29.574  46.716   0.344  1.00  0.00    -0.266 OA
ENDBRANCH   7  10
ENDBRANCH   5   6
ENDBRANCH   3   5
BRANCH   1  13
HETATM   13  N2  UNL     1      30.280  43.633  -6.281  1.00  0.00    -0.249 N 
HETATM   14  C2  UNL     1      30.520  43.803  -7.669  1.00  0.00     0.334 C 
HETATM   15  N1  UNL     1      31.494  43.049  -8.377  1.00  0.00    -0.346 N 
HETATM   16  O1  UNL     1      29.856  44.650  -8.322  1.00  0.00    -0.246 OA
HETATM   17  C1  UNL     1      31.729  43.229  -9.786  1.00  0.00     0.151 C 
ATOM     18  H1  UNL     1      32.046  42.356  -7.870  1.00  0.00     0.163 HD
ATOM     19  H2  UNL     1      30.816  42.948  -5.750  1.00  0.00     0.192 HD
ENDBRANCH   1  13
TORSDOF 4
ENDMDL
MODEL 3
REMARK VINA RESULT: -6.496953147      2.152      2.336
REMARK  4 active torsions:
REMARK  status: ('A' for Active; 'I' for Inactive)
REMARK       I    between atoms: N1_2  and  C2_4 
REMARK       I    between atoms: C2_4  and  N2_6 
REMARK    1  A    between atoms: N2_6  and  N3_8 
REMARK       I    between atoms: N3_8  and  C3_10 
REMARK    2  A    between atoms: C3_10  and  C4_12 
REMARK    3  A    between atoms: C4_12  and  N4_13 
REMARK       I    between atoms: N4_13  and  C5_15 
REMARK    4  A    between atoms: C5_15  and  C6_17 
ROOT
HETATM    1  N3  UNL     1      31.089  49.777  -3.881  1.00  0.00    -0.265 N 
ATOM      2  H3  UNL     1      31.645  49.851  -3.030  1.00  0.00     0.190 HD
HETATM    3  C3  UNL     1      30.676  48.509  -4.332  1.00  0.00     0.253 C 
HETATM    4  O2  UNL     1      29.992  48.400  -5.372  1.00  0.00    -0.270 OA
ENDROOT
BRANCH   3   5
HETATM    5  C4  UNL     1      31.051  47.314  -3.572  1.00  0.00     0.227 C 
BRANCH   5   6
HETATM    6  N4  UNL     1      30.053  46.846  -2.644  1.00  0.00    -0.344 N 
HETATM    7  C5  UNL     1      29.777  47.418  -1.380  1.00  0.00     0.307 C 
HETATM    8  O3  UNL     1      30.454  48.411  -1.027  1.00  0.00    -0.263 OA
ATOM      9  H4  UNL     1      29.500  46.035  -2.922  1.00  0.00     0.163 HD
BRANCH   7  10
HETATM   10  C6  UNL     1      28.759  46.914  -0.485  1.00  0.00     0.322 C 
HETATM   11  N5  UNL     1      28.450  45.530  -0.462  1.00  0.00    -0.053 NA
HETATM   12  O4  UNL     1      28.118  47.664   0.293  1.00  0.00    -0.266 OA
ENDBRANCH   7  10
ENDBRANCH   5   6
ENDBRANCH   3   5
BRANCH   1  13
HETATM   13  N2  UNL     1      30.747  50.933  -4.582  1.00  0.00    -0.249 N 
HETATM   14  C2  UNL     1      31.493  52.123  -4.383  1.00  0.00     0.334 C 
HETATM   15  N1  UNL     1      31.198  53.335  -5.065  1.00  0.00    -0.346 N 
HETATM   16  O1  UNL     1      32.458  52.131  -3.576  1.00  0.00    -0.246 OA
HETATM   17  C1  UNL     1      31.961  54.538  -4.855  1.00  0.00     0.151 C 
ATOM     18  H1  UNL     1      30.420  53.353  -5.725  1.00  0.00     0.163 HD
ATOM     19  H2  UNL     1      29.964  50.922  -5.235  1.00  0.00     0.192 HD
ENDBRANCH   1  13
TORSDOF 4
ENDMDL
MODEL 4
REMARK VINA RESULT: -6.475615922      3.494      4.516
REMARK  4 active torsions:
REMARK  status: ('A' for Active; 'I' for Inactive)
REMARK       I    between atoms: N1_2  and  C2_4 
REMARK       I    between atoms: C2_4  and  N2_6 
REMARK    1  A    between atoms: N2_6  and  N3_8 
REMARK       I    between atoms: N3_8  and  C3_10 
REMARK    2  A    between atoms: C3_10  and  C4_12 
REMARK    3  A    between atoms: C4_12  and  N4_13 
REMARK       I    between atoms: N4_13  and  C5_15 
REMARK    4  A    between atoms: C5_15  and  C6_17 
ROOT
HETATM    1  N3  UNL     1      29.385  44.761  -5.900  1.00  0.00    -0.265 N 
ATOM      2  H3  UNL     1      28.618  44.089  -5.921  1.00  0.00     0.190 HD
HETATM    3  C3  UNL     1      29.274  45.915  -5.100  1.00  0.00     0.253 C 
HETATM    4  O2  UNL     1      30.204  46.748  -5.061  1.00  0.00    -0.270 OA
ENDROOT
BRANCH   3   5
HETATM    5  C4  UNL     1      28.059  46.132  -4.310  1.00  0.00     0.227 C 
BRANCH   5   6
HETATM    6  N4  UNL     1      28.172  45.785  -2.916  1.00  0.00    -0.344 N 
HETATM    7  C5  UNL     1      28.434  46.693  -1.862  1.00  0.00     0.307 C 
HETATM    8  O3  UNL     1      28.585  47.901  -2.157  1.00  0.00    -0.263 OA
ATOM      9  H4  UNL     1      28.054  44.802  -2.668  1.00  0.00     0.163 HD
BRANCH   7  10
HETATM   10  C6  UNL     1      28.532  46.294  -0.476  1.00  0.00     0.322 C 
HETATM   11  N5  UNL     1      29.559  46.820   0.348  1.00  0.00    -0.053 NA
HETATM   12  O4  UNL     1      27.729  45.480   0.047  1.00  0.00    -0.266 OA
ENDBRANCH   7  10
ENDBRANCH   5   6
ENDBRANCH   3   5
BRANCH   1  13
HETATM   13  N2  UNL     1      30.527  44.525  -6.662  1.00  0.00    -0.249 N 
HETATM   14  C2  UNL     1      30.559  44.922  -8.024  1.00  0.00     0.334 C 
HETATM   15  N1  UNL     1      31.691  44.712  -8.857  1.00  0.00    -0.346 N 
HETATM   16  O1  UNL     1      29.557  45.484  -8.537  1.00  0.00    -0.246 OA
HETATM   17  C1  UNL     1      31.713  45.119 -10.238  1.00  0.00     0.151 C 
ATOM     18  H1  UNL     1      32.516  44.259  -8.463  1.00  0.00     0.163 HD
ATOM     19  H2  UNL     1      31.337  44.069  -6.243  1.00  0.00     0.192 HD
ENDBRANCH   1  13
TORSDOF 4
ENDMDL
MODEL 5
REMARK VINA RESULT: -6.444092709      2.090      2.533
REMARK  4 active torsions:
REMARK  status: ('A' for Active; 'I' for Inactive)
REMARK       I    between atoms: N1_2  and  C2_4 
REMARK       I    between atoms: C2_4  and  N2_6 
REMARK    1  A    between atoms: N2_6  and  N3_8 
REMARK       I    between atoms: N3_8  and  C3_10 
REMARK    2  A    between atoms: C3_10  and  C4_12 
REMARK    3  A    between atoms: C4_12  and  N4_13 
REMARK       I    between atoms: N4_13  and  C5_15 
REMARK    4  A    between atoms: C5_15  and  C6_17 
ROOT
HETATM    1  N3  UNL     1      31.057  49.838  -3.496  1.00  0.00    -0.265 N 
ATOM      2  H3  UNL     1      30.090  49.873  -3.815  1.00  0.00     0.190 HD
HETATM    3  C3  UNL     1      31.653  48.592  -3.222  1.00  0.00     0.253 C 
HETATM    4  O2  UNL     1      32.839  48.531  -2.831  1.00  0.00    -0.270 OA
ENDROOT
BRANCH   3   5
HETATM    5  C4  UNL     1      30.874  47.364  -3.399  1.00  0.00     0.227 C 
BRANCH   5   6
HETATM    6  N4  UNL     1      30.266  46.852  -2.197  1.00  0.00    -0.344 N 
HETATM    7  C5  UNL     1      29.059  47.320  -1.625  1.00  0.00     0.307 C 
HETATM    8  O3  UNL     1      28.465  48.259  -2.203  1.00  0.00    -0.263 OA
ATOM      9  H4  UNL     1      30.746  46.089  -1.718  1.00  0.00     0.163 HD
BRANCH   7  10
HETATM   10  C6  UNL     1      28.487  46.768  -0.418  1.00  0.00     0.322 C 
HETATM   11  N5  UNL     1      28.238  45.376  -0.316  1.00  0.00    -0.053 NA
HETATM   12  O4  UNL     1      28.191  47.484   0.573  1.00  0.00    -0.266 OA
ENDBRANCH   7  10
ENDBRANCH   5   6
ENDBRANCH   3   5
BRANCH   1  13
HETATM   13  N2  UNL     1      31.772  51.024  -3.338  1.00  0.00    -0.249 N 
HETATM   14  C2  UNL     1      31.562  52.098  -4.241  1.00  0.00     0.334 C 
HETATM   15  N1  UNL     1      32.257  53.334  -4.136  1.00  0.00    -0.346 N 
HETATM   16  O1  UNL     1      30.734  51.976  -5.180  1.00  0.00    -0.246 OA
HETATM   17  C1  UNL     1      32.037  54.418  -5.058  1.00  0.00     0.151 C 
ATOM     18  H1  UNL     1      32.934  53.457  -3.383  1.00  0.00     0.163 HD
ATOM     19  H2  UNL     1      32.443  51.119  -2.576  1.00  0.00     0.192 HD
ENDBRANCH   1  13
TORSDOF 4
ENDMDL
