MODEL 1
REMARK VINA RESULT: -7.543217022      0.000      0.000
REMARK  4 active torsions:
REMARK  status: ('A' for Active; 'I' for Inactive)
REMARK    1  A    between atoms: N2_4  and  N3_6 
REMARK       I    between atoms: N3_6  and  C1_8 
REMARK    2  A    between atoms: N5_10  and  N6_12 
REMARK       I    between atoms: N6_12  and  C2_14 
REMARK       I    between atoms: C2_14  and  N8_18 
REMARK       I    between atoms: N8_18  and  C3_20 
REMARK    3  A    between atoms: C3_20  and  O2_22 
REMARK    4  A    between atoms: O2_22  and  C4_23 
ROOT
HETATM    1  N6  UNL     1      29.915  47.409  -3.259  1.00  0.00    -0.130 N 
ATOM      2  H6  UNL     1      29.252  48.140  -3.517  1.00  0.00     0.205 HD
HETATM    3  C2  UNL     1      30.923  47.027  -4.171  1.00  0.00     0.695 C 
HETATM    4  N7  UNL     1      30.702  46.003  -4.935  1.00  0.00    -0.233 N 
ATOM      5  H71 UNL     1      31.430  45.728  -5.594  1.00  0.00     0.174 HD
ATOM      6  H72 UNL     1      29.834  45.469  -4.902  1.00  0.00     0.174 HD
HETATM    7  N8  UNL     1      32.124  47.768  -4.216  1.00  0.00    -0.134 N 
ATOM      8  H8  UNL     1      32.859  47.501  -4.871  1.00  0.00     0.189 HD
HETATM    9  C3  UNL     1      32.314  48.868  -3.367  1.00  0.00     0.387 C 
HETATM   10  O1  UNL     1      31.471  49.275  -2.530  1.00  0.00    -0.237 OA
ENDROOT
BRANCH   1  11
HETATM   11  N5  UNL     1      29.816  46.803  -2.018  1.00  0.00    -0.258 N 
HETATM   12  C1  UNL     1      29.192  47.412  -1.046  1.00  0.00     0.223 C 
HETATM   13  N3  UNL     1      28.610  48.695  -1.240  1.00  0.00    -0.258 N 
HETATM   14  N4  UNL     1      29.095  46.790   0.215  1.00  0.00    -0.061 NA
ATOM     15  H3  UNL     1      29.132  49.427  -1.721  1.00  0.00     0.191 HD
ATOM     16  H5  UNL     1      30.230  45.883  -1.863  1.00  0.00     0.190 HD
BRANCH  13  17
HETATM   17  N2  UNL     1      27.333  48.942  -0.775  1.00  0.00    -0.247 N 
HETATM   18  N1  UNL     1      26.501  49.570  -1.484  1.00  0.00    -0.331 N 
ATOM     19  H12 UNL     1      26.790  49.893  -2.408  1.00  0.00     0.178 HD
ATOM     20  H11 UNL     1      25.558  49.752  -1.141  1.00  0.00     0.178 HD
ATOM     21  H2  UNL     1      27.060  48.612   0.151  1.00  0.00     0.207 HD
ENDBRANCH  13  17
ENDBRANCH   1  11
BRANCH   9  22
HETATM   22  O2  UNL     1      33.506  49.573  -3.439  1.00  0.00    -0.211 OA
BRANCH  22  23
HETATM   23  C4  UNL     1      34.740  48.936  -3.575  1.00  0.00     0.381 C 
HETATM   24  N9  UNL     1      35.522  48.638  -2.423  1.00  0.00    -0.032 NA
HETATM   25  O3  UNL     1      35.137  48.635  -4.731  1.00  0.00    -0.242 OA
ENDBRANCH  22  23
ENDBRANCH   9  22
TORSDOF 4
ENDMDL
MODEL 2
REMARK VINA RESULT: -7.206432480      1.177      1.177
REMARK  4 active torsions:
REMARK  status: ('A' for Active; 'I' for Inactive)
REMARK    1  A    between atoms: N2_4  and  N3_6 
REMARK       I    between atoms: N3_6  and  C1_8 
REMARK    2  A    between atoms: N5_10  and  N6_12 
REMARK       I    between atoms: N6_12  and  C2_14 
REMARK       I    between atoms: C2_14  and  N8_18 
REMARK       I    between atoms: N8_18  and  C3_20 
REMARK    3  A    between atoms: C3_20  and  O2_22 
REMARK    4  A    between atoms: O2_22  and  C4_23 
ROOT
HETATM    1  N6  UNL     1      29.103  47.096  -3.243  1.00  0.00    -0.130 N 
ATOM      2  H6  UNL     1      28.691  47.991  -3.510  1.00  0.00     0.205 HD
HETATM    3  C2  UNL     1      30.080  46.503  -4.073  1.00  0.00     0.695 C 
HETATM    4  N7  UNL     1      29.694  45.616  -4.936  1.00  0.00    -0.233 N 
ATOM      5  H71 UNL     1      30.400  45.188  -5.535  1.00  0.00     0.174 HD
ATOM      6  H72 UNL     1      28.719  45.334  -5.039  1.00  0.00     0.174 HD
HETATM    7  N8  UNL     1      31.429  46.894  -3.931  1.00  0.00    -0.134 N 
ATOM      8  H8  UNL     1      32.143  46.472  -4.526  1.00  0.00     0.189 HD
HETATM    9  C3  UNL     1      31.795  47.858  -2.981  1.00  0.00     0.387 C 
HETATM   10  O1  UNL     1      30.992  48.434  -2.206  1.00  0.00    -0.237 OA
ENDROOT
BRANCH   1  11
HETATM   11  N5  UNL     1      28.697  46.477  -2.073  1.00  0.00    -0.258 N 
HETATM   12  C1  UNL     1      28.230  47.195  -1.088  1.00  0.00     0.223 C 
HETATM   13  N3  UNL     1      28.131  48.609  -1.196  1.00  0.00    -0.258 N 
HETATM   14  N4  UNL     1      27.819  46.560   0.101  1.00  0.00    -0.061 NA
ATOM     15  H3  UNL     1      28.908  49.151  -1.573  1.00  0.00     0.191 HD
ATOM     16  H5  UNL     1      28.763  45.463  -1.981  1.00  0.00     0.190 HD
BRANCH  13  17
HETATM   17  N2  UNL     1      26.974  49.245  -0.787  1.00  0.00    -0.247 N 
HETATM   18  N1  UNL     1      26.215  49.800  -1.628  1.00  0.00    -0.331 N 
ATOM     19  H12 UNL     1      26.472  49.771  -2.615  1.00  0.00     0.178 HD
ATOM     20  H11 UNL     1      25.361  50.269  -1.326  1.00  0.00     0.178 HD
ATOM     21  H2  UNL     1      26.732  49.266   0.204  1.00  0.00     0.207 HD
ENDBRANCH  13  17
ENDBRANCH   1  11
BRANCH   9  22
HETATM   22  O2  UNL     1      33.129  48.219  -2.870  1.00  0.00    -0.211 OA
BRANCH  22  23
HETATM   23  C4  UNL     1      33.784  48.959  -3.856  1.00  0.00     0.381 C 
HETATM   24  N9  UNL     1      34.121  50.323  -3.621  1.00  0.00    -0.032 NA
HETATM   25  O3  UNL     1      34.066  48.394  -4.944  1.00  0.00    -0.242 OA
ENDBRANCH  22  23
ENDBRANCH   9  22
TORSDOF 4
ENDMDL
MODEL 3
REMARK VINA RESULT: -7.139017392      4.641      5.791
REMARK  4 active torsions:
REMARK  status: ('A' for Active; 'I' for Inactive)
REMARK    1  A    between atoms: N2_4  and  N3_6 
REMARK       I    between atoms: N3_6  and  C1_8 
REMARK    2  A    between atoms: N5_10  and  N6_12 
REMARK       I    between atoms: N6_12  and  C2_14 
REMARK       I    between atoms: C2_14  and  N8_18 
REMARK       I    between atoms: N8_18  and  C3_20 
REMARK    3  A    between atoms: C3_20  and  O2_22 
REMARK    4  A    between atoms: O2_22  and  C4_23 
ROOT
HETATM    1  N6  UNL     1      30.398  45.661  -5.539  1.00  0.00    -0.130 N 
ATOM      2  H6  UNL     1      31.269  45.522  -5.027  1.00  0.00     0.205 HD
HETATM    3  C2  UNL     1      30.441  46.081  -6.887  1.00  0.00     0.695 C 
HETATM    4  N7  UNL     1      30.326  47.348  -7.137  1.00  0.00    -0.233 N 
ATOM      5  H71 UNL     1      30.357  47.652  -8.110  1.00  0.00     0.174 HD
ATOM      6  H72 UNL     1      30.208  48.047  -6.403  1.00  0.00     0.174 HD
HETATM    7  N8  UNL     1      30.605  45.115  -7.903  1.00  0.00    -0.134 N 
ATOM      8  H8  UNL     1      30.638  45.408  -8.879  1.00  0.00     0.189 HD
HETATM    9  C3  UNL     1      30.725  43.755  -7.579  1.00  0.00     0.387 C 
HETATM   10  O1  UNL     1      30.698  43.297  -6.410  1.00  0.00    -0.237 OA
ENDROOT
BRANCH   1  11
HETATM   11  N5  UNL     1      29.187  45.435  -4.906  1.00  0.00    -0.258 N 
HETATM   12  C1  UNL     1      28.721  46.318  -4.064  1.00  0.00     0.223 C 
HETATM   13  N3  UNL     1      29.441  47.511  -3.783  1.00  0.00    -0.258 N 
HETATM   14  N4  UNL     1      27.489  46.082  -3.423  1.00  0.00    -0.061 NA
ATOM     15  H3  UNL     1      30.443  47.476  -3.602  1.00  0.00     0.191 HD
ATOM     16  H5  UNL     1      28.661  44.582  -5.098  1.00  0.00     0.190 HD
BRANCH  13  17
HETATM   17  N2  UNL     1      28.771  48.720  -3.757  1.00  0.00    -0.247 N 
HETATM   18  N1  UNL     1      27.744  48.871  -3.040  1.00  0.00    -0.331 N 
ATOM     19  H12 UNL     1      27.417  48.083  -2.480  1.00  0.00     0.178 HD
ATOM     20  H11 UNL     1      27.251  49.763  -3.021  1.00  0.00     0.178 HD
ATOM     21  H2  UNL     1      29.111  49.498  -4.322  1.00  0.00     0.207 HD
ENDBRANCH  13  17
ENDBRANCH   1  11
BRANCH   9  22
HETATM   22  O2  UNL     1      30.886  42.834  -8.602  1.00  0.00    -0.211 OA
BRANCH  22  23
HETATM   23  C4  UNL     1      31.843  42.995  -9.605  1.00  0.00     0.381 C 
HETATM   24  N9  UNL     1      31.838  44.166 -10.416  1.00  0.00    -0.032 NA
HETATM   25  O3  UNL     1      32.700  42.090  -9.770  1.00  0.00    -0.242 OA
ENDBRANCH  22  23
ENDBRANCH   9  22
TORSDOF 4
ENDMDL
MODEL 4
REMARK VINA RESULT: -7.135948458      3.387      4.460
REMARK  4 active torsions:
REMARK  status: ('A' for Active; 'I' for Inactive)
REMARK    1  A    between atoms: N2_4  and  N3_6 
REMARK       I    between atoms: N3_6  and  C1_8 
REMARK    2  A    between atoms: N5_10  and  N6_12 
REMARK       I    between atoms: N6_12  and  C2_14 
REMARK       I    between atoms: C2_14  and  N8_18 
REMARK       I    between atoms: N8_18  and  C3_20 
REMARK    3  A    between atoms: C3_20  and  O2_22 
REMARK    4  A    between atoms: O2_22  and  C4_23 
ROOT
HETATM    1  N6  UNL     1      29.378  47.365  -3.534  1.00  0.00    -0.130 N 
ATOM      2  H6  UNL     1      30.020  48.087  -3.859  1.00  0.00     0.205 HD
HETATM    3  C2  UNL     1      28.295  46.973  -4.352  1.00  0.00     0.695 C 
HETATM    4  N7  UNL     1      27.142  47.529  -4.149  1.00  0.00    -0.233 N 
ATOM      5  H71 UNL     1      26.360  47.246  -4.740  1.00  0.00     0.174 HD
ATOM      6  H72 UNL     1      26.989  48.234  -3.428  1.00  0.00     0.174 HD
HETATM    7  N8  UNL     1      28.508  45.998  -5.350  1.00  0.00    -0.134 N 
ATOM      8  H8  UNL     1      27.732  45.708  -5.947  1.00  0.00     0.189 HD
HETATM    9  C3  UNL     1      29.775  45.425  -5.529  1.00  0.00     0.387 C 
HETATM   10  O1  UNL     1      30.790  45.716  -4.847  1.00  0.00    -0.237 OA
ENDROOT
BRANCH   1  11
HETATM   11  N5  UNL     1      29.578  46.779  -2.295  1.00  0.00    -0.258 N 
HETATM   12  C1  UNL     1      29.219  47.414  -1.212  1.00  0.00     0.223 C 
HETATM   13  N3  UNL     1      28.625  48.704  -1.283  1.00  0.00    -0.258 N 
HETATM   14  N4  UNL     1      29.425  46.813   0.046  1.00  0.00    -0.061 NA
ATOM     15  H3  UNL     1      29.024  49.420  -1.890  1.00  0.00     0.191 HD
ATOM     16  H5  UNL     1      30.004  45.854  -2.228  1.00  0.00     0.190 HD
BRANCH  13  17
HETATM   17  N2  UNL     1      27.504  48.981  -0.524  1.00  0.00    -0.247 N 
HETATM   18  N1  UNL     1      26.519  49.586  -1.030  1.00  0.00    -0.331 N 
ATOM     19  H12 UNL     1      26.567  49.867  -2.009  1.00  0.00     0.178 HD
ATOM     20  H11 UNL     1      25.692  49.791  -0.470  1.00  0.00     0.178 HD
ATOM     21  H2  UNL     1      27.472  48.693   0.454  1.00  0.00     0.207 HD
ENDBRANCH  13  17
ENDBRANCH   1  11
BRANCH   9  22
HETATM   22  O2  UNL     1      29.948  44.471  -6.520  1.00  0.00    -0.211 OA
BRANCH  22  23
HETATM   23  C4  UNL     1      30.150  44.816  -7.857  1.00  0.00     0.381 C 
HETATM   24  N9  UNL     1      31.283  44.319  -8.561  1.00  0.00    -0.032 NA
HETATM   25  O3  UNL     1      29.311  45.569  -8.417  1.00  0.00    -0.242 OA
ENDBRANCH  22  23
ENDBRANCH   9  22
TORSDOF 4
ENDMDL
MODEL 5
REMARK VINA RESULT: -7.125498811      3.743      5.040
REMARK  4 active torsions:
REMARK  status: ('A' for Active; 'I' for Inactive)
REMARK    1  A    between atoms: N2_4  and  N3_6 
REMARK       I    between atoms: N3_6  and  C1_8 
REMARK    2  A    between atoms: N5_10  and  N6_12 
REMARK       I    between atoms: N6_12  and  C2_14 
REMARK       I    between atoms: C2_14  and  N8_18 
REMARK       I    between atoms: N8_18  and  C3_20 
REMARK    3  A    between atoms: C3_20  and  O2_22 
REMARK    4  A    between atoms: O2_22  and  C4_23 
ROOT
HETATM    1  N6  UNL     1      29.769  47.010  -3.501  1.00  0.00    -0.130 N 
ATOM      2  H6  UNL     1      29.689  46.276  -2.797  1.00  0.00     0.205 HD
HETATM    3  C2  UNL     1      30.793  46.938  -4.470  1.00  0.00     0.695 C 
HETATM    4  N7  UNL     1      31.895  47.584  -4.246  1.00  0.00    -0.233 N 
ATOM      5  H71 UNL     1      32.635  47.532  -4.946  1.00  0.00     0.174 HD
ATOM      6  H72 UNL     1      32.048  48.136  -3.402  1.00  0.00     0.174 HD
HETATM    7  N8  UNL     1      30.581  46.174  -5.638  1.00  0.00    -0.134 N 
ATOM      8  H8  UNL     1      31.314  46.115  -6.345  1.00  0.00     0.189 HD
HETATM    9  C3  UNL     1      29.370  45.494  -5.833  1.00  0.00     0.387 C 
HETATM   10  O1  UNL     1      28.410  45.504  -5.024  1.00  0.00    -0.237 OA
ENDROOT
BRANCH   1  11
HETATM   11  N5  UNL     1      28.872  48.065  -3.495  1.00  0.00    -0.258 N 
HETATM   12  C1  UNL     1      27.641  47.868  -3.107  1.00  0.00     0.223 C 
HETATM   13  N3  UNL     1      27.203  46.582  -2.690  1.00  0.00    -0.258 N 
HETATM   14  N4  UNL     1      26.733  48.946  -3.103  1.00  0.00    -0.061 NA
ATOM     15  H3  UNL     1      27.444  45.755  -3.237  1.00  0.00     0.191 HD
ATOM     16  H5  UNL     1      29.173  48.994  -3.792  1.00  0.00     0.190 HD
BRANCH  13  17
HETATM   17  N2  UNL     1      26.448  46.458  -1.539  1.00  0.00    -0.247 N 
HETATM   18  N1  UNL     1      26.956  45.991  -0.484  1.00  0.00    -0.331 N 
ATOM     19  H12 UNL     1      27.936  45.706  -0.497  1.00  0.00     0.178 HD
ATOM     20  H11 UNL     1      26.399  45.901   0.365  1.00  0.00     0.178 HD
ATOM     21  H2  UNL     1      25.469  46.748  -1.543  1.00  0.00     0.207 HD
ENDBRANCH  13  17
ENDBRANCH   1  11
BRANCH   9  22
HETATM   22  O2  UNL     1      29.196  44.752  -6.991  1.00  0.00    -0.211 OA
BRANCH  22  23
HETATM   23  C4  UNL     1      29.754  43.483  -7.152  1.00  0.00     0.381 C 
HETATM   24  N9  UNL     1      31.095  43.344  -7.612  1.00  0.00    -0.032 NA
HETATM   25  O3  UNL     1      29.049  42.477  -6.880  1.00  0.00    -0.242 OA
ENDBRANCH  22  23
ENDBRANCH   9  22
TORSDOF 4
ENDMDL
