MODEL 1
REMARK VINA RESULT: -8.497473873      0.000      0.000
REMARK  15 active torsions:
REMARK  status: ('A' for Active; 'I' for Inactive)
REMARK    1  A    between atoms: C2_2  and  C3_3 
REMARK    2  A    between atoms: C2_2  and  N7_29 
REMARK    3  A    between atoms: C3_3  and  C4_4 
REMARK    4  A    between atoms: C6_6  and  N1_7 
REMARK    5  A    between atoms: N3_12  and  O2_13 
REMARK    6  A    between atoms: C10_23  and  C11_24 
REMARK    7  A    between atoms: N6_25  and  O5_27 
REMARK    8  A    between atoms: N7_29  and  C12_31 
REMARK    9  A    between atoms: C12_31  and  O6_32 
REMARK   10  A    between atoms: C12_31  and  N8_34 
REMARK   11  A    between atoms: N8_34  and  O7_35 
REMARK   12  A    between atoms: N8_34  and  C13_37 
REMARK   13  A    between atoms: C13_37  and  C14_38 
REMARK   14  A    between atoms: C14_38  and  C15_39 
REMARK   15  A    between atoms: C18_42  and  N9_43 
ROOT
HETATM    1  C1  UNL     1      44.624  20.032 -26.862  1.00  0.00     0.032 C 
HETATM    2  C2  UNL     1      44.840  21.289 -27.611  1.00  0.00     0.085 C 
ENDROOT
BRANCH   2   3
HETATM    3  C3  UNL     1      45.104  22.542 -26.900  1.00  0.00     0.066 C 
BRANCH   3   4
HETATM    4  C4  UNL     1      46.391  23.186 -26.963  1.00  0.00    -0.023 A 
HETATM    5  C5  UNL     1      47.529  22.593 -26.413  1.00  0.00     0.061 A 
HETATM    6  C6  UNL     1      48.755  23.203 -26.405  1.00  0.00     0.146 A 
HETATM    7  N4  UNL     1      48.832  24.442 -26.967  1.00  0.00    -0.283 N 
HETATM    8  N5  UNL     1      47.787  25.038 -27.499  1.00  0.00    -0.297 N 
ATOM      9  H4  UNL     1      49.731  24.924 -26.975  1.00  0.00     0.188 HD
HETATM   10  C10 UNL     1      46.580  24.438 -27.507  1.00  0.00     0.071 A 
ATOM     11  H5  UNL     1      47.891  25.966 -27.911  1.00  0.00     0.187 HD
BRANCH   6  12
HETATM   12  N1  UNL     1      49.944  22.601 -25.862  1.00  0.00    -0.194 N 
HETATM   13  N2  UNL     1      50.303  21.355 -26.172  1.00  0.00    -0.238 N 
HETATM   14  C7  UNL     1      51.390  20.750 -25.677  1.00  0.00     0.369 A 
ATOM     15  H2  UNL     1      49.717  20.833 -26.824  1.00  0.00     0.192 HD
HETATM   16  O1  UNL     1      51.691  19.567 -25.996  1.00  0.00    -0.243 OA
HETATM   17  N3  UNL     1      52.217  21.386 -24.800  1.00  0.00    -0.128 N 
HETATM   18  C8  UNL     1      51.880  22.649 -24.469  1.00  0.00     0.345 A 
HETATM   19  O3  UNL     1      52.619  23.272 -23.662  1.00  0.00    -0.259 OA
HETATM   20  C9  UNL     1      50.747  23.258 -24.998  1.00  0.00     0.339 A 
HETATM   21  O4  UNL     1      50.444  24.438 -24.677  1.00  0.00    -0.260 OA
BRANCH  17  22
HETATM   22  O2  UNL     1      53.317  20.756 -24.303  1.00  0.00    -0.276 OA
ATOM     23  H2  UNL     1      53.995  20.435 -24.885  1.00  0.00     0.245 HD
ENDBRANCH  17  22
ENDBRANCH   6  12
BRANCH  10  24
HETATM   24  C11 UNL     1      45.498  25.123 -28.166  1.00  0.00     0.145 C 
HETATM   25  N6  UNL     1      45.457  25.188 -29.452  1.00  0.00    -0.278 N 
ATOM     26  H6  UNL     1      44.670  25.685 -29.867  1.00  0.00     0.193 HD
BRANCH  25  27
HETATM   27  O5  UNL     1      46.370  24.652 -30.305  1.00  0.00    -0.290 OA
ATOM     28  H5  UNL     1      46.460  24.862 -31.227  1.00  0.00     0.244 HD
ENDBRANCH  25  27
ENDBRANCH  10  24
ENDBRANCH   3   4
ENDBRANCH   2   3
BRANCH   2  29
HETATM   29  N7  UNL     1      43.695  21.559 -28.528  1.00  0.00    -0.350 N 
ATOM     30  H7  UNL     1      42.753  21.301 -28.235  1.00  0.00     0.163 HD
BRANCH  29  31
HETATM   31  C12 UNL     1      43.875  22.156 -29.775  1.00  0.00     0.243 C 
BRANCH  31  32
HETATM   32  O6  UNL     1      45.097  22.027 -30.244  1.00  0.00    -0.331 OA
ATOM     33  H6  UNL     1      45.675  21.546 -29.664  1.00  0.00     0.221 HD
ENDBRANCH  31  32
BRANCH  31  34
HETATM   34  N8  UNL     1      42.970  22.855 -30.585  1.00  0.00    -0.201 N 
BRANCH  34  35
HETATM   35  O7  UNL     1      43.612  23.778 -31.454  1.00  0.00    -0.280 OA
ATOM     36  H7  UNL     1      43.803  23.405 -32.306  1.00  0.00     0.245 HD
ENDBRANCH  34  35
BRANCH  34  37
HETATM   37  C13 UNL     1      41.577  22.862 -30.751  1.00  0.00     0.116 C 
BRANCH  37  38
HETATM   38  C14 UNL     1      40.918  21.619 -31.255  1.00  0.00     0.048 C 
HETATM   39  C20 UNL     1      40.921  20.454 -30.302  1.00  0.00     0.049 C 
HETATM   40  C21 UNL     1      39.855  19.572 -30.944  1.00  0.00     0.233 C 
HETATM   41  N11 UNL     1      39.154  20.388 -31.923  1.00  0.00    -0.074 N 
HETATM   42  C22 UNL     1      39.403  21.752 -31.426  1.00  0.00     0.252 C 
ATOM     43 2H11 UNL     1      39.426  20.227 -32.893  1.00  0.00     0.277 HD
ATOM     44 1H11 UNL     1      38.171  20.151 -32.057  1.00  0.00     0.277 HD
BRANCH  38  45
HETATM   45  C15 UNL     1      41.469  21.273 -32.564  1.00  0.00    -0.027 A 
HETATM   46  C16 UNL     1      42.371  20.190 -32.672  1.00  0.00     0.013 A 
HETATM   47  C17 UNL     1      42.920  19.856 -33.886  1.00  0.00     0.048 A 
HETATM   48  C18 UNL     1      42.608  20.563 -35.029  1.00  0.00     0.098 A 
HETATM   49  N10 UNL     1      41.750  21.588 -34.916  1.00  0.00    -0.352 N 
HETATM   50  C19 UNL     1      41.196  21.934 -33.719  1.00  0.00     0.098 A 
ATOM     51  H10 UNL     1      41.506  22.124 -35.749  1.00  0.00     0.166 HD
BRANCH  48  52
HETATM   52  N9  UNL     1      43.141  20.243 -36.184  1.00  0.00    -0.385 N 
ATOM     53  H92 UNL     1      43.664  20.924 -36.734  1.00  0.00     0.157 HD
ATOM     54  H91 UNL     1      43.048  19.299 -36.559  1.00  0.00     0.157 HD
ENDBRANCH  48  52
ENDBRANCH  38  45
ENDBRANCH  37  38
ENDBRANCH  34  37
ENDBRANCH  31  34
ENDBRANCH  29  31
ENDBRANCH   2  29
TORSDOF 15
ENDMDL
MODEL 2
REMARK VINA RESULT: -8.468841859      1.340      2.481
REMARK  15 active torsions:
REMARK  status: ('A' for Active; 'I' for Inactive)
REMARK    1  A    between atoms: C2_2  and  C3_3 
REMARK    2  A    between atoms: C2_2  and  N7_29 
REMARK    3  A    between atoms: C3_3  and  C4_4 
REMARK    4  A    between atoms: C6_6  and  N1_7 
REMARK    5  A    between atoms: N3_12  and  O2_13 
REMARK    6  A    between atoms: C10_23  and  C11_24 
REMARK    7  A    between atoms: N6_25  and  O5_27 
REMARK    8  A    between atoms: N7_29  and  C12_31 
REMARK    9  A    between atoms: C12_31  and  O6_32 
REMARK   10  A    between atoms: C12_31  and  N8_34 
REMARK   11  A    between atoms: N8_34  and  O7_35 
REMARK   12  A    between atoms: N8_34  and  C13_37 
REMARK   13  A    between atoms: C13_37  and  C14_38 
REMARK   14  A    between atoms: C14_38  and  C15_39 
REMARK   15  A    between atoms: C18_42  and  N9_43 
ROOT
HETATM    1  C1  UNL     1      44.089  20.227 -27.300  1.00  0.00     0.032 C 
HETATM    2  C2  UNL     1      44.967  21.319 -27.773  1.00  0.00     0.085 C 
ENDROOT
BRANCH   2   3
HETATM    3  C3  UNL     1      45.244  22.475 -26.917  1.00  0.00     0.066 C 
BRANCH   3   4
HETATM    4  C4  UNL     1      46.520  23.143 -26.946  1.00  0.00    -0.023 A 
HETATM    5  C5  UNL     1      47.663  22.551 -26.404  1.00  0.00     0.061 A 
HETATM    6  C6  UNL     1      48.878  23.181 -26.364  1.00  0.00     0.146 A 
HETATM    7  N4  UNL     1      48.939  24.440 -26.882  1.00  0.00    -0.283 N 
HETATM    8  N5  UNL     1      47.888  25.036 -27.404  1.00  0.00    -0.297 N 
ATOM      9  H4  UNL     1      49.829  24.937 -26.864  1.00  0.00     0.188 HD
HETATM   10  C10 UNL     1      46.693  24.416 -27.444  1.00  0.00     0.071 A 
ATOM     11  H5  UNL     1      47.980  25.979 -27.782  1.00  0.00     0.187 HD
BRANCH   6  12
HETATM   12  N1  UNL     1      50.072  22.581 -25.829  1.00  0.00    -0.194 N 
HETATM   13  N2  UNL     1      50.443  21.344 -26.159  1.00  0.00    -0.238 N 
HETATM   14  C7  UNL     1      51.535  20.741 -25.673  1.00  0.00     0.369 A 
ATOM     15  H2  UNL     1      49.863  20.828 -26.820  1.00  0.00     0.192 HD
HETATM   16  O1  UNL     1      51.847  19.567 -26.011  1.00  0.00    -0.243 OA
HETATM   17  N3  UNL     1      52.355  21.370 -24.785  1.00  0.00    -0.128 N 
HETATM   18  C8  UNL     1      52.006  22.625 -24.434  1.00  0.00     0.345 A 
HETATM   19  O3  UNL     1      52.739  23.241 -23.616  1.00  0.00    -0.259 OA
HETATM   20  C9  UNL     1      50.868  23.231 -24.953  1.00  0.00     0.339 A 
HETATM   21  O4  UNL     1      50.554  24.403 -24.613  1.00  0.00    -0.260 OA
BRANCH  17  22
HETATM   22  O2  UNL     1      53.461  20.743 -24.297  1.00  0.00    -0.276 OA
ATOM     23  H2  UNL     1      53.547  20.567 -23.368  1.00  0.00     0.245 HD
ENDBRANCH  17  22
ENDBRANCH   6  12
BRANCH  10  24
HETATM   24  C11 UNL     1      45.605  25.104 -28.091  1.00  0.00     0.145 C 
HETATM   25  N6  UNL     1      45.606  25.267 -29.368  1.00  0.00    -0.278 N 
ATOM     26  H6  UNL     1      44.813  25.762 -29.775  1.00  0.00     0.193 HD
BRANCH  25  27
HETATM   27  O5  UNL     1      46.572  24.838 -30.224  1.00  0.00    -0.290 OA
ATOM     28  H5  UNL     1      46.783  25.227 -31.065  1.00  0.00     0.244 HD
ENDBRANCH  25  27
ENDBRANCH  10  24
ENDBRANCH   3   4
ENDBRANCH   2   3
BRANCH   2  29
HETATM   29  N7  UNL     1      44.475  21.866 -29.072  1.00  0.00    -0.350 N 
ATOM     30  H7  UNL     1      43.613  22.412 -29.085  1.00  0.00     0.163 HD
BRANCH  29  31
HETATM   31  C12 UNL     1      45.159  21.653 -30.267  1.00  0.00     0.243 C 
BRANCH  31  32
HETATM   32  O6  UNL     1      46.454  21.863 -30.173  1.00  0.00    -0.331 OA
ATOM     33  H6  UNL     1      46.972  21.264 -30.697  1.00  0.00     0.221 HD
ENDBRANCH  31  32
BRANCH  31  34
HETATM   34  N8  UNL     1      44.684  21.257 -31.525  1.00  0.00    -0.201 N 
BRANCH  34  35
HETATM   35  O7  UNL     1      45.558  21.629 -32.582  1.00  0.00    -0.280 OA
ATOM     36  H7  UNL     1      46.309  21.052 -32.657  1.00  0.00     0.245 HD
ENDBRANCH  34  35
BRANCH  34  37
HETATM   37  C13 UNL     1      43.553  20.576 -31.997  1.00  0.00     0.116 C 
BRANCH  37  38
HETATM   38  C14 UNL     1      42.258  21.318 -32.065  1.00  0.00     0.048 C 
HETATM   39  C20 UNL     1      42.264  22.686 -31.436  1.00  0.00     0.049 C 
HETATM   40  C21 UNL     1      40.993  23.272 -32.042  1.00  0.00     0.233 C 
HETATM   41  N11 UNL     1      40.593  22.396 -33.133  1.00  0.00    -0.074 N 
HETATM   42  C22 UNL     1      41.863  21.737 -33.483  1.00  0.00     0.252 C 
ATOM     43 2H11 UNL     1      39.824  21.762 -32.917  1.00  0.00     0.277 HD
ATOM     44 1H11 UNL     1      40.121  22.862 -33.908  1.00  0.00     0.277 HD
BRANCH  38  45
HETATM   45  C15 UNL     1      41.183  20.470 -31.553  1.00  0.00    -0.027 A 
HETATM   46  C16 UNL     1      40.584  19.518 -32.410  1.00  0.00     0.013 A 
HETATM   47  C17 UNL     1      39.558  18.723 -31.961  1.00  0.00     0.048 A 
HETATM   48  C18 UNL     1      39.085  18.829 -30.669  1.00  0.00     0.098 A 
HETATM   49  N10 UNL     1      39.661  19.735 -29.864  1.00  0.00    -0.352 N 
HETATM   50  C19 UNL     1      40.680  20.532 -30.292  1.00  0.00     0.098 A 
ATOM     51  H10 UNL     1      39.326  19.829 -28.905  1.00  0.00     0.166 HD
BRANCH  48  52
HETATM   52  N9  UNL     1      38.100  18.071 -30.249  1.00  0.00    -0.385 N 
ATOM     53  H92 UNL     1      38.276  17.171 -29.804  1.00  0.00     0.157 HD
ATOM     54  H91 UNL     1      37.130  18.369 -30.354  1.00  0.00     0.157 HD
ENDBRANCH  48  52
ENDBRANCH  38  45
ENDBRANCH  37  38
ENDBRANCH  34  37
ENDBRANCH  31  34
ENDBRANCH  29  31
ENDBRANCH   2  29
TORSDOF 15
ENDMDL
MODEL 3
REMARK VINA RESULT: -8.407728281      4.691      9.270
REMARK  15 active torsions:
REMARK  status: ('A' for Active; 'I' for Inactive)
REMARK    1  A    between atoms: C2_2  and  C3_3 
REMARK    2  A    between atoms: C2_2  and  N7_29 
REMARK    3  A    between atoms: C3_3  and  C4_4 
REMARK    4  A    between atoms: C6_6  and  N1_7 
REMARK    5  A    between atoms: N3_12  and  O2_13 
REMARK    6  A    between atoms: C10_23  and  C11_24 
REMARK    7  A    between atoms: N6_25  and  O5_27 
REMARK    8  A    between atoms: N7_29  and  C12_31 
REMARK    9  A    between atoms: C12_31  and  O6_32 
REMARK   10  A    between atoms: C12_31  and  N8_34 
REMARK   11  A    between atoms: N8_34  and  O7_35 
REMARK   12  A    between atoms: N8_34  and  C13_37 
REMARK   13  A    between atoms: C13_37  and  C14_38 
REMARK   14  A    between atoms: C14_38  and  C15_39 
REMARK   15  A    between atoms: C18_42  and  N9_43 
ROOT
HETATM    1  C1  UNL     1      47.512  22.446 -32.306  1.00  0.00     0.032 C 
HETATM    2  C2  UNL     1      46.169  22.294 -32.906  1.00  0.00     0.085 C 
ENDROOT
BRANCH   2   3
HETATM    3  C3  UNL     1      45.919  21.266 -33.919  1.00  0.00     0.066 C 
BRANCH   3   4
HETATM    4  C4  UNL     1      44.586  20.972 -34.379  1.00  0.00    -0.023 A 
HETATM    5  C5  UNL     1      43.533  20.781 -33.482  1.00  0.00     0.061 A 
HETATM    6  C6  UNL     1      42.268  20.445 -33.883  1.00  0.00     0.146 A 
HETATM    7  N4  UNL     1      42.062  20.297 -35.222  1.00  0.00    -0.283 N 
HETATM    8  N5  UNL     1      43.024  20.469 -36.103  1.00  0.00    -0.297 N 
ATOM      9  H4  UNL     1      41.131  20.044 -35.552  1.00  0.00     0.188 HD
HETATM   10  C10 UNL     1      44.269  20.800 -35.709  1.00  0.00     0.071 A 
ATOM     11  H5  UNL     1      42.824  20.349 -37.096  1.00  0.00     0.187 HD
BRANCH   6  12
HETATM   12  N1  UNL     1      41.164  20.264 -32.977  1.00  0.00    -0.194 N 
HETATM   13  N2  UNL     1      40.859  19.067 -32.474  1.00  0.00    -0.238 N 
HETATM   14  C7  UNL     1      39.832  18.849 -31.644  1.00  0.00     0.369 A 
ATOM     15  H2  UNL     1      41.442  18.272 -32.737  1.00  0.00     0.192 HD
HETATM   16  O1  UNL     1      39.579  17.698 -31.194  1.00  0.00    -0.243 OA
HETATM   17  N3  UNL     1      39.012  19.864 -31.252  1.00  0.00    -0.128 N 
HETATM   18  C8  UNL     1      39.297  21.087 -31.742  1.00  0.00     0.345 A 
HETATM   19  O3  UNL     1      38.562  22.052 -31.403  1.00  0.00    -0.259 OA
HETATM   20  C9  UNL     1      40.370  21.290 -32.603  1.00  0.00     0.339 A 
HETATM   21  O4  UNL     1      40.622  22.439 -33.055  1.00  0.00    -0.260 OA
BRANCH  17  22
HETATM   22  O2  UNL     1      37.969  19.626 -30.408  1.00  0.00    -0.276 OA
ATOM     23  H2  UNL     1      37.990  19.940 -29.512  1.00  0.00     0.245 HD
ENDBRANCH  17  22
ENDBRANCH   6  12
BRANCH  10  24
HETATM   24  C11 UNL     1      45.253  21.037 -36.734  1.00  0.00     0.145 C 
HETATM   25  N6  UNL     1      45.497  20.135 -37.622  1.00  0.00    -0.278 N 
ATOM     26  H6  UNL     1      46.203  20.354 -38.324  1.00  0.00     0.193 HD
BRANCH  25  27
HETATM   27  O5  UNL     1      44.895  18.919 -37.706  1.00  0.00    -0.290 OA
ATOM     28  H5  UNL     1      44.592  18.502 -38.504  1.00  0.00     0.244 HD
ENDBRANCH  25  27
ENDBRANCH  10  24
ENDBRANCH   3   4
ENDBRANCH   2   3
BRANCH   2  29
HETATM   29  N7  UNL     1      45.707  23.586 -33.495  1.00  0.00    -0.350 N 
ATOM     30  H7  UNL     1      45.804  23.735 -34.499  1.00  0.00     0.163 HD
BRANCH  29  31
HETATM   31  C12 UNL     1      45.145  24.593 -32.712  1.00  0.00     0.243 C 
BRANCH  31  32
HETATM   32  O6  UNL     1      45.801  25.730 -32.774  1.00  0.00    -0.331 OA
ATOM     33  H6  UNL     1      46.132  26.021 -31.933  1.00  0.00     0.221 HD
ENDBRANCH  31  32
BRANCH  31  34
HETATM   34  N8  UNL     1      44.011  24.574 -31.889  1.00  0.00    -0.201 N 
BRANCH  34  35
HETATM   35  O7  UNL     1      42.860  24.068 -32.552  1.00  0.00    -0.280 OA
ATOM     36  H7  UNL     1      42.981  23.181 -32.869  1.00  0.00     0.245 HD
ENDBRANCH  34  35
BRANCH  34  37
HETATM   37  C13 UNL     1      43.734  24.931 -30.561  1.00  0.00     0.116 C 
BRANCH  37  38
HETATM   38  C14 UNL     1      44.264  24.060 -29.469  1.00  0.00     0.048 C 
HETATM   39  C20 UNL     1      45.700  23.636 -29.621  1.00  0.00     0.049 C 
HETATM   40  C21 UNL     1      45.996  23.156 -28.204  1.00  0.00     0.233 C 
HETATM   41  N11 UNL     1      44.912  23.626 -27.356  1.00  0.00    -0.074 N 
HETATM   42  C22 UNL     1      44.393  24.773 -28.121  1.00  0.00     0.252 C 
ATOM     43 2H11 UNL     1      44.216  22.920 -27.114  1.00  0.00     0.277 HD
ATOM     44 1H11 UNL     1      45.177  23.834 -26.393  1.00  0.00     0.277 HD
BRANCH  38  45
HETATM   45  C15 UNL     1      43.363  22.926 -29.270  1.00  0.00    -0.027 A 
HETATM   46  C16 UNL     1      42.272  23.056 -28.380  1.00  0.00     0.013 A 
HETATM   47  C17 UNL     1      41.422  22.000 -28.159  1.00  0.00     0.048 A 
HETATM   48  C18 UNL     1      41.606  20.790 -28.795  1.00  0.00     0.098 A 
HETATM   49  N10 UNL     1      42.643  20.677 -29.638  1.00  0.00    -0.352 N 
HETATM   50  C19 UNL     1      43.497  21.714 -29.870  1.00  0.00     0.098 A 
ATOM     51  H10 UNL     1      42.797  19.791 -30.119  1.00  0.00     0.166 HD
BRANCH  48  52
HETATM   52  N9  UNL     1      40.795  19.783 -28.574  1.00  0.00    -0.385 N 
ATOM     53  H92 UNL     1      40.983  19.101 -27.839  1.00  0.00     0.157 HD
ATOM     54  H91 UNL     1      39.949  19.661 -29.131  1.00  0.00     0.157 HD
ENDBRANCH  48  52
ENDBRANCH  38  45
ENDBRANCH  37  38
ENDBRANCH  34  37
ENDBRANCH  31  34
ENDBRANCH  29  31
ENDBRANCH   2  29
TORSDOF 15
ENDMDL
MODEL 4
REMARK VINA RESULT: -8.354438815      3.353      5.059
REMARK  15 active torsions:
REMARK  status: ('A' for Active; 'I' for Inactive)
REMARK    1  A    between atoms: C2_2  and  C3_3 
REMARK    2  A    between atoms: C2_2  and  N7_29 
REMARK    3  A    between atoms: C3_3  and  C4_4 
REMARK    4  A    between atoms: C6_6  and  N1_7 
REMARK    5  A    between atoms: N3_12  and  O2_13 
REMARK    6  A    between atoms: C10_23  and  C11_24 
REMARK    7  A    between atoms: N6_25  and  O5_27 
REMARK    8  A    between atoms: N7_29  and  C12_31 
REMARK    9  A    between atoms: C12_31  and  O6_32 
REMARK   10  A    between atoms: C12_31  and  N8_34 
REMARK   11  A    between atoms: N8_34  and  O7_35 
REMARK   12  A    between atoms: N8_34  and  C13_37 
REMARK   13  A    between atoms: C13_37  and  C14_38 
REMARK   14  A    between atoms: C14_38  and  C15_39 
REMARK   15  A    between atoms: C18_42  and  N9_43 
ROOT
HETATM    1  C1  UNL     1      45.766  24.367 -33.743  1.00  0.00     0.032 C 
HETATM    2  C2  UNL     1      45.757  23.561 -32.504  1.00  0.00     0.085 C 
ENDROOT
BRANCH   2   3
HETATM    3  C3  UNL     1      46.315  24.100 -31.261  1.00  0.00     0.066 C 
BRANCH   3   4
HETATM    4  C4  UNL     1      45.606  23.996 -30.011  1.00  0.00    -0.023 A 
HETATM    5  C5  UNL     1      45.766  22.889 -29.175  1.00  0.00     0.061 A 
HETATM    6  C6  UNL     1      45.067  22.732 -28.009  1.00  0.00     0.146 A 
HETATM    7  N4  UNL     1      44.184  23.717 -27.680  1.00  0.00    -0.283 N 
HETATM    8  N5  UNL     1      44.002  24.778 -28.437  1.00  0.00    -0.297 N 
ATOM      9  H4  UNL     1      43.645  23.628 -26.819  1.00  0.00     0.188 HD
HETATM   10  C10 UNL     1      44.691  24.933 -29.584  1.00  0.00     0.071 A 
ATOM     11  H5  UNL     1      43.331  25.492 -28.150  1.00  0.00     0.187 HD
BRANCH   6  12
HETATM   12  N1  UNL     1      45.231  21.609 -27.123  1.00  0.00    -0.194 N 
HETATM   13  N2  UNL     1      46.183  21.588 -26.189  1.00  0.00    -0.238 N 
HETATM   14  C7  UNL     1      46.383  20.559 -25.357  1.00  0.00     0.369 A 
ATOM     15  H2  UNL     1      46.792  22.401 -26.103  1.00  0.00     0.192 HD
HETATM   16  O1  UNL     1      47.298  20.579 -24.488  1.00  0.00    -0.243 OA
HETATM   17  N3  UNL     1      45.607  19.440 -25.415  1.00  0.00    -0.128 N 
HETATM   18  C8  UNL     1      44.634  19.434 -26.349  1.00  0.00     0.345 A 
HETATM   19  O3  UNL     1      43.896  18.418 -26.434  1.00  0.00    -0.259 OA
HETATM   20  C9  UNL     1      44.444  20.515 -27.202  1.00  0.00     0.339 A 
HETATM   21  O4  UNL     1      43.533  20.494 -28.071  1.00  0.00    -0.260 OA
BRANCH  17  22
HETATM   22  O2  UNL     1      45.825  18.400 -24.563  1.00  0.00    -0.276 OA
ATOM     23  H2  UNL     1      46.662  17.950 -24.551  1.00  0.00     0.245 HD
ENDBRANCH  17  22
ENDBRANCH   6  12
BRANCH  10  24
HETATM   24  C11 UNL     1      44.488  26.152 -30.325  1.00  0.00     0.145 C 
HETATM   25  N6  UNL     1      44.557  27.292 -29.732  1.00  0.00    -0.278 N 
ATOM     26  H6  UNL     1      44.405  28.123 -30.303  1.00  0.00     0.193 HD
BRANCH  25  27
HETATM   27  O5  UNL     1      44.815  27.487 -28.411  1.00  0.00    -0.290 OA
ATOM     28  H5  UNL     1      45.615  27.850 -28.048  1.00  0.00     0.244 HD
ENDBRANCH  25  27
ENDBRANCH  10  24
ENDBRANCH   3   4
ENDBRANCH   2   3
BRANCH   2  29
HETATM   29  N7  UNL     1      46.422  22.243 -32.726  1.00  0.00    -0.350 N 
ATOM     30  H7  UNL     1      47.204  22.187 -33.379  1.00  0.00     0.163 HD
BRANCH  29  31
HETATM   31  C12 UNL     1      46.007  21.088 -32.067  1.00  0.00     0.243 C 
BRANCH  31  32
HETATM   32  O6  UNL     1      46.979  20.471 -31.431  1.00  0.00    -0.331 OA
ATOM     33  H6  UNL     1      47.698  20.217 -31.996  1.00  0.00     0.221 HD
ENDBRANCH  31  32
BRANCH  31  34
HETATM   34  N8  UNL     1      44.738  20.499 -31.981  1.00  0.00    -0.201 N 
BRANCH  34  35
HETATM   35  O7  UNL     1      44.539  19.801 -30.759  1.00  0.00    -0.280 OA
ATOM     36  H7  UNL     1      45.346  19.669 -30.278  1.00  0.00     0.245 HD
ENDBRANCH  34  35
BRANCH  34  37
HETATM   37  C13 UNL     1      43.608  20.435 -32.811  1.00  0.00     0.116 C 
BRANCH  37  38
HETATM   38  C14 UNL     1      42.448  21.322 -32.495  1.00  0.00     0.048 C 
HETATM   39  C20 UNL     1      42.778  22.561 -31.705  1.00  0.00     0.049 C 
HETATM   40  C21 UNL     1      41.512  23.378 -31.936  1.00  0.00     0.233 C 
HETATM   41  N11 UNL     1      40.780  22.742 -33.020  1.00  0.00    -0.074 N 
HETATM   42  C22 UNL     1      41.845  22.007 -33.724  1.00  0.00     0.252 C 
ATOM     43 2H11 UNL     1      39.984  22.174 -32.729  1.00  0.00     0.277 HD
ATOM     44 1H11 UNL     1      40.236  23.378 -33.605  1.00  0.00     0.277 HD
BRANCH  38  45
HETATM   45  C15 UNL     1      41.384  20.532 -31.879  1.00  0.00    -0.027 A 
HETATM   46  C16 UNL     1      40.565  19.717 -32.694  1.00  0.00     0.013 A 
HETATM   47  C17 UNL     1      39.545  18.980 -32.144  1.00  0.00     0.048 A 
HETATM   48  C18 UNL     1      39.291  19.012 -30.789  1.00  0.00     0.098 A 
HETATM   49  N10 UNL     1      40.074  19.788 -30.024  1.00  0.00    -0.352 N 
HETATM   50  C19 UNL     1      41.091  20.526 -30.552  1.00  0.00     0.098 A 
ATOM     51  H10 UNL     1      39.904  19.826 -29.019  1.00  0.00     0.166 HD
BRANCH  48  52
HETATM   52  N9  UNL     1      38.311  18.312 -30.271  1.00  0.00    -0.385 N 
ATOM     53  H92 UNL     1      37.337  18.580 -30.408  1.00  0.00     0.157 HD
ATOM     54  H91 UNL     1      38.501  17.474 -29.720  1.00  0.00     0.157 HD
ENDBRANCH  48  52
ENDBRANCH  38  45
ENDBRANCH  37  38
ENDBRANCH  34  37
ENDBRANCH  31  34
ENDBRANCH  29  31
ENDBRANCH   2  29
TORSDOF 15
ENDMDL
MODEL 5
REMARK VINA RESULT: -8.224763083      3.775      7.101
REMARK  15 active torsions:
REMARK  status: ('A' for Active; 'I' for Inactive)
REMARK    1  A    between atoms: C2_2  and  C3_3 
REMARK    2  A    between atoms: C2_2  and  N7_29 
REMARK    3  A    between atoms: C3_3  and  C4_4 
REMARK    4  A    between atoms: C6_6  and  N1_7 
REMARK    5  A    between atoms: N3_12  and  O2_13 
REMARK    6  A    between atoms: C10_23  and  C11_24 
REMARK    7  A    between atoms: N6_25  and  O5_27 
REMARK    8  A    between atoms: N7_29  and  C12_31 
REMARK    9  A    between atoms: C12_31  and  O6_32 
REMARK   10  A    between atoms: C12_31  and  N8_34 
REMARK   11  A    between atoms: N8_34  and  O7_35 
REMARK   12  A    between atoms: N8_34  and  C13_37 
REMARK   13  A    between atoms: C13_37  and  C14_38 
REMARK   14  A    between atoms: C14_38  and  C15_39 
REMARK   15  A    between atoms: C18_42  and  N9_43 
ROOT
HETATM    1  C1  UNL     1      41.107  19.763 -32.948  1.00  0.00     0.032 C 
HETATM    2  C2  UNL     1      40.738  21.112 -33.427  1.00  0.00     0.085 C 
ENDROOT
BRANCH   2   3
HETATM    3  C3  UNL     1      41.655  21.877 -34.277  1.00  0.00     0.066 C 
BRANCH   3   4
HETATM    4  C4  UNL     1      43.084  21.750 -34.145  1.00  0.00    -0.023 A 
HETATM    5  C5  UNL     1      43.783  22.417 -33.137  1.00  0.00     0.061 A 
HETATM    6  C6  UNL     1      45.146  22.364 -33.018  1.00  0.00     0.146 A 
HETATM    7  N4  UNL     1      45.818  21.621 -33.941  1.00  0.00    -0.283 N 
HETATM    8  N5  UNL     1      45.201  20.975 -34.907  1.00  0.00    -0.297 N 
ATOM      9  H4  UNL     1      46.835  21.564 -33.882  1.00  0.00     0.188 HD
HETATM   10  C10 UNL     1      43.860  21.026 -35.024  1.00  0.00     0.071 A 
ATOM     11  H5  UNL     1      45.745  20.428 -35.575  1.00  0.00     0.187 HD
BRANCH   6  12
HETATM   12  N1  UNL     1      45.883  23.027 -31.975  1.00  0.00    -0.194 N 
HETATM   13  N2  UNL     1      45.814  24.347 -31.798  1.00  0.00    -0.238 N 
HETATM   14  C7  UNL     1      46.496  25.006 -30.853  1.00  0.00     0.369 A 
ATOM     15  H2  UNL     1      45.207  24.884 -32.417  1.00  0.00     0.192 HD
HETATM   16  O1  UNL     1      46.403  26.257 -30.723  1.00  0.00    -0.243 OA
HETATM   17  N3  UNL     1      47.326  24.353 -29.993  1.00  0.00    -0.128 N 
HETATM   18  C8  UNL     1      47.415  23.016 -30.147  1.00  0.00     0.345 A 
HETATM   19  O3  UNL     1      48.171  22.375 -29.371  1.00  0.00    -0.259 OA
HETATM   20  C9  UNL     1      46.696  22.352 -31.134  1.00  0.00     0.339 A 
HETATM   21  O4  UNL     1      46.792  21.102 -31.267  1.00  0.00    -0.260 OA
BRANCH  17  22
HETATM   22  O2  UNL     1      48.016  25.038 -29.039  1.00  0.00    -0.276 OA
ATOM     23  H2  UNL     1      48.651  25.700 -29.283  1.00  0.00     0.245 HD
ENDBRANCH  17  22
ENDBRANCH   6  12
BRANCH  10  24
HETATM   24  C11 UNL     1      43.249  20.239 -36.065  1.00  0.00     0.145 C 
HETATM   25  N6  UNL     1      43.656  20.346 -37.283  1.00  0.00    -0.278 N 
ATOM     26  H6  UNL     1      43.189  19.767 -37.980  1.00  0.00     0.193 HD
BRANCH  25  27
HETATM   27  O5  UNL     1      44.652  21.161 -37.720  1.00  0.00    -0.290 OA
ATOM     28  H5  UNL     1      45.575  20.940 -37.758  1.00  0.00     0.244 HD
ENDBRANCH  25  27
ENDBRANCH  10  24
ENDBRANCH   3   4
ENDBRANCH   2   3
BRANCH   2  29
HETATM   29  N7  UNL     1      40.388  22.002 -32.280  1.00  0.00    -0.350 N 
ATOM     30  H7  UNL     1      40.779  22.943 -32.246  1.00  0.00     0.163 HD
BRANCH  29  31
HETATM   31  C12 UNL     1      39.541  21.582 -31.255  1.00  0.00     0.243 C 
BRANCH  31  32
HETATM   32  O6  UNL     1      38.266  21.748 -31.530  1.00  0.00    -0.331 OA
ATOM     33  H6  UNL     1      37.692  21.508 -30.813  1.00  0.00     0.221 HD
ENDBRANCH  31  32
BRANCH  31  34
HETATM   34  N8  UNL     1      39.840  21.022 -30.005  1.00  0.00    -0.201 N 
BRANCH  34  35
HETATM   35  O7  UNL     1      39.340  19.699 -29.865  1.00  0.00    -0.280 OA
ATOM     36  H7  UNL     1      38.605  19.647 -29.266  1.00  0.00     0.245 HD
ENDBRANCH  34  35
BRANCH  34  37
HETATM   37  C13 UNL     1      40.518  21.450 -28.855  1.00  0.00     0.116 C 
BRANCH  37  38
HETATM   38  C14 UNL     1      42.012  21.445 -28.872  1.00  0.00     0.048 C 
HETATM   39  C20 UNL     1      42.667  20.623 -27.795  1.00  0.00     0.049 C 
HETATM   40  C21 UNL     1      44.081  20.511 -28.356  1.00  0.00     0.233 C 
HETATM   41  N11 UNL     1      44.028  20.943 -29.744  1.00  0.00    -0.074 N 
HETATM   42  C22 UNL     1      42.610  20.725 -30.083  1.00  0.00     0.252 C 
ATOM     43 2H11 UNL     1      44.371  21.888 -29.915  1.00  0.00     0.277 HD
ATOM     44 1H11 UNL     1      44.694  20.483 -30.365  1.00  0.00     0.277 HD
BRANCH  38  45
HETATM   45  C15 UNL     1      42.504  22.821 -28.905  1.00  0.00    -0.027 A 
HETATM   46  C16 UNL     1      42.971  23.418 -27.711  1.00  0.00     0.013 A 
HETATM   47  C17 UNL     1      43.420  24.716 -27.709  1.00  0.00     0.048 A 
HETATM   48  C18 UNL     1      43.428  25.470 -28.863  1.00  0.00     0.098 A 
HETATM   49  N10 UNL     1      42.984  24.895 -29.991  1.00  0.00    -0.352 N 
HETATM   50  C19 UNL     1      42.535  23.607 -30.012  1.00  0.00     0.098 A 
ATOM     51  H10 UNL     1      42.981  25.435 -30.856  1.00  0.00     0.166 HD
BRANCH  48  52
HETATM   52  N9  UNL     1      43.851  26.712 -28.853  1.00  0.00    -0.385 N 
ATOM     53  H92 UNL     1      44.801  26.951 -29.136  1.00  0.00     0.157 HD
ATOM     54  H91 UNL     1      43.235  27.472 -28.564  1.00  0.00     0.157 HD
ENDBRANCH  48  52
ENDBRANCH  38  45
ENDBRANCH  37  38
ENDBRANCH  34  37
ENDBRANCH  31  34
ENDBRANCH  29  31
ENDBRANCH   2  29
TORSDOF 15
ENDMDL
