MODEL 1
REMARK VINA RESULT: -8.608773393      0.000      0.000
REMARK  12 active torsions:
REMARK  status: ('A' for Active; 'I' for Inactive)
REMARK    1  A    between atoms: O1_2  and  C2_3 
REMARK    2  A    between atoms: C4_5  and  C5_6 
REMARK       I    between atoms: C5_6  and  N1_8 
REMARK    3  A    between atoms: N1_8  and  N2_10 
REMARK    4  A    between atoms: C6_12  and  N3_14 
REMARK    5  A    between atoms: C9_19  and  N5_20 
REMARK    6  A    between atoms: N5_20  and  N6_22 
REMARK       I    between atoms: N6_22  and  C10_24 
REMARK       I    between atoms: C10_24  and  N8_28 
REMARK    7  A    between atoms: N8_28  and  N9_30 
REMARK    8  A    between atoms: N10_33  and  N11_34 
REMARK    9  A    between atoms: N11_34  and  C11_36 
REMARK   10  A    between atoms: C11_36  and  C12_37 
REMARK   11  A    between atoms: C17_44  and  N13_45 
REMARK   12  A    between atoms: C20_50  and  O6_51 
ROOT
HETATM    1  N3  UNL     1      44.208  21.594 -30.282  1.00  0.00    -0.081 N 
HETATM    2  C8  UNL     1      44.711  20.877 -31.298  1.00  0.00     0.361 A 
HETATM    3  O3  UNL     1      45.782  20.234 -31.101  1.00  0.00    -0.245 OA
HETATM    4  N4  UNL     1      44.103  20.835 -32.495  1.00  0.00    -0.137 N 
ATOM      5  H4  UNL     1      44.506  20.282 -33.251  1.00  0.00     0.189 HD
HETATM    6  C9  UNL     1      42.964  21.521 -32.700  1.00  0.00     0.737 A 
HETATM    7  N10 UNL     1      42.405  22.271 -31.695  1.00  0.00     0.087 N 
HETATM    8  C17 UNL     1      43.051  22.277 -30.521  1.00  0.00     0.724 A 
ENDROOT
BRANCH   1   9
HETATM    9  C6  UNL     1      44.840  21.648 -29.005  1.00  0.00     0.120 C 
HETATM   10  N2  UNL     1      45.831  22.416 -28.798  1.00  0.00    -0.285 N 
ATOM     11  H2  UNL     1      46.183  23.004 -29.554  1.00  0.00     0.188 HD
HETATM   12  C7  UNL     1      44.315  20.782 -27.899  1.00  0.00     0.092 C 
BRANCH  10  13
HETATM   13  N1  UNL     1      46.442  22.460 -27.539  1.00  0.00    -0.264 N 
HETATM   14  C5  UNL     1      47.856  22.499 -27.427  1.00  0.00     0.270 C 
HETATM   15  O2  UNL     1      48.574  22.493 -28.459  1.00  0.00    -0.266 OA
ATOM     16  H1  UNL     1      45.868  22.465 -26.697  1.00  0.00     0.190 HD
BRANCH  14  17
HETATM   17  C4  UNL     1      48.508  22.545 -26.131  1.00  0.00     0.036 A 
HETATM   18  C3  UNL     1      49.514  23.469 -25.898  1.00  0.00     0.056 A 
HETATM   19  C2  UNL     1      50.163  23.555 -24.690  1.00  0.00     0.102 A 
HETATM   20  C20 UNL     1      49.801  22.686 -23.666  1.00  0.00     0.099 A 
HETATM   21  C19 UNL     1      48.808  21.751 -23.853  1.00  0.00     0.040 A 
HETATM   22  C18 UNL     1      48.178  21.695 -25.082  1.00  0.00     0.020 A 
BRANCH  19  23
HETATM   23  O1  UNL     1      51.166  24.457 -24.413  1.00  0.00    -0.353 OA
HETATM   24  C1  UNL     1      52.397  24.490 -25.090  1.00  0.00     0.210 C 
ENDBRANCH  19  23
BRANCH  20  25
HETATM   25  O6  UNL     1      50.438  22.742 -22.422  1.00  0.00    -0.358 OA
ATOM     26  H6  UNL     1      50.075  22.290 -21.671  1.00  0.00     0.217 HD
ENDBRANCH  20  25
ENDBRANCH  14  17
ENDBRANCH  10  13
ENDBRANCH   1   9
BRANCH   8  27
HETATM   27  N13 UNL     1      42.588  22.919 -29.532  1.00  0.00    -0.232 N 
ATOM     28 2H13 UNL     1      43.206  23.463 -28.930  1.00  0.00     0.174 HD
ATOM     29 1H13 UNL     1      41.577  22.862 -29.411  1.00  0.00     0.174 HD
ENDBRANCH   8  27
BRANCH   7  30
HETATM   30  N11 UNL     1      41.216  22.933 -31.949  1.00  0.00    -0.296 N 
ATOM     31  H11 UNL     1      41.293  23.696 -32.620  1.00  0.00     0.182 HD
BRANCH  30  32
HETATM   32  C11 UNL     1      39.903  22.729 -31.434  1.00  0.00     0.181 C 
BRANCH  32  33
HETATM   33  C12 UNL     1      39.652  21.286 -31.232  1.00  0.00    -0.024 A 
HETATM   34  C13 UNL     1      39.514  20.423 -32.294  1.00  0.00     0.011 A 
HETATM   35  C14 UNL     1      39.253  19.066 -32.060  1.00  0.00     0.018 A 
HETATM   36  C15 UNL     1      39.136  18.610 -30.771  1.00  0.00     0.087 A 
HETATM   37  N12 UNL     1      39.274  19.471 -29.758  1.00  0.00    -0.375 N 
HETATM   38  C16 UNL     1      39.525  20.775 -29.961  1.00  0.00     0.096 A 
ATOM     39  H12 UNL     1      39.186  19.127 -28.801  1.00  0.00     0.164 HD
ENDBRANCH  32  33
ENDBRANCH  30  32
ENDBRANCH   7  30
BRANCH   6  40
HETATM   40  N5  UNL     1      42.365  21.497 -33.844  1.00  0.00    -0.115 N 
ATOM     41  H5  UNL     1      41.448  21.063 -33.949  1.00  0.00     0.206 HD
BRANCH  40  42
HETATM   42  N6  UNL     1      43.009  22.084 -34.933  1.00  0.00    -0.117 N 
HETATM   43  C10 UNL     1      43.535  21.331 -36.016  1.00  0.00     0.710 C 
HETATM   44  N7  UNL     1      42.946  20.273 -36.451  1.00  0.00    -0.232 N 
HETATM   45  N8  UNL     1      44.739  21.727 -36.658  1.00  0.00    -0.071 N 
ATOM     46  H72 UNL     1      42.082  19.988 -35.990  1.00  0.00     0.174 HD
ATOM     47  H71 UNL     1      43.324  19.732 -37.230  1.00  0.00     0.174 HD
ATOM     48  H8  UNL     1      44.995  22.714 -36.710  1.00  0.00     0.212 HD
ATOM     49  H6  UNL     1      43.106  23.099 -34.953  1.00  0.00     0.206 HD
BRANCH  45  50
HETATM   50  N9  UNL     1      45.563  20.764 -37.212  1.00  0.00    -0.024 N 
HETATM   51  O4  UNL     1      46.315  21.085 -38.154  1.00  0.00    -0.516 OA
HETATM   52  O5  UNL     1      45.563  19.465 -36.742  1.00  0.00    -0.516 OA
ENDBRANCH  45  50
ENDBRANCH  40  42
ENDBRANCH   6  40
TORSDOF 12
ENDMDL
MODEL 2
REMARK VINA RESULT: -8.420690729      2.793      5.093
REMARK  12 active torsions:
REMARK  status: ('A' for Active; 'I' for Inactive)
REMARK    1  A    between atoms: O1_2  and  C2_3 
REMARK    2  A    between atoms: C4_5  and  C5_6 
REMARK       I    between atoms: C5_6  and  N1_8 
REMARK    3  A    between atoms: N1_8  and  N2_10 
REMARK    4  A    between atoms: C6_12  and  N3_14 
REMARK    5  A    between atoms: C9_19  and  N5_20 
REMARK    6  A    between atoms: N5_20  and  N6_22 
REMARK       I    between atoms: N6_22  and  C10_24 
REMARK       I    between atoms: C10_24  and  N8_28 
REMARK    7  A    between atoms: N8_28  and  N9_30 
REMARK    8  A    between atoms: N10_33  and  N11_34 
REMARK    9  A    between atoms: N11_34  and  C11_36 
REMARK   10  A    between atoms: C11_36  and  C12_37 
REMARK   11  A    between atoms: C17_44  and  N13_45 
REMARK   12  A    between atoms: C20_50  and  O6_51 
ROOT
HETATM    1  N3  UNL     1      44.166  23.079 -30.543  1.00  0.00    -0.081 N 
HETATM    2  C8  UNL     1      42.878  23.276 -30.225  1.00  0.00     0.361 A 
HETATM    3  O3  UNL     1      42.606  23.672 -29.055  1.00  0.00    -0.245 OA
HETATM    4  N4  UNL     1      41.895  23.061 -31.117  1.00  0.00    -0.137 N 
ATOM      5  H4  UNL     1      40.923  23.219 -30.849  1.00  0.00     0.189 HD
HETATM    6  C9  UNL     1      42.188  22.640 -32.359  1.00  0.00     0.737 A 
HETATM    7  N10 UNL     1      43.491  22.422 -32.738  1.00  0.00     0.087 N 
HETATM    8  C17 UNL     1      44.431  22.653 -31.812  1.00  0.00     0.724 A 
ENDROOT
BRANCH   1   9
HETATM    9  C6  UNL     1      45.221  23.303 -29.610  1.00  0.00     0.120 C 
HETATM   10  N2  UNL     1      45.505  22.437 -28.725  1.00  0.00    -0.285 N 
ATOM     11  H2  UNL     1      44.973  21.568 -28.677  1.00  0.00     0.188 HD
HETATM   12  C7  UNL     1      45.999  24.583 -29.688  1.00  0.00     0.092 C 
BRANCH  10  13
HETATM   13  N1  UNL     1      46.543  22.669 -27.815  1.00  0.00    -0.264 N 
HETATM   14  C5  UNL     1      46.683  21.856 -26.660  1.00  0.00     0.270 C 
HETATM   15  O2  UNL     1      45.874  20.918 -26.444  1.00  0.00    -0.266 OA
ATOM     16  H1  UNL     1      47.204  23.427 -27.983  1.00  0.00     0.190 HD
BRANCH  14  17
HETATM   17  C4  UNL     1      47.753  22.081 -25.706  1.00  0.00     0.036 A 
HETATM   18  C3  UNL     1      48.746  23.004 -25.988  1.00  0.00     0.056 A 
HETATM   19  C2  UNL     1      49.781  23.256 -25.119  1.00  0.00     0.102 A 
HETATM   20  C20 UNL     1      49.835  22.560 -23.916  1.00  0.00     0.099 A 
HETATM   21  C19 UNL     1      48.871  21.632 -23.593  1.00  0.00     0.040 A 
HETATM   22  C18 UNL     1      47.845  21.407 -24.493  1.00  0.00     0.020 A 
BRANCH  19  23
HETATM   23  O1  UNL     1      50.788  24.164 -25.357  1.00  0.00    -0.353 OA
HETATM   24  C1  UNL     1      50.589  25.554 -25.418  1.00  0.00     0.210 C 
ENDBRANCH  19  23
BRANCH  20  25
HETATM   25  O6  UNL     1      50.872  22.788 -23.006  1.00  0.00    -0.358 OA
ATOM     26  H6  UNL     1      51.193  22.087 -22.451  1.00  0.00     0.217 HD
ENDBRANCH  20  25
ENDBRANCH  14  17
ENDBRANCH  10  13
ENDBRANCH   1   9
BRANCH   8  27
HETATM   27  N13 UNL     1      45.658  22.506 -32.088  1.00  0.00    -0.232 N 
ATOM     28 2H13 UNL     1      46.378  22.756 -31.409  1.00  0.00     0.174 HD
ATOM     29 1H13 UNL     1      45.854  22.109 -33.007  1.00  0.00     0.174 HD
ENDBRANCH   8  27
BRANCH   7  30
HETATM   30  N11 UNL     1      43.740  22.018 -34.039  1.00  0.00    -0.296 N 
ATOM     31  H11 UNL     1      43.572  22.736 -34.743  1.00  0.00     0.182 HD
BRANCH  30  32
HETATM   32  C11 UNL     1      44.191  20.772 -34.561  1.00  0.00     0.181 C 
BRANCH  32  33
HETATM   33  C12 UNL     1      44.298  20.844 -36.035  1.00  0.00    -0.024 A 
HETATM   34  C13 UNL     1      43.946  21.978 -36.727  1.00  0.00     0.011 A 
HETATM   35  C14 UNL     1      44.040  21.999 -38.126  1.00  0.00     0.018 A 
HETATM   36  C15 UNL     1      44.482  20.883 -38.792  1.00  0.00     0.087 A 
HETATM   37  N12 UNL     1      44.817  19.794 -38.093  1.00  0.00    -0.375 N 
HETATM   38  C16 UNL     1      44.735  19.755 -36.753  1.00  0.00     0.096 A 
ATOM     39  H12 UNL     1      45.145  18.967 -38.593  1.00  0.00     0.164 HD
ENDBRANCH  32  33
ENDBRANCH  30  32
ENDBRANCH   7  30
BRANCH   6  40
HETATM   40  N5  UNL     1      41.259  22.424 -33.230  1.00  0.00    -0.115 N 
ATOM     41  H5  UNL     1      40.912  23.176 -33.826  1.00  0.00     0.206 HD
BRANCH  40  42
HETATM   42  N6  UNL     1      40.745  21.132 -33.333  1.00  0.00    -0.117 N 
HETATM   43  C10 UNL     1      39.789  20.607 -32.424  1.00  0.00     0.710 C 
HETATM   44  N7  UNL     1      38.860  21.344 -31.921  1.00  0.00    -0.232 N 
HETATM   45  N8  UNL     1      39.827  19.240 -32.039  1.00  0.00    -0.071 N 
ATOM     46  H72 UNL     1      38.833  22.325 -32.198  1.00  0.00     0.174 HD
ATOM     47  H71 UNL     1      38.173  20.967 -31.269  1.00  0.00     0.174 HD
ATOM     48  H8  UNL     1      40.178  18.533 -32.684  1.00  0.00     0.212 HD
ATOM     49  H6  UNL     1      41.071  20.537 -34.095  1.00  0.00     0.206 HD
BRANCH  45  50
HETATM   50  N9  UNL     1      39.385  18.877 -30.780  1.00  0.00    -0.024 N 
HETATM   51  O4  UNL     1      39.807  19.507 -29.789  1.00  0.00    -0.516 OA
HETATM   52  O5  UNL     1      38.492  17.837 -30.606  1.00  0.00    -0.516 OA
ENDBRANCH  45  50
ENDBRANCH  40  42
ENDBRANCH   6  40
TORSDOF 12
ENDMDL
MODEL 3
REMARK VINA RESULT: -8.352857878      1.412      1.611
REMARK  12 active torsions:
REMARK  status: ('A' for Active; 'I' for Inactive)
REMARK    1  A    between atoms: O1_2  and  C2_3 
REMARK    2  A    between atoms: C4_5  and  C5_6 
REMARK       I    between atoms: C5_6  and  N1_8 
REMARK    3  A    between atoms: N1_8  and  N2_10 
REMARK    4  A    between atoms: C6_12  and  N3_14 
REMARK    5  A    between atoms: C9_19  and  N5_20 
REMARK    6  A    between atoms: N5_20  and  N6_22 
REMARK       I    between atoms: N6_22  and  C10_24 
REMARK       I    between atoms: C10_24  and  N8_28 
REMARK    7  A    between atoms: N8_28  and  N9_30 
REMARK    8  A    between atoms: N10_33  and  N11_34 
REMARK    9  A    between atoms: N11_34  and  C11_36 
REMARK   10  A    between atoms: C11_36  and  C12_37 
REMARK   11  A    between atoms: C17_44  and  N13_45 
REMARK   12  A    between atoms: C20_50  and  O6_51 
ROOT
HETATM    1  N3  UNL     1      43.442  22.676 -29.727  1.00  0.00    -0.081 N 
HETATM    2  C8  UNL     1      43.955  22.871 -30.951  1.00  0.00     0.361 A 
HETATM    3  O3  UNL     1      45.192  23.121 -31.046  1.00  0.00    -0.245 OA
HETATM    4  N4  UNL     1      43.188  22.805 -32.051  1.00  0.00    -0.137 N 
ATOM      5  H4  UNL     1      43.604  22.956 -32.971  1.00  0.00     0.189 HD
HETATM    6  C9  UNL     1      41.874  22.539 -31.946  1.00  0.00     0.737 A 
HETATM    7  N10 UNL     1      41.296  22.331 -30.718  1.00  0.00     0.087 N 
HETATM    8  C17 UNL     1      42.106  22.407 -29.654  1.00  0.00     0.724 A 
ENDROOT
BRANCH   1   9
HETATM    9  C6  UNL     1      44.242  22.741 -28.548  1.00  0.00     0.120 C 
HETATM   10  N2  UNL     1      45.070  21.819 -28.269  1.00  0.00    -0.285 N 
ATOM     11  H2  UNL     1      45.168  21.018 -28.893  1.00  0.00     0.188 HD
HETATM   12  C7  UNL     1      44.092  23.922 -27.635  1.00  0.00     0.092 C 
BRANCH  10  13
HETATM   13  N1  UNL     1      45.849  21.895 -27.108  1.00  0.00    -0.264 N 
HETATM   14  C5  UNL     1      47.216  22.268 -27.182  1.00  0.00     0.270 C 
HETATM   15  O2  UNL     1      47.741  22.533 -28.293  1.00  0.00    -0.266 OA
ATOM     16  H1  UNL     1      45.432  21.682 -26.203  1.00  0.00     0.190 HD
BRANCH  14  17
HETATM   17  C4  UNL     1      48.040  22.353 -25.990  1.00  0.00     0.036 A 
HETATM   18  C3  UNL     1      49.044  23.304 -25.912  1.00  0.00     0.056 A 
HETATM   19  C2  UNL     1      49.852  23.427 -24.808  1.00  0.00     0.102 A 
HETATM   20  C20 UNL     1      49.658  22.568 -23.731  1.00  0.00     0.099 A 
HETATM   21  C19 UNL     1      48.673  21.607 -23.764  1.00  0.00     0.040 A 
HETATM   22  C18 UNL     1      47.880  21.515 -24.893  1.00  0.00     0.020 A 
BRANCH  19  23
HETATM   23  O1  UNL     1      50.860  24.357 -24.686  1.00  0.00    -0.353 OA
HETATM   24  C1  UNL     1      50.850  25.610 -25.322  1.00  0.00     0.210 C 
ENDBRANCH  19  23
BRANCH  20  25
HETATM   25  O6  UNL     1      50.460  22.662 -22.589  1.00  0.00    -0.358 OA
ATOM     26  H6  UNL     1      51.118  22.003 -22.403  1.00  0.00     0.217 HD
ENDBRANCH  20  25
ENDBRANCH  14  17
ENDBRANCH  10  13
ENDBRANCH   1   9
BRANCH   8  27
HETATM   27  N13 UNL     1      41.660  22.199 -28.486  1.00  0.00    -0.232 N 
ATOM     28 2H13 UNL     1      40.726  22.515 -28.223  1.00  0.00     0.174 HD
ATOM     29 1H13 UNL     1      42.287  21.689 -27.865  1.00  0.00     0.174 HD
ENDBRANCH   8  27
BRANCH   7  30
HETATM   30  N11 UNL     1      39.945  22.031 -30.667  1.00  0.00    -0.296 N 
ATOM     31  H11 UNL     1      39.493  22.266 -29.784  1.00  0.00     0.182 HD
BRANCH  30  32
HETATM   32  C11 UNL     1      39.079  21.449 -31.637  1.00  0.00     0.181 C 
BRANCH  32  33
HETATM   33  C12 UNL     1      39.006  19.984 -31.443  1.00  0.00    -0.024 A 
HETATM   34  C13 UNL     1      39.714  19.116 -32.240  1.00  0.00     0.011 A 
HETATM   35  C14 UNL     1      39.599  17.733 -32.039  1.00  0.00     0.018 A 
HETATM   36  C15 UNL     1      38.777  17.258 -31.046  1.00  0.00     0.087 A 
HETATM   37  N12 UNL     1      38.101  18.126 -30.287  1.00  0.00    -0.375 N 
HETATM   38  C16 UNL     1      38.198  19.454 -30.464  1.00  0.00     0.096 A 
ATOM     39  H12 UNL     1      37.491  17.768 -29.551  1.00  0.00     0.164 HD
ENDBRANCH  32  33
ENDBRANCH  30  32
ENDBRANCH   7  30
BRANCH   6  40
HETATM   40  N5  UNL     1      41.117  22.475 -32.991  1.00  0.00    -0.115 N 
ATOM     41  H5  UNL     1      40.106  22.383 -32.903  1.00  0.00     0.206 HD
BRANCH  40  42
HETATM   42  N6  UNL     1      41.725  22.534 -34.244  1.00  0.00    -0.117 N 
HETATM   43  C10 UNL     1      42.481  21.463 -34.789  1.00  0.00     0.710 C 
HETATM   44  N7  UNL     1      42.152  20.235 -34.587  1.00  0.00    -0.232 N 
HETATM   45  N8  UNL     1      43.635  21.715 -35.579  1.00  0.00    -0.071 N 
ATOM     46  H72 UNL     1      41.324  20.054 -34.020  1.00  0.00     0.174 HD
ATOM     47  H71 UNL     1      42.695  19.464 -34.978  1.00  0.00     0.174 HD
ATOM     48  H8  UNL     1      43.695  22.560 -36.147  1.00  0.00     0.212 HD
ATOM     49  H6  UNL     1      41.622  23.386 -34.796  1.00  0.00     0.206 HD
BRANCH  45  50
HETATM   50  N9  UNL     1      44.676  20.805 -35.570  1.00  0.00    -0.024 N 
HETATM   51  O4  UNL     1      45.679  21.046 -34.868  1.00  0.00    -0.516 OA
HETATM   52  O5  UNL     1      44.622  19.646 -36.320  1.00  0.00    -0.516 OA
ENDBRANCH  45  50
ENDBRANCH  40  42
ENDBRANCH   6  40
TORSDOF 12
ENDMDL
MODEL 4
REMARK VINA RESULT: -8.230472642      2.596      4.839
REMARK  12 active torsions:
REMARK  status: ('A' for Active; 'I' for Inactive)
REMARK    1  A    between atoms: O1_2  and  C2_3 
REMARK    2  A    between atoms: C4_5  and  C5_6 
REMARK       I    between atoms: C5_6  and  N1_8 
REMARK    3  A    between atoms: N1_8  and  N2_10 
REMARK    4  A    between atoms: C6_12  and  N3_14 
REMARK    5  A    between atoms: C9_19  and  N5_20 
REMARK    6  A    between atoms: N5_20  and  N6_22 
REMARK       I    between atoms: N6_22  and  C10_24 
REMARK       I    between atoms: C10_24  and  N8_28 
REMARK    7  A    between atoms: N8_28  and  N9_30 
REMARK    8  A    between atoms: N10_33  and  N11_34 
REMARK    9  A    between atoms: N11_34  and  C11_36 
REMARK   10  A    between atoms: C11_36  and  C12_37 
REMARK   11  A    between atoms: C17_44  and  N13_45 
REMARK   12  A    between atoms: C20_50  and  O6_51 
ROOT
HETATM    1  N3  UNL     1      43.637  22.271 -29.510  1.00  0.00    -0.081 N 
HETATM    2  C8  UNL     1      42.335  22.561 -29.378  1.00  0.00     0.361 A 
HETATM    3  O3  UNL     1      41.890  22.796 -28.217  1.00  0.00    -0.245 OA
HETATM    4  N4  UNL     1      41.515  22.604 -30.441  1.00  0.00    -0.137 N 
ATOM      5  H4  UNL     1      40.527  22.827 -30.313  1.00  0.00     0.189 HD
HETATM    6  C9  UNL     1      41.990  22.353 -31.673  1.00  0.00     0.737 A 
HETATM    7  N10 UNL     1      43.316  22.050 -31.867  1.00  0.00     0.087 N 
HETATM    8  C17 UNL     1      44.090  22.023 -30.773  1.00  0.00     0.724 A 
ENDROOT
BRANCH   1   9
HETATM    9  C6  UNL     1      44.522  22.222 -28.393  1.00  0.00     0.120 C 
HETATM   10  N2  UNL     1      45.217  23.234 -28.065  1.00  0.00    -0.285 N 
ATOM     11  H2  UNL     1      45.144  24.096 -28.606  1.00  0.00     0.188 HD
HETATM   12  C7  UNL     1      44.622  20.952 -27.602  1.00  0.00     0.092 C 
BRANCH  10  13
HETATM   13  N1  UNL     1      46.082  23.173 -26.965  1.00  0.00    -0.264 N 
HETATM   14  C5  UNL     1      47.466  22.921 -27.151  1.00  0.00     0.270 C 
HETATM   15  O2  UNL     1      47.928  22.748 -28.307  1.00  0.00    -0.266 OA
ATOM     16  H1  UNL     1      45.715  23.312 -26.024  1.00  0.00     0.190 HD
BRANCH  14  17
HETATM   17  C4  UNL     1      48.377  22.854 -26.024  1.00  0.00     0.036 A 
HETATM   18  C3  UNL     1      49.390  23.791 -25.900  1.00  0.00     0.056 A 
HETATM   19  C2  UNL     1      50.280  23.773 -24.853  1.00  0.00     0.102 A 
HETATM   20  C20 UNL     1      50.162  22.782 -23.884  1.00  0.00     0.099 A 
HETATM   21  C19 UNL     1      49.172  21.830 -23.967  1.00  0.00     0.040 A 
HETATM   22  C18 UNL     1      48.295  21.881 -25.035  1.00  0.00     0.020 A 
BRANCH  19  23
HETATM   23  O1  UNL     1      51.300  24.683 -24.689  1.00  0.00    -0.353 OA
HETATM   24  C1  UNL     1      51.223  26.026 -25.095  1.00  0.00     0.210 C 
ENDBRANCH  19  23
BRANCH  20  25
HETATM   25  O6  UNL     1      51.048  22.731 -22.803  1.00  0.00    -0.358 OA
ATOM     26  H6  UNL     1      51.233  21.908 -22.367  1.00  0.00     0.217 HD
ENDBRANCH  20  25
ENDBRANCH  14  17
ENDBRANCH  10  13
ENDBRANCH   1   9
BRANCH   8  27
HETATM   27  N13 UNL     1      45.330  21.781 -30.866  1.00  0.00    -0.232 N 
ATOM     28 2H13 UNL     1      45.965  22.025 -30.106  1.00  0.00     0.174 HD
ATOM     29 1H13 UNL     1      45.620  21.319 -31.728  1.00  0.00     0.174 HD
ENDBRANCH   8  27
BRANCH   7  30
HETATM   30  N11 UNL     1      43.761  21.831 -33.159  1.00  0.00    -0.296 N 
ATOM     31  H11 UNL     1      43.791  22.666 -33.743  1.00  0.00     0.182 HD
BRANCH  30  32
HETATM   32  C11 UNL     1      44.183  20.638 -33.814  1.00  0.00     0.181 C 
BRANCH  32  33
HETATM   33  C12 UNL     1      44.378  20.889 -35.258  1.00  0.00    -0.024 A 
HETATM   34  C13 UNL     1      45.302  21.800 -35.712  1.00  0.00     0.011 A 
HETATM   35  C14 UNL     1      45.440  22.027 -37.088  1.00  0.00     0.018 A 
HETATM   36  C15 UNL     1      44.649  21.336 -37.973  1.00  0.00     0.087 A 
HETATM   37  N12 UNL     1      43.758  20.457 -37.503  1.00  0.00    -0.375 N 
HETATM   38  C16 UNL     1      43.611  20.225 -36.188  1.00  0.00     0.096 A 
ATOM     39  H12 UNL     1      43.172  19.947 -38.164  1.00  0.00     0.164 HD
ENDBRANCH  32  33
ENDBRANCH  30  32
ENDBRANCH   7  30
BRANCH   6  40
HETATM   40  N5  UNL     1      41.219  22.385 -32.709  1.00  0.00    -0.115 N 
ATOM     41  H5  UNL     1      40.996  23.266 -33.172  1.00  0.00     0.206 HD
BRANCH  40  42
HETATM   42  N6  UNL     1      40.700  21.179 -33.177  1.00  0.00    -0.117 N 
HETATM   43  C10 UNL     1      39.721  20.432 -32.469  1.00  0.00     0.710 C 
HETATM   44  N7  UNL     1      38.786  21.011 -31.799  1.00  0.00    -0.232 N 
HETATM   45  N8  UNL     1      39.744  19.012 -32.478  1.00  0.00    -0.071 N 
ATOM     46  H72 UNL     1      38.770  22.030 -31.792  1.00  0.00     0.174 HD
ATOM     47  H71 UNL     1      38.083  20.475 -31.290  1.00  0.00     0.174 HD
ATOM     48  H8  UNL     1      40.105  18.508 -33.288  1.00  0.00     0.212 HD
ATOM     49  H6  UNL     1      41.038  20.815 -34.068  1.00  0.00     0.206 HD
BRANCH  45  50
HETATM   50  N9  UNL     1      39.272  18.318 -31.379  1.00  0.00    -0.024 N 
HETATM   51  O4  UNL     1      38.807  17.172 -31.545  1.00  0.00    -0.516 OA
HETATM   52  O5  UNL     1      39.307  18.870 -30.113  1.00  0.00    -0.516 OA
ENDBRANCH  45  50
ENDBRANCH  40  42
ENDBRANCH   6  40
TORSDOF 12
ENDMDL
MODEL 5
REMARK VINA RESULT: -8.187029765      3.932     10.912
REMARK  12 active torsions:
REMARK  status: ('A' for Active; 'I' for Inactive)
REMARK    1  A    between atoms: O1_2  and  C2_3 
REMARK    2  A    between atoms: C4_5  and  C5_6 
REMARK       I    between atoms: C5_6  and  N1_8 
REMARK    3  A    between atoms: N1_8  and  N2_10 
REMARK    4  A    between atoms: C6_12  and  N3_14 
REMARK    5  A    between atoms: C9_19  and  N5_20 
REMARK    6  A    between atoms: N5_20  and  N6_22 
REMARK       I    between atoms: N6_22  and  C10_24 
REMARK       I    between atoms: C10_24  and  N8_28 
REMARK    7  A    between atoms: N8_28  and  N9_30 
REMARK    8  A    between atoms: N10_33  and  N11_34 
REMARK    9  A    between atoms: N11_34  and  C11_36 
REMARK   10  A    between atoms: C11_36  and  C12_37 
REMARK   11  A    between atoms: C17_44  and  N13_45 
REMARK   12  A    between atoms: C20_50  and  O6_51 
ROOT
HETATM    1  N3  UNL     1      46.197  21.950 -26.639  1.00  0.00    -0.081 N 
HETATM    2  C8  UNL     1      46.336  20.866 -25.861  1.00  0.00     0.361 A 
HETATM    3  O3  UNL     1      45.405  20.010 -25.858  1.00  0.00    -0.245 OA
HETATM    4  N4  UNL     1      47.430  20.684 -25.103  1.00  0.00    -0.137 N 
ATOM      5  H4  UNL     1      47.512  19.850 -24.520  1.00  0.00     0.189 HD
HETATM    6  C9  UNL     1      48.418  21.596 -25.108  1.00  0.00     0.737 A 
HETATM    7  N10 UNL     1      48.327  22.724 -25.887  1.00  0.00     0.087 N 
HETATM    8  C17 UNL     1      47.217  22.856 -26.625  1.00  0.00     0.724 A 
ENDROOT
BRANCH   1   9
HETATM    9  C6  UNL     1      45.043  22.158 -27.451  1.00  0.00     0.120 C 
HETATM   10  N2  UNL     1      44.660  21.276 -28.281  1.00  0.00    -0.285 N 
ATOM     11  H2  UNL     1      45.182  20.404 -28.371  1.00  0.00     0.188 HD
HETATM   12  C7  UNL     1      44.281  23.443 -27.311  1.00  0.00     0.092 C 
BRANCH  10  13
HETATM   13  N1  UNL     1      43.525  21.494 -29.072  1.00  0.00    -0.264 N 
HETATM   14  C5  UNL     1      42.386  20.657 -28.943  1.00  0.00     0.270 C 
HETATM   15  O2  UNL     1      42.386  19.711 -28.115  1.00  0.00    -0.266 OA
ATOM     16  H1  UNL     1      43.517  22.259 -29.746  1.00  0.00     0.190 HD
BRANCH  14  17
HETATM   17  C4  UNL     1      41.201  20.867 -29.754  1.00  0.00     0.036 A 
HETATM   18  C3  UNL     1      41.320  21.431 -31.014  1.00  0.00     0.056 A 
HETATM   19  C2  UNL     1      40.230  21.651 -31.823  1.00  0.00     0.102 A 
HETATM   20  C20 UNL     1      38.966  21.297 -31.363  1.00  0.00     0.099 A 
HETATM   21  C19 UNL     1      38.801  20.734 -30.117  1.00  0.00     0.040 A 
HETATM   22  C18 UNL     1      39.921  20.528 -29.333  1.00  0.00     0.020 A 
BRANCH  19  23
HETATM   23  O1  UNL     1      40.300  22.207 -33.080  1.00  0.00    -0.353 OA
HETATM   24  C1  UNL     1      41.300  21.898 -34.017  1.00  0.00     0.210 C 
ENDBRANCH  19  23
BRANCH  20  25
HETATM   25  O6  UNL     1      37.833  21.505 -32.156  1.00  0.00    -0.358 OA
ATOM     26  H6  UNL     1      37.920  21.756 -33.068  1.00  0.00     0.217 HD
ENDBRANCH  20  25
ENDBRANCH  14  17
ENDBRANCH  10  13
ENDBRANCH   1   9
BRANCH   8  27
HETATM   27  N13 UNL     1      47.066  23.852 -27.392  1.00  0.00    -0.232 N 
ATOM     28 2H13 UNL     1      47.520  23.878 -28.306  1.00  0.00     0.174 HD
ATOM     29 1H13 UNL     1      46.456  24.588 -27.036  1.00  0.00     0.174 HD
ENDBRANCH   8  27
BRANCH   7  30
HETATM   30  N11 UNL     1      49.386  23.617 -25.880  1.00  0.00    -0.296 N 
ATOM     31  H11 UNL     1      49.461  24.176 -25.031  1.00  0.00     0.182 HD
BRANCH  30  32
HETATM   32  C11 UNL     1      50.388  23.887 -26.856  1.00  0.00     0.181 C 
BRANCH  32  33
HETATM   33  C12 UNL     1      50.692  25.335 -26.888  1.00  0.00    -0.024 A 
HETATM   34  C13 UNL     1      49.722  26.280 -26.656  1.00  0.00     0.011 A 
HETATM   35  C14 UNL     1      50.046  27.642 -26.718  1.00  0.00     0.018 A 
HETATM   36  C15 UNL     1      51.333  28.021 -27.011  1.00  0.00     0.087 A 
HETATM   37  N12 UNL     1      52.256  27.080 -27.232  1.00  0.00    -0.375 N 
HETATM   38  C16 UNL     1      51.965  25.769 -27.177  1.00  0.00     0.096 A 
ATOM     39  H12 UNL     1      53.211  27.366 -27.450  1.00  0.00     0.164 HD
ENDBRANCH  32  33
ENDBRANCH  30  32
ENDBRANCH   7  30
BRANCH   6  40
HETATM   40  N5  UNL     1      49.477  21.442 -24.385  1.00  0.00    -0.115 N 
ATOM     41  H5  UNL     1      49.721  22.117 -23.660  1.00  0.00     0.206 HD
BRANCH  40  42
HETATM   42  N6  UNL     1      50.277  20.326 -24.624  1.00  0.00    -0.117 N 
HETATM   43  C10 UNL     1      51.560  20.409 -25.226  1.00  0.00     0.710 C 
HETATM   44  N7  UNL     1      52.351  21.398 -24.993  1.00  0.00    -0.232 N 
HETATM   45  N8  UNL     1      52.014  19.396 -26.112  1.00  0.00    -0.071 N 
ATOM     46  H72 UNL     1      52.025  22.125 -24.357  1.00  0.00     0.174 HD
ATOM     47  H71 UNL     1      53.273  21.458 -25.426  1.00  0.00     0.174 HD
ATOM     48  H8  UNL     1      51.703  18.431 -25.994  1.00  0.00     0.212 HD
ATOM     49  H6  UNL     1      49.925  19.407 -24.354  1.00  0.00     0.206 HD
BRANCH  45  50
HETATM   50  N9  UNL     1      52.881  19.728 -27.137  1.00  0.00    -0.024 N 
HETATM   51  O4  UNL     1      52.745  20.830 -27.706  1.00  0.00    -0.516 OA
HETATM   52  O5  UNL     1      53.885  18.867 -27.535  1.00  0.00    -0.516 OA
ENDBRANCH  45  50
ENDBRANCH  40  42
ENDBRANCH   6  40
TORSDOF 12
ENDMDL
