MODEL 1
REMARK VINA RESULT: -7.548360236      0.000      0.000
REMARK  13 active torsions:
REMARK  status: ('A' for Active; 'I' for Inactive)
REMARK    1  A    between atoms: N1_2  and  C2_3 
REMARK    2  A    between atoms: N1_2  and  C13_35 
REMARK    3  A    between atoms: C2_3  and  C3_4 
REMARK    4  A    between atoms: C3_4  and  C4_5 
REMARK       I    between atoms: C4_5  and  N2_7 
REMARK    5  A    between atoms: N2_7  and  C5_9 
REMARK    6  A    between atoms: C8_16  and  N4_17 
REMARK    7  A    between atoms: N4_17  and  C9_19 
REMARK    8  A    between atoms: C10_22  and  N6_23 
REMARK    9  A    between atoms: N7_26  and  N8_27 
REMARK   10  A    between atoms: C11_30  and  O2_31 
REMARK   11  A    between atoms: C15_39  and  C16_40 
REMARK       I    between atoms: C16_40  and  N11_42 
REMARK   12  A    between atoms: N11_42  and  O4_44 
REMARK   13  A    between atoms: O4_44  and  C17_45 
ROOT
HETATM    1  C5  UNL     1      40.833  19.970 -32.094  1.00  0.00     0.150 C 
HETATM    2  C6  UNL     1      39.322  19.890 -32.042  1.00  0.00     0.111 C 
HETATM    3  S1  UNL     1      38.869  18.703 -30.750  1.00  0.00    -0.088 SA
HETATM    4  C7  UNL     1      38.907  21.287 -31.644  1.00  0.00     0.253 C 
HETATM    5  N3  UNL     1      40.105  22.078 -31.586  1.00  0.00    -0.051 N 
ATOM      6  H31 UNL     1      40.033  22.936 -31.039  1.00  0.00     0.279 HD
ATOM      7  H32 UNL     1      40.359  22.544 -32.457  1.00  0.00     0.279 HD
HETATM    8  C8  UNL     1      41.076  21.108 -31.094  1.00  0.00     0.309 C 
ENDROOT
BRANCH   1   9
HETATM    9  N2  UNL     1      41.184  20.358 -33.423  1.00  0.00    -0.351 N 
HETATM   10  C4  UNL     1      42.446  20.000 -34.049  1.00  0.00     0.219 C 
HETATM   11  O1  UNL     1      43.193  19.314 -33.313  1.00  0.00    -0.274 OA
ATOM     12  H2  UNL     1      40.517  20.914 -33.958  1.00  0.00     0.163 HD
BRANCH  10  13
HETATM   13  C3  UNL     1      42.754  20.425 -35.402  1.00  0.00     0.123 C 
BRANCH  13  14
HETATM   14  C2  UNL     1      44.152  20.510 -35.843  1.00  0.00     0.150 C 
BRANCH  14  15
HETATM   15  N1  UNL     1      44.886  21.723 -35.644  1.00  0.00    -0.222 N 
HETATM   16  C1  UNL     1      44.954  22.800 -36.592  1.00  0.00     0.168 C 
BRANCH  15  17
HETATM   17  C13 UNL     1      45.617  21.941 -34.418  1.00  0.00     0.679 A 
HETATM   18  N10 UNL     1      46.278  23.081 -34.256  1.00  0.00    -0.201 N 
HETATM   19  C14 UNL     1      46.994  23.346 -33.130  1.00  0.00     0.124 A 
ATOM     20  H10 UNL     1      46.249  23.779 -34.999  1.00  0.00     0.183 HD
HETATM   21  C15 UNL     1      47.044  22.413 -32.116  1.00  0.00     0.066 A 
HETATM   22  C21 UNL     1      46.350  21.231 -32.298  1.00  0.00     0.124 A 
HETATM   23  N12 UNL     1      45.661  21.041 -33.445  1.00  0.00    -0.201 N 
ATOM     24  H12 UNL     1      45.151  20.166 -33.568  1.00  0.00     0.183 HD
BRANCH  21  25
HETATM   25  C16 UNL     1      47.820  22.645 -30.882  1.00  0.00     0.277 C 
HETATM   26  O3  UNL     1      49.034  23.025 -31.009  1.00  0.00    -0.265 OA
HETATM   27  N11 UNL     1      47.310  22.478 -29.597  1.00  0.00    -0.230 N 
ATOM     28  H11 UNL     1      46.341  22.172 -29.503  1.00  0.00     0.197 HD
BRANCH  27  29
HETATM   29  O4  UNL     1      48.014  22.694 -28.469  1.00  0.00    -0.267 OA
BRANCH  29  30
HETATM   30  C17 UNL     1      47.132  22.923 -27.398  1.00  0.00     0.078 C 
HETATM   31  C18 UNL     1      47.790  22.561 -26.097  1.00  0.00     0.048 C 
HETATM   32  C19 UNL     1      45.844  22.153 -27.560  1.00  0.00     0.048 C 
HETATM   33  C20 UNL     1      46.798  24.401 -27.412  1.00  0.00     0.048 C 
ENDBRANCH  29  30
ENDBRANCH  27  29
ENDBRANCH  21  25
ENDBRANCH  15  17
ENDBRANCH  14  15
ENDBRANCH  13  14
ENDBRANCH  10  13
ENDBRANCH   1   9
BRANCH   8  34
HETATM   34  N4  UNL     1      42.399  21.571 -31.098  1.00  0.00    -0.345 N 
ATOM     35  H4  UNL     1      43.119  20.932 -31.433  1.00  0.00     0.163 HD
BRANCH  34  36
HETATM   36  C9  UNL     1      42.771  22.724 -30.717  1.00  0.00     0.147 A 
HETATM   37  N5  UNL     1      42.860  23.180 -29.460  1.00  0.00    -0.173 N 
HETATM   38  C10 UNL     1      43.267  24.421 -29.156  1.00  0.00     0.700 A 
ATOM     39  H5  UNL     1      42.606  22.552 -28.697  1.00  0.00     0.186 HD
HETATM   40  N7  UNL     1      43.609  25.280 -30.120  1.00  0.00    -0.068 N 
HETATM   41  C11 UNL     1      43.538  24.874 -31.400  1.00  0.00     0.207 A 
HETATM   42  C12 UNL     1      43.129  23.619 -31.745  1.00  0.00     0.143 A 
HETATM   43  N9  UNL     1      43.058  23.201 -33.089  1.00  0.00    -0.094 NA
BRANCH  38  44
HETATM   44  N6  UNL     1      43.331  24.803 -27.926  1.00  0.00    -0.233 N 
ATOM     45  H62 UNL     1      43.143  24.126 -27.187  1.00  0.00     0.174 HD
ATOM     46  H61 UNL     1      43.567  25.769 -27.699  1.00  0.00     0.174 HD
ENDBRANCH  38  44
BRANCH  40  47
HETATM   47  N8  UNL     1      44.037  26.600 -29.809  1.00  0.00    -0.322 N 
ATOM     48  H82 UNL     1      43.475  27.194 -29.198  1.00  0.00     0.178 HD
ATOM     49  H81 UNL     1      44.909  26.974 -30.184  1.00  0.00     0.178 HD
ENDBRANCH  40  47
BRANCH  41  50
HETATM   50  O2  UNL     1      43.906  25.802 -32.394  1.00  0.00    -0.343 OA
ATOM     51  H2  UNL     1      43.228  26.381 -32.723  1.00  0.00     0.219 HD
ENDBRANCH  41  50
ENDBRANCH  34  36
ENDBRANCH   8  34
TORSDOF 13
ENDMDL
MODEL 2
REMARK VINA RESULT: -7.436700211      3.228      7.113
REMARK  13 active torsions:
REMARK  status: ('A' for Active; 'I' for Inactive)
REMARK    1  A    between atoms: N1_2  and  C2_3 
REMARK    2  A    between atoms: N1_2  and  C13_35 
REMARK    3  A    between atoms: C2_3  and  C3_4 
REMARK    4  A    between atoms: C3_4  and  C4_5 
REMARK       I    between atoms: C4_5  and  N2_7 
REMARK    5  A    between atoms: N2_7  and  C5_9 
REMARK    6  A    between atoms: C8_16  and  N4_17 
REMARK    7  A    between atoms: N4_17  and  C9_19 
REMARK    8  A    between atoms: C10_22  and  N6_23 
REMARK    9  A    between atoms: N7_26  and  N8_27 
REMARK   10  A    between atoms: C11_30  and  O2_31 
REMARK   11  A    between atoms: C15_39  and  C16_40 
REMARK       I    between atoms: C16_40  and  N11_42 
REMARK   12  A    between atoms: N11_42  and  O4_44 
REMARK   13  A    between atoms: O4_44  and  C17_45 
ROOT
HETATM    1  C5  UNL     1      42.911  23.334 -29.208  1.00  0.00     0.150 C 
HETATM    2  C6  UNL     1      43.178  24.351 -30.297  1.00  0.00     0.111 C 
HETATM    3  S1  UNL     1      43.623  25.917 -29.502  1.00  0.00    -0.088 SA
HETATM    4  C7  UNL     1      44.367  23.777 -31.032  1.00  0.00     0.253 C 
HETATM    5  N3  UNL     1      44.647  22.498 -30.440  1.00  0.00    -0.051 N 
ATOM      6  H31 UNL     1      45.587  22.139 -30.606  1.00  0.00     0.279 HD
ATOM      7  H32 UNL     1      44.167  21.707 -30.868  1.00  0.00     0.279 HD
HETATM    8  C8  UNL     1      44.316  22.743 -29.041  1.00  0.00     0.309 C 
ENDROOT
BRANCH   1   9
HETATM    9  N2  UNL     1      42.001  22.375 -29.749  1.00  0.00    -0.351 N 
HETATM   10  C4  UNL     1      41.092  21.590 -28.930  1.00  0.00     0.219 C 
HETATM   11  O1  UNL     1      41.180  21.840 -27.706  1.00  0.00    -0.274 OA
ATOM     12  H2  UNL     1      41.989  22.234 -30.759  1.00  0.00     0.163 HD
BRANCH  10  13
HETATM   13  C3  UNL     1      40.191  20.625 -29.532  1.00  0.00     0.123 C 
BRANCH  13  14
HETATM   14  C2  UNL     1      39.867  20.717 -30.961  1.00  0.00     0.150 C 
BRANCH  14  15
HETATM   15  N1  UNL     1      40.344  19.711 -31.862  1.00  0.00    -0.222 N 
HETATM   16  C1  UNL     1      39.763  18.405 -32.007  1.00  0.00     0.168 C 
BRANCH  15  17
HETATM   17  C13 UNL     1      41.476  19.976 -32.719  1.00  0.00     0.679 A 
HETATM   18  N10 UNL     1      42.700  19.887 -32.215  1.00  0.00    -0.201 N 
HETATM   19  C14 UNL     1      43.809  20.132 -32.965  1.00  0.00     0.124 A 
ATOM     20  H10 UNL     1      42.814  19.628 -31.236  1.00  0.00     0.183 HD
HETATM   21  C15 UNL     1      43.672  20.484 -34.291  1.00  0.00     0.066 A 
HETATM   22  C21 UNL     1      42.391  20.572 -34.802  1.00  0.00     0.124 A 
HETATM   23  N12 UNL     1      41.339  20.312 -33.994  1.00  0.00    -0.201 N 
ATOM     24  H12 UNL     1      40.398  20.379 -34.383  1.00  0.00     0.183 HD
BRANCH  21  25
HETATM   25  C16 UNL     1      44.843  20.777 -35.143  1.00  0.00     0.277 C 
HETATM   26  O3  UNL     1      45.796  21.452 -34.626  1.00  0.00    -0.265 OA
HETATM   27  N11 UNL     1      44.967  20.361 -36.467  1.00  0.00    -0.230 N 
ATOM     28  H11 UNL     1      44.200  19.825 -36.873  1.00  0.00     0.197 HD
BRANCH  27  29
HETATM   29  O4  UNL     1      46.035  20.622 -37.244  1.00  0.00    -0.267 OA
BRANCH  29  30
HETATM   30  C17 UNL     1      45.611  21.231 -38.440  1.00  0.00     0.078 C 
HETATM   31  C18 UNL     1      44.208  20.806 -38.769  1.00  0.00     0.048 C 
HETATM   32  C19 UNL     1      46.535  20.908 -39.589  1.00  0.00     0.048 C 
HETATM   33  C20 UNL     1      45.656  22.728 -38.211  1.00  0.00     0.048 C 
ENDBRANCH  29  30
ENDBRANCH  27  29
ENDBRANCH  21  25
ENDBRANCH  15  17
ENDBRANCH  14  15
ENDBRANCH  13  14
ENDBRANCH  10  13
ENDBRANCH   1   9
BRANCH   8  34
HETATM   34  N4  UNL     1      44.337  21.593 -28.240  1.00  0.00    -0.345 N 
ATOM     35  H4  UNL     1      43.628  20.882 -28.419  1.00  0.00     0.163 HD
BRANCH  34  36
HETATM   36  C9  UNL     1      45.170  21.367 -27.307  1.00  0.00     0.147 A 
HETATM   37  N5  UNL     1      46.228  22.113 -26.958  1.00  0.00    -0.173 N 
HETATM   38  C10 UNL     1      47.054  21.790 -25.953  1.00  0.00     0.700 A 
ATOM     39  H5  UNL     1      46.413  22.968 -27.484  1.00  0.00     0.186 HD
HETATM   40  N7  UNL     1      46.852  20.681 -25.236  1.00  0.00    -0.068 N 
HETATM   41  C11 UNL     1      45.804  19.896 -25.544  1.00  0.00     0.207 A 
HETATM   42  C12 UNL     1      44.945  20.195 -26.560  1.00  0.00     0.143 A 
HETATM   43  N9  UNL     1      43.848  19.367 -26.876  1.00  0.00    -0.094 NA
BRANCH  38  44
HETATM   44  N6  UNL     1      48.057  22.546 -25.664  1.00  0.00    -0.233 N 
ATOM     45  H62 UNL     1      47.930  23.559 -25.666  1.00  0.00     0.174 HD
ATOM     46  H61 UNL     1      48.963  22.137 -25.438  1.00  0.00     0.174 HD
ENDBRANCH  38  44
BRANCH  40  47
HETATM   47  N8  UNL     1      47.725  20.327 -24.170  1.00  0.00    -0.322 N 
ATOM     48  H82 UNL     1      47.661  20.805 -23.271  1.00  0.00     0.178 HD
ATOM     49  H81 UNL     1      48.423  19.591 -24.283  1.00  0.00     0.178 HD
ENDBRANCH  40  47
BRANCH  41  50
HETATM   50  O2  UNL     1      45.617  18.734 -24.770  1.00  0.00    -0.343 OA
ATOM     51  H2  UNL     1      44.864  18.711 -24.192  1.00  0.00     0.219 HD
ENDBRANCH  41  50
ENDBRANCH  34  36
ENDBRANCH   8  34
TORSDOF 13
ENDMDL
MODEL 3
REMARK VINA RESULT: -7.425996864      1.057      1.576
REMARK  13 active torsions:
REMARK  status: ('A' for Active; 'I' for Inactive)
REMARK    1  A    between atoms: N1_2  and  C2_3 
REMARK    2  A    between atoms: N1_2  and  C13_35 
REMARK    3  A    between atoms: C2_3  and  C3_4 
REMARK    4  A    between atoms: C3_4  and  C4_5 
REMARK       I    between atoms: C4_5  and  N2_7 
REMARK    5  A    between atoms: N2_7  and  C5_9 
REMARK    6  A    between atoms: C8_16  and  N4_17 
REMARK    7  A    between atoms: N4_17  and  C9_19 
REMARK    8  A    between atoms: C10_22  and  N6_23 
REMARK    9  A    between atoms: N7_26  and  N8_27 
REMARK   10  A    between atoms: C11_30  and  O2_31 
REMARK   11  A    between atoms: C15_39  and  C16_40 
REMARK       I    between atoms: C16_40  and  N11_42 
REMARK   12  A    between atoms: N11_42  and  O4_44 
REMARK   13  A    between atoms: O4_44  and  C17_45 
ROOT
HETATM    1  C5  UNL     1      40.914  19.773 -32.186  1.00  0.00     0.150 C 
HETATM    2  C6  UNL     1      39.406  19.640 -32.221  1.00  0.00     0.111 C 
HETATM    3  S1  UNL     1      38.930  18.370 -31.019  1.00  0.00    -0.088 SA
HETATM    4  C7  UNL     1      38.921  20.999 -31.774  1.00  0.00     0.253 C 
HETATM    5  N3  UNL     1      40.084  21.825 -31.610  1.00  0.00    -0.051 N 
ATOM      6  H31 UNL     1      39.953  22.649 -31.023  1.00  0.00     0.279 HD
ATOM      7  H32 UNL     1      40.367  22.345 -32.441  1.00  0.00     0.279 HD
HETATM    8  C8  UNL     1      41.062  20.863 -31.117  1.00  0.00     0.309 C 
ENDROOT
BRANCH   1   9
HETATM    9  N2  UNL     1      41.320  20.244 -33.472  1.00  0.00    -0.351 N 
HETATM   10  C4  UNL     1      42.619  19.950 -34.053  1.00  0.00     0.219 C 
HETATM   11  O1  UNL     1      43.345  19.240 -33.320  1.00  0.00    -0.274 OA
ATOM     12  H2  UNL     1      40.666  20.814 -34.009  1.00  0.00     0.163 HD
BRANCH  10  13
HETATM   13  C3  UNL     1      42.982  20.458 -35.364  1.00  0.00     0.123 C 
BRANCH  13  14
HETATM   14  C2  UNL     1      44.394  20.518 -35.761  1.00  0.00     0.150 C 
BRANCH  14  15
HETATM   15  N1  UNL     1      45.168  21.681 -35.452  1.00  0.00    -0.222 N 
HETATM   16  C1  UNL     1      45.576  22.669 -36.412  1.00  0.00     0.168 C 
BRANCH  15  17
HETATM   17  C13 UNL     1      45.587  21.941 -34.093  1.00  0.00     0.679 A 
HETATM   18  N10 UNL     1      45.657  20.929 -33.237  1.00  0.00    -0.201 N 
HETATM   19  C14 UNL     1      46.034  21.105 -31.942  1.00  0.00     0.124 A 
ATOM     20  H10 UNL     1      45.420  19.991 -33.560  1.00  0.00     0.183 HD
HETATM   21  C15 UNL     1      46.357  22.367 -31.490  1.00  0.00     0.066 A 
HETATM   22  C21 UNL     1      46.280  23.410 -32.393  1.00  0.00     0.124 A 
HETATM   23  N12 UNL     1      45.897  23.156 -33.664  1.00  0.00    -0.201 N 
ATOM     24  H12 UNL     1      45.846  23.933 -34.322  1.00  0.00     0.183 HD
BRANCH  21  25
HETATM   25  C16 UNL     1      46.756  22.614 -30.090  1.00  0.00     0.277 C 
HETATM   26  O3  UNL     1      46.031  22.103 -29.169  1.00  0.00    -0.265 OA
HETATM   27  N11 UNL     1      47.869  23.363 -29.717  1.00  0.00    -0.230 N 
ATOM     28  H11 UNL     1      48.441  23.770 -30.457  1.00  0.00     0.197 HD
BRANCH  27  29
HETATM   29  O4  UNL     1      48.238  23.586 -28.441  1.00  0.00    -0.267 OA
BRANCH  29  30
HETATM   30  C17 UNL     1      48.280  24.971 -28.196  1.00  0.00     0.078 C 
HETATM   31  C18 UNL     1      48.777  25.698 -29.413  1.00  0.00     0.048 C 
HETATM   32  C19 UNL     1      49.144  25.302 -27.003  1.00  0.00     0.048 C 
HETATM   33  C20 UNL     1      46.863  25.404 -27.880  1.00  0.00     0.048 C 
ENDBRANCH  29  30
ENDBRANCH  27  29
ENDBRANCH  21  25
ENDBRANCH  15  17
ENDBRANCH  14  15
ENDBRANCH  13  14
ENDBRANCH  10  13
ENDBRANCH   1   9
BRANCH   8  34
HETATM   34  N4  UNL     1      42.366  21.370 -31.026  1.00  0.00    -0.345 N 
ATOM     35  H4  UNL     1      43.127  20.770 -31.345  1.00  0.00     0.163 HD
BRANCH  34  36
HETATM   36  C9  UNL     1      42.674  22.517 -30.577  1.00  0.00     0.147 A 
HETATM   37  N5  UNL     1      42.854  22.873 -29.297  1.00  0.00    -0.173 N 
HETATM   38  C10 UNL     1      43.181  24.117 -28.919  1.00  0.00     0.700 A 
ATOM     39  H5  UNL     1      42.735  22.161 -28.575  1.00  0.00     0.186 HD
HETATM   40  N7  UNL     1      43.346  25.083 -29.828  1.00  0.00    -0.068 N 
HETATM   41  C11 UNL     1      43.178  24.780 -31.127  1.00  0.00     0.207 A 
HETATM   42  C12 UNL     1      42.846  23.525 -31.546  1.00  0.00     0.143 A 
HETATM   43  N9  UNL     1      42.673  23.216 -32.910  1.00  0.00    -0.094 NA
BRANCH  38  44
HETATM   44  N6  UNL     1      43.338  24.399 -27.671  1.00  0.00    -0.233 N 
ATOM     45  H62 UNL     1      43.310  23.644 -26.986  1.00  0.00     0.174 HD
ATOM     46  H61 UNL     1      43.490  25.364 -27.376  1.00  0.00     0.174 HD
ENDBRANCH  38  44
BRANCH  40  47
HETATM   47  N8  UNL     1      43.689  26.407 -29.437  1.00  0.00    -0.322 N 
ATOM     48  H82 UNL     1      44.572  26.591 -28.960  1.00  0.00     0.178 HD
ATOM     49  H81 UNL     1      43.064  27.190 -29.629  1.00  0.00     0.178 HD
ENDBRANCH  40  47
BRANCH  41  50
HETATM   50  O2  UNL     1      43.360  25.818 -32.061  1.00  0.00    -0.343 OA
ATOM     51  H2  UNL     1      42.583  26.171 -32.478  1.00  0.00     0.219 HD
ENDBRANCH  41  50
ENDBRANCH  34  36
ENDBRANCH   8  34
TORSDOF 13
ENDMDL
MODEL 4
REMARK VINA RESULT: -7.319546533      3.138      7.353
REMARK  13 active torsions:
REMARK  status: ('A' for Active; 'I' for Inactive)
REMARK    1  A    between atoms: N1_2  and  C2_3 
REMARK    2  A    between atoms: N1_2  and  C13_35 
REMARK    3  A    between atoms: C2_3  and  C3_4 
REMARK    4  A    between atoms: C3_4  and  C4_5 
REMARK       I    between atoms: C4_5  and  N2_7 
REMARK    5  A    between atoms: N2_7  and  C5_9 
REMARK    6  A    between atoms: C8_16  and  N4_17 
REMARK    7  A    between atoms: N4_17  and  C9_19 
REMARK    8  A    between atoms: C10_22  and  N6_23 
REMARK    9  A    between atoms: N7_26  and  N8_27 
REMARK   10  A    between atoms: C11_30  and  O2_31 
REMARK   11  A    between atoms: C15_39  and  C16_40 
REMARK       I    between atoms: C16_40  and  N11_42 
REMARK   12  A    between atoms: N11_42  and  O4_44 
REMARK   13  A    between atoms: O4_44  and  C17_45 
ROOT
HETATM    1  C5  UNL     1      43.585  22.863 -29.885  1.00  0.00     0.150 C 
HETATM    2  C6  UNL     1      44.074  23.059 -31.304  1.00  0.00     0.111 C 
HETATM    3  S1  UNL     1      44.382  24.828 -31.549  1.00  0.00    -0.088 SA
HETATM    4  C7  UNL     1      45.373  22.288 -31.341  1.00  0.00     0.253 C 
HETATM    5  N3  UNL     1      45.513  21.645 -30.064  1.00  0.00    -0.051 N 
ATOM      6  H31 UNL     1      46.462  21.357 -29.825  1.00  0.00     0.279 HD
ATOM      7  H32 UNL     1      45.112  20.710 -30.003  1.00  0.00     0.279 HD
HETATM    8  C8  UNL     1      44.922  22.634 -29.170  1.00  0.00     0.309 C 
ENDROOT
BRANCH   1   9
HETATM    9  N2  UNL     1      42.782  21.681 -29.882  1.00  0.00    -0.351 N 
HETATM   10  C4  UNL     1      41.685  21.468 -28.952  1.00  0.00     0.219 C 
HETATM   11  O1  UNL     1      41.510  22.421 -28.159  1.00  0.00    -0.274 OA
ATOM     12  H2  UNL     1      42.988  20.953 -30.565  1.00  0.00     0.163 HD
BRANCH  10  13
HETATM   13  C3  UNL     1      40.903  20.246 -28.990  1.00  0.00     0.123 C 
BRANCH  13  14
HETATM   14  C2  UNL     1      39.780  20.123 -29.927  1.00  0.00     0.150 C 
BRANCH  14  15
HETATM   15  N1  UNL     1      39.978  19.482 -31.191  1.00  0.00    -0.222 N 
HETATM   16  C1  UNL     1      39.409  18.216 -31.562  1.00  0.00     0.168 C 
BRANCH  15  17
HETATM   17  C13 UNL     1      40.785  20.112 -32.211  1.00  0.00     0.679 A 
HETATM   18  N10 UNL     1      41.820  19.450 -32.712  1.00  0.00    -0.201 N 
HETATM   19  C14 UNL     1      42.626  19.987 -33.668  1.00  0.00     0.124 A 
ATOM     20  H10 UNL     1      42.018  18.509 -32.371  1.00  0.00     0.183 HD
HETATM   21  C15 UNL     1      42.373  21.258 -34.139  1.00  0.00     0.066 A 
HETATM   22  C21 UNL     1      41.291  21.935 -33.608  1.00  0.00     0.124 A 
HETATM   23  N12 UNL     1      40.536  21.333 -32.662  1.00  0.00    -0.201 N 
ATOM     24  H12 UNL     1      39.740  21.842 -32.278  1.00  0.00     0.183 HD
BRANCH  21  25
HETATM   25  C16 UNL     1      43.228  21.893 -35.163  1.00  0.00     0.277 C 
HETATM   26  O3  UNL     1      43.923  22.904 -34.808  1.00  0.00    -0.265 OA
HETATM   27  N11 UNL     1      43.320  21.455 -36.482  1.00  0.00    -0.230 N 
ATOM     28  H11 UNL     1      42.760  20.648 -36.758  1.00  0.00     0.197 HD
BRANCH  27  29
HETATM   29  O4  UNL     1      44.103  22.029 -37.416  1.00  0.00    -0.267 OA
BRANCH  29  30
HETATM   30  C17 UNL     1      44.747  21.032 -38.171  1.00  0.00     0.078 C 
HETATM   31  C18 UNL     1      44.943  19.796 -37.338  1.00  0.00     0.048 C 
HETATM   32  C19 UNL     1      46.072  21.509 -38.712  1.00  0.00     0.048 C 
HETATM   33  C20 UNL     1      43.846  20.721 -39.348  1.00  0.00     0.048 C 
ENDBRANCH  29  30
ENDBRANCH  27  29
ENDBRANCH  21  25
ENDBRANCH  15  17
ENDBRANCH  14  15
ENDBRANCH  13  14
ENDBRANCH  10  13
ENDBRANCH   1   9
BRANCH   8  34
HETATM   34  N4  UNL     1      44.771  22.190 -27.849  1.00  0.00    -0.345 N 
ATOM     35  H4  UNL     1      43.820  22.050 -27.506  1.00  0.00     0.163 HD
BRANCH  34  36
HETATM   36  C9  UNL     1      45.724  21.949 -27.044  1.00  0.00     0.147 A 
HETATM   37  N5  UNL     1      46.803  22.708 -26.805  1.00  0.00    -0.173 N 
HETATM   38  C10 UNL     1      47.761  22.367 -25.931  1.00  0.00     0.700 A 
ATOM     39  H5  UNL     1      46.899  23.588 -27.312  1.00  0.00     0.186 HD
HETATM   40  N7  UNL     1      47.679  21.224 -25.243  1.00  0.00    -0.068 N 
HETATM   41  C11 UNL     1      46.617  20.425 -25.446  1.00  0.00     0.207 A 
HETATM   42  C12 UNL     1      45.624  20.741 -26.326  1.00  0.00     0.143 A 
HETATM   43  N9  UNL     1      44.513  19.898 -26.531  1.00  0.00    -0.094 NA
BRANCH  38  44
HETATM   44  N6  UNL     1      48.777  23.137 -25.744  1.00  0.00    -0.233 N 
ATOM     45  H62 UNL     1      48.782  23.762 -24.938  1.00  0.00     0.174 HD
ATOM     46  H61 UNL     1      49.563  23.120 -26.394  1.00  0.00     0.174 HD
ENDBRANCH  38  44
BRANCH  40  47
HETATM   47  N8  UNL     1      48.693  20.851 -24.318  1.00  0.00    -0.322 N 
ATOM     48  H82 UNL     1      49.466  21.485 -24.116  1.00  0.00     0.178 HD
ATOM     49  H81 UNL     1      48.663  19.950 -23.840  1.00  0.00     0.178 HD
ENDBRANCH  40  47
BRANCH  41  50
HETATM   50  O2  UNL     1      46.558  19.227 -24.706  1.00  0.00    -0.343 OA
ATOM     51  H2  UNL     1      45.836  18.637 -24.888  1.00  0.00     0.219 HD
ENDBRANCH  41  50
ENDBRANCH  34  36
ENDBRANCH   8  34
TORSDOF 13
ENDMDL
MODEL 5
REMARK VINA RESULT: -7.226567892      1.955      2.927
REMARK  13 active torsions:
REMARK  status: ('A' for Active; 'I' for Inactive)
REMARK    1  A    between atoms: N1_2  and  C2_3 
REMARK    2  A    between atoms: N1_2  and  C13_35 
REMARK    3  A    between atoms: C2_3  and  C3_4 
REMARK    4  A    between atoms: C3_4  and  C4_5 
REMARK       I    between atoms: C4_5  and  N2_7 
REMARK    5  A    between atoms: N2_7  and  C5_9 
REMARK    6  A    between atoms: C8_16  and  N4_17 
REMARK    7  A    between atoms: N4_17  and  C9_19 
REMARK    8  A    between atoms: C10_22  and  N6_23 
REMARK    9  A    between atoms: N7_26  and  N8_27 
REMARK   10  A    between atoms: C11_30  and  O2_31 
REMARK   11  A    between atoms: C15_39  and  C16_40 
REMARK       I    between atoms: C16_40  and  N11_42 
REMARK   12  A    between atoms: N11_42  and  O4_44 
REMARK   13  A    between atoms: O4_44  and  C17_45 
ROOT
HETATM    1  C5  UNL     1      40.840  19.981 -32.019  1.00  0.00     0.150 C 
HETATM    2  C6  UNL     1      39.403  19.541 -32.203  1.00  0.00     0.111 C 
HETATM    3  S1  UNL     1      39.232  17.881 -31.498  1.00  0.00    -0.088 SA
HETATM    4  C7  UNL     1      38.619  20.544 -31.387  1.00  0.00     0.253 C 
HETATM    5  N3  UNL     1      39.562  21.505 -30.889  1.00  0.00    -0.051 N 
ATOM      6  H31 UNL     1      39.247  22.047 -30.084  1.00  0.00     0.279 HD
ATOM      7  H32 UNL     1      39.717  22.314 -31.491  1.00  0.00     0.279 HD
HETATM    8  C8  UNL     1      40.736  20.673 -30.654  1.00  0.00     0.309 C 
ENDROOT
BRANCH   1   9
HETATM    9  N2  UNL     1      41.125  20.918 -33.059  1.00  0.00    -0.351 N 
HETATM   10  C4  UNL     1      42.223  20.755 -33.997  1.00  0.00     0.219 C 
HETATM   11  O1  UNL     1      42.890  19.712 -33.809  1.00  0.00    -0.274 OA
ATOM     12  H2  UNL     1      40.529  21.741 -33.147  1.00  0.00     0.163 HD
BRANCH  10  13
HETATM   13  C3  UNL     1      42.470  21.740 -35.033  1.00  0.00     0.123 C 
BRANCH  13  14
HETATM   14  C2  UNL     1      43.480  21.479 -36.067  1.00  0.00     0.150 C 
BRANCH  14  15
HETATM   15  N1  UNL     1      44.753  22.130 -35.995  1.00  0.00    -0.222 N 
HETATM   16  C1  UNL     1      45.484  22.619 -37.130  1.00  0.00     0.168 C 
BRANCH  15  17
HETATM   17  C13 UNL     1      45.389  22.350 -34.717  1.00  0.00     0.679 A 
HETATM   18  N10 UNL     1      45.730  21.301 -33.979  1.00  0.00    -0.201 N 
HETATM   19  C14 UNL     1      46.325  21.438 -32.762  1.00  0.00     0.124 A 
ATOM     20  H10 UNL     1      45.542  20.364 -34.334  1.00  0.00     0.183 HD
HETATM   21  C15 UNL     1      46.587  22.698 -32.268  1.00  0.00     0.066 A 
HETATM   22  C21 UNL     1      46.227  23.780 -33.048  1.00  0.00     0.124 A 
HETATM   23  N12 UNL     1      45.640  23.564 -34.247  1.00  0.00    -0.201 N 
ATOM     24  H12 UNL     1      45.380  24.370 -34.815  1.00  0.00     0.183 HD
BRANCH  21  25
HETATM   25  C16 UNL     1      47.214  22.900 -30.946  1.00  0.00     0.277 C 
HETATM   26  O3  UNL     1      47.856  21.918 -30.440  1.00  0.00    -0.265 OA
HETATM   27  N11 UNL     1      47.149  24.091 -30.226  1.00  0.00    -0.230 N 
ATOM     28  H11 UNL     1      46.632  24.869 -30.636  1.00  0.00     0.197 HD
BRANCH  27  29
HETATM   29  O4  UNL     1      47.724  24.280 -29.023  1.00  0.00    -0.267 OA
BRANCH  29  30
HETATM   30  C17 UNL     1      47.629  25.636 -28.662  1.00  0.00     0.078 C 
HETATM   31  C18 UNL     1      48.606  25.951 -27.565  1.00  0.00     0.048 C 
HETATM   32  C19 UNL     1      46.230  26.005 -28.233  1.00  0.00     0.048 C 
HETATM   33  C20 UNL     1      47.966  26.445 -29.899  1.00  0.00     0.048 C 
ENDBRANCH  29  30
ENDBRANCH  27  29
ENDBRANCH  21  25
ENDBRANCH  15  17
ENDBRANCH  14  15
ENDBRANCH  13  14
ENDBRANCH  10  13
ENDBRANCH   1   9
BRANCH   8  34
HETATM   34  N4  UNL     1      41.889  21.394 -30.313  1.00  0.00    -0.345 N 
ATOM     35  H4  UNL     1      42.109  22.219 -30.871  1.00  0.00     0.163 HD
BRANCH  34  36
HETATM   36  C9  UNL     1      42.681  21.101 -29.365  1.00  0.00     0.147 A 
HETATM   37  N5  UNL     1      42.585  20.074 -28.508  1.00  0.00    -0.173 N 
HETATM   38  C10 UNL     1      43.477  19.845 -27.534  1.00  0.00     0.700 A 
ATOM     39  H5  UNL     1      41.795  19.436 -28.602  1.00  0.00     0.186 HD
HETATM   40  N7  UNL     1      44.529  20.653 -27.370  1.00  0.00    -0.068 N 
HETATM   41  C11 UNL     1      44.673  21.699 -28.203  1.00  0.00     0.207 A 
HETATM   42  C12 UNL     1      43.785  21.961 -29.205  1.00  0.00     0.143 A 
HETATM   43  N9  UNL     1      43.945  23.059 -30.074  1.00  0.00    -0.094 NA
BRANCH  38  44
HETATM   44  N6  UNL     1      43.331  18.841 -26.738  1.00  0.00    -0.233 N 
ATOM     45  H62 UNL     1      42.811  18.970 -25.870  1.00  0.00     0.174 HD
ATOM     46  H61 UNL     1      43.729  17.933 -26.976  1.00  0.00     0.174 HD
ENDBRANCH  38  44
BRANCH  40  47
HETATM   47  N8  UNL     1      45.478  20.422 -26.337  1.00  0.00    -0.322 N 
ATOM     48  H82 UNL     1      45.556  19.500 -25.905  1.00  0.00     0.178 HD
ATOM     49  H81 UNL     1      46.096  21.166 -26.014  1.00  0.00     0.178 HD
ENDBRANCH  40  47
BRANCH  41  50
HETATM   50  O2  UNL     1      45.792  22.532 -28.006  1.00  0.00    -0.343 OA
ATOM     51  H2  UNL     1      45.640  23.470 -27.993  1.00  0.00     0.219 HD
ENDBRANCH  41  50
ENDBRANCH  34  36
ENDBRANCH   8  34
TORSDOF 13
ENDMDL
