MODEL 1
REMARK VINA RESULT: -8.787917729      0.000      0.000
REMARK  10 active torsions:
REMARK  status: ('A' for Active; 'I' for Inactive)
REMARK    1  A    between atoms: N1_1  and  C1_4 
REMARK    2  A    between atoms: C5_14  and  N5_15 
REMARK    3  A    between atoms: N5_15  and  S1_17 
REMARK    4  A    between atoms: S1_17  and  C6_20 
REMARK    5  A    between atoms: C9_23  and  O3_24 
REMARK    6  A    between atoms: O3_24  and  S2_25 
REMARK    7  A    between atoms: S2_25  and  C10_28 
REMARK    8  A    between atoms: C10_28  and  C11_29 
REMARK    9  A    between atoms: C14_35  and  O7_36 
REMARK   10  A    between atoms: C16_41  and  C17_42 
ROOT
HETATM    1  C6  UNL     1      45.428  23.207 -30.521  1.00  0.00     0.096 A 
HETATM    2  C7  UNL     1      46.275  22.983 -31.611  1.00  0.00     0.029 A 
HETATM    3  C8  UNL     1      46.008  22.038 -32.571  1.00  0.00     0.040 A 
HETATM    4  C9  UNL     1      44.847  21.276 -32.450  1.00  0.00     0.090 A 
HETATM    5  C15 UNL     1      44.009  21.481 -31.395  1.00  0.00     0.058 A 
HETATM    6  C16 UNL     1      44.294  22.456 -30.412  1.00  0.00     0.066 A 
ENDROOT
BRANCH   1   7
HETATM    7  S1  UNL     1      45.808  24.436 -29.376  1.00  0.00     0.262 S 
HETATM    8  O1  UNL     1      47.194  25.040 -29.570  1.00  0.00    -0.200 OA
HETATM    9  O2  UNL     1      44.892  25.656 -29.623  1.00  0.00    -0.200 OA
BRANCH   7  10
HETATM   10  N5  UNL     1      45.579  23.994 -27.737  1.00  0.00    -0.276 N 
ATOM     11  H5  UNL     1      44.867  24.387 -27.122  1.00  0.00     0.176 HD
BRANCH  10  12
HETATM   12  C5  UNL     1      46.523  23.000 -27.355  1.00  0.00     0.300 C 
HETATM   13  N4  UNL     1      46.039  22.156 -26.267  1.00  0.00    -0.346 N 
HETATM   14  C4  UNL     1      47.215  21.635 -25.640  1.00  0.00     0.119 A 
ATOM     15  H4  UNL     1      45.068  21.975 -26.008  1.00  0.00     0.163 HD
HETATM   16  C1  UNL     1      47.458  20.523 -24.864  1.00  0.00     0.130 A 
HETATM   17  C3  UNL     1      48.267  22.503 -25.940  1.00  0.00     0.135 A 
HETATM   18  N2  UNL     1      48.693  20.235 -24.372  1.00  0.00    -0.337 N 
HETATM   19  C2  UNL     1      49.678  21.095 -24.682  1.00  0.00     0.183 A 
ATOM     20  H2  UNL     1      48.863  19.409 -23.797  1.00  0.00     0.168 HD
HETATM   21  N3  UNL     1      49.476  22.193 -25.440  1.00  0.00    -0.337 N 
ATOM     22  H3  UNL     1      50.265  22.808 -25.641  1.00  0.00     0.168 HD
HETATM   23  N8  UNL     1      47.722  23.543 -26.745  1.00  0.00    -0.336 N 
ATOM     24  H8  UNL     1      48.099  24.482 -26.868  1.00  0.00     0.165 HD
BRANCH  16  25
HETATM   25  N1  UNL     1      46.492  19.723 -24.587  1.00  0.00    -0.383 N 
ATOM     26  H12 UNL     1      46.490  19.229 -23.694  1.00  0.00     0.157 HD
ATOM     27  H11 UNL     1      45.750  19.606 -25.276  1.00  0.00     0.157 HD
ENDBRANCH  16  25
ENDBRANCH  10  12
ENDBRANCH   7  10
ENDBRANCH   1   7
BRANCH   6  28
HETATM   28  C17 UNL     1      43.327  22.529 -29.334  1.00  0.00     0.211 C 
HETATM   29  O8  UNL     1      42.313  23.312 -29.419  1.00  0.00    -0.644 OA
HETATM   30  O9  UNL     1      43.414  21.790 -28.186  1.00  0.00    -0.644 OA
ENDBRANCH   6  28
BRANCH   4  31
HETATM   31  O3  UNL     1      44.558  20.308 -33.422  1.00  0.00    -0.233 OA
BRANCH  31  32
HETATM   32  S2  UNL     1      44.012  20.761 -34.952  1.00  0.00     0.277 S 
HETATM   33  O4  UNL     1      44.174  22.244 -35.177  1.00  0.00    -0.198 OA
HETATM   34  O5  UNL     1      44.808  19.977 -35.966  1.00  0.00    -0.198 OA
BRANCH  32  35
HETATM   35  C10 UNL     1      42.316  20.275 -35.101  1.00  0.00     0.247 C 
BRANCH  35  36
HETATM   36  C11 UNL     1      41.604  20.699 -33.882  1.00  0.00     0.102 A 
HETATM   37  N6  UNL     1      41.269  19.805 -32.940  1.00  0.00    -0.312 N 
HETATM   38  C12 UNL     1      40.613  20.171 -31.809  1.00  0.00     0.250 A 
ATOM     39  H6  UNL     1      41.513  18.824 -33.077  1.00  0.00     0.170 HD
HETATM   40  O6  UNL     1      40.312  19.326 -30.947  1.00  0.00    -0.268 OA
HETATM   41  C13 UNL     1      40.284  21.495 -31.622  1.00  0.00     0.130 A 
HETATM   42  C14 UNL     1      40.640  22.399 -32.607  1.00  0.00     0.146 A 
HETATM   43  N7  UNL     1      41.293  21.997 -33.722  1.00  0.00    -0.326 N 
ATOM     44  H7  UNL     1      41.549  22.677 -34.439  1.00  0.00     0.169 HD
BRANCH  42  45
HETATM   45  O7  UNL     1      40.301  23.721 -32.401  1.00  0.00    -0.346 OA
ATOM     46  H7  UNL     1      39.405  23.904 -32.144  1.00  0.00     0.219 HD
ENDBRANCH  42  45
ENDBRANCH  35  36
ENDBRANCH  32  35
ENDBRANCH  31  32
ENDBRANCH   4  31
TORSDOF 10
ENDMDL
MODEL 2
REMARK VINA RESULT: -8.768687768      3.294      9.058
REMARK  10 active torsions:
REMARK  status: ('A' for Active; 'I' for Inactive)
REMARK    1  A    between atoms: N1_1  and  C1_4 
REMARK    2  A    between atoms: C5_14  and  N5_15 
REMARK    3  A    between atoms: N5_15  and  S1_17 
REMARK    4  A    between atoms: S1_17  and  C6_20 
REMARK    5  A    between atoms: C9_23  and  O3_24 
REMARK    6  A    between atoms: O3_24  and  S2_25 
REMARK    7  A    between atoms: S2_25  and  C10_28 
REMARK    8  A    between atoms: C10_28  and  C11_29 
REMARK    9  A    between atoms: C14_35  and  O7_36 
REMARK   10  A    between atoms: C16_41  and  C17_42 
ROOT
HETATM    1  C6  UNL     1      45.547  23.968 -28.207  1.00  0.00     0.096 A 
HETATM    2  C7  UNL     1      46.200  25.204 -28.284  1.00  0.00     0.029 A 
HETATM    3  C8  UNL     1      47.423  25.428 -27.702  1.00  0.00     0.040 A 
HETATM    4  C9  UNL     1      48.033  24.384 -27.009  1.00  0.00     0.090 A 
HETATM    5  C15 UNL     1      47.412  23.174 -26.925  1.00  0.00     0.058 A 
HETATM    6  C16 UNL     1      46.152  22.953 -27.528  1.00  0.00     0.066 A 
ENDROOT
BRANCH   1   7
HETATM    7  S1  UNL     1      44.031  23.748 -28.995  1.00  0.00     0.262 S 
HETATM    8  O1  UNL     1      42.897  23.387 -28.042  1.00  0.00    -0.200 OA
HETATM    9  O2  UNL     1      43.553  25.105 -29.559  1.00  0.00    -0.200 OA
BRANCH   7  10
HETATM   10  N5  UNL     1      44.056  22.664 -30.321  1.00  0.00    -0.276 N 
ATOM     11  H5  UNL     1      44.902  22.323 -30.778  1.00  0.00     0.176 HD
BRANCH  10  12
HETATM   12  C5  UNL     1      42.731  22.309 -30.697  1.00  0.00     0.300 C 
HETATM   13  N4  UNL     1      42.153  21.294 -29.820  1.00  0.00    -0.346 N 
HETATM   14  C4  UNL     1      41.136  20.656 -30.599  1.00  0.00     0.119 A 
ATOM     15  H4  UNL     1      42.418  21.084 -28.858  1.00  0.00     0.163 HD
HETATM   16  C1  UNL     1      40.006  19.940 -30.272  1.00  0.00     0.130 A 
HETATM   17  C3  UNL     1      41.450  20.862 -31.944  1.00  0.00     0.135 A 
HETATM   18  N2  UNL     1      39.174  19.421 -31.216  1.00  0.00    -0.337 N 
HETATM   19  C2  UNL     1      39.512  19.640 -32.498  1.00  0.00     0.183 A 
ATOM     20  H2  UNL     1      38.339  18.892 -30.963  1.00  0.00     0.168 HD
HETATM   21  N3  UNL     1      40.612  20.336 -32.855  1.00  0.00    -0.337 N 
ATOM     22  H3  UNL     1      40.814  20.469 -33.845  1.00  0.00     0.168 HD
HETATM   23  N8  UNL     1      42.654  21.621 -31.972  1.00  0.00    -0.336 N 
ATOM     24  H8  UNL     1      43.327  21.672 -32.735  1.00  0.00     0.165 HD
BRANCH  16  25
HETATM   25  N1  UNL     1      39.714  19.750 -29.036  1.00  0.00    -0.383 N 
ATOM     26  H12 UNL     1      39.366  18.839 -28.736  1.00  0.00     0.157 HD
ATOM     27  H11 UNL     1      39.842  20.525 -28.386  1.00  0.00     0.157 HD
ENDBRANCH  16  25
ENDBRANCH  10  12
ENDBRANCH   7  10
ENDBRANCH   1   7
BRANCH   6  28
HETATM   28  C17 UNL     1      45.606  21.626 -27.318  1.00  0.00     0.211 C 
HETATM   29  O8  UNL     1      45.776  21.020 -26.199  1.00  0.00    -0.644 OA
HETATM   30  O9  UNL     1      44.888  20.943 -28.262  1.00  0.00    -0.644 OA
ENDBRANCH   6  28
BRANCH   4  31
HETATM   31  O3  UNL     1      49.282  24.596 -26.410  1.00  0.00    -0.233 OA
BRANCH  31  32
HETATM   32  S2  UNL     1      50.705  24.182 -27.216  1.00  0.00     0.277 S 
HETATM   33  O4  UNL     1      50.418  23.645 -28.597  1.00  0.00    -0.198 OA
HETATM   34  O5  UNL     1      51.559  25.423 -27.292  1.00  0.00    -0.198 OA
BRANCH  32  35
HETATM   35  C10 UNL     1      51.569  22.987 -26.235  1.00  0.00     0.247 C 
BRANCH  35  36
HETATM   36  C11 UNL     1      50.654  22.497 -25.188  1.00  0.00     0.102 A 
HETATM   37  N6  UNL     1      50.577  23.119 -24.002  1.00  0.00    -0.312 N 
HETATM   38  C12 UNL     1      49.743  22.687 -23.023  1.00  0.00     0.250 A 
ATOM     39  H6  UNL     1      51.162  23.937 -23.831  1.00  0.00     0.170 HD
HETATM   40  O6  UNL     1      49.686  23.277 -21.929  1.00  0.00    -0.268 OA
HETATM   41  C13 UNL     1      48.952  21.583 -23.253  1.00  0.00     0.130 A 
HETATM   42  C14 UNL     1      49.047  20.959 -24.483  1.00  0.00     0.146 A 
HETATM   43  N7  UNL     1      49.892  21.418 -25.436  1.00  0.00    -0.326 N 
ATOM     44  H7  UNL     1      49.951  20.947 -26.339  1.00  0.00     0.169 HD
BRANCH  42  45
HETATM   45  O7  UNL     1      48.247  19.855 -24.694  1.00  0.00    -0.346 OA
ATOM     46  H7  UNL     1      47.421  19.996 -25.140  1.00  0.00     0.219 HD
ENDBRANCH  42  45
ENDBRANCH  35  36
ENDBRANCH  32  35
ENDBRANCH  31  32
ENDBRANCH   4  31
TORSDOF 10
ENDMDL
MODEL 3
REMARK VINA RESULT: -8.737185309      1.080      1.915
REMARK  10 active torsions:
REMARK  status: ('A' for Active; 'I' for Inactive)
REMARK    1  A    between atoms: N1_1  and  C1_4 
REMARK    2  A    between atoms: C5_14  and  N5_15 
REMARK    3  A    between atoms: N5_15  and  S1_17 
REMARK    4  A    between atoms: S1_17  and  C6_20 
REMARK    5  A    between atoms: C9_23  and  O3_24 
REMARK    6  A    between atoms: O3_24  and  S2_25 
REMARK    7  A    between atoms: S2_25  and  C10_28 
REMARK    8  A    between atoms: C10_28  and  C11_29 
REMARK    9  A    between atoms: C14_35  and  O7_36 
REMARK   10  A    between atoms: C16_41  and  C17_42 
ROOT
HETATM    1  C6  UNL     1      44.127  21.866 -30.129  1.00  0.00     0.096 A 
HETATM    2  C7  UNL     1      44.374  20.548 -30.527  1.00  0.00     0.029 A 
HETATM    3  C8  UNL     1      44.724  20.220 -31.815  1.00  0.00     0.040 A 
HETATM    4  C9  UNL     1      44.836  21.242 -32.755  1.00  0.00     0.090 A 
HETATM    5  C15 UNL     1      44.600  22.532 -32.385  1.00  0.00     0.058 A 
HETATM    6  C16 UNL     1      44.240  22.859 -31.057  1.00  0.00     0.066 A 
ENDROOT
BRANCH   1   7
HETATM    7  S1  UNL     1      43.730  22.207 -28.488  1.00  0.00     0.262 S 
HETATM    8  O1  UNL     1      42.289  22.667 -28.294  1.00  0.00    -0.200 OA
HETATM    9  O2  UNL     1      43.756  20.891 -27.679  1.00  0.00    -0.200 OA
BRANCH   7  10
HETATM   10  N5  UNL     1      44.804  23.277 -27.691  1.00  0.00    -0.276 N 
ATOM     11  H5  UNL     1      44.604  24.254 -27.482  1.00  0.00     0.176 HD
BRANCH  10  12
HETATM   12  C5  UNL     1      46.016  22.608 -27.362  1.00  0.00     0.300 C 
HETATM   13  N4  UNL     1      45.907  21.819 -26.138  1.00  0.00    -0.346 N 
HETATM   14  C4  UNL     1      47.246  21.694 -25.648  1.00  0.00     0.119 A 
ATOM     15  H4  UNL     1      45.057  21.438 -25.722  1.00  0.00     0.163 HD
HETATM   16  C1  UNL     1      47.865  20.789 -24.815  1.00  0.00     0.130 A 
HETATM   17  C3  UNL     1      47.986  22.750 -26.183  1.00  0.00     0.135 A 
HETATM   18  N2  UNL     1      49.183  20.885 -24.488  1.00  0.00    -0.337 N 
HETATM   19  C2  UNL     1      49.860  21.915 -25.022  1.00  0.00     0.183 A 
ATOM     20  H2  UNL     1      49.633  20.210 -23.870  1.00  0.00     0.168 HD
HETATM   21  N3  UNL     1      49.285  22.820 -25.843  1.00  0.00    -0.337 N 
ATOM     22  H3  UNL     1      49.853  23.580 -26.216  1.00  0.00     0.168 HD
HETATM   23  N8  UNL     1      47.093  23.508 -26.992  1.00  0.00    -0.336 N 
ATOM     24  H8  UNL     1      47.190  24.487 -27.259  1.00  0.00     0.165 HD
BRANCH  16  25
HETATM   25  N1  UNL     1      47.187  19.817 -24.322  1.00  0.00    -0.383 N 
ATOM     26  H12 UNL     1      47.606  19.226 -23.603  1.00  0.00     0.157 HD
ATOM     27  H11 UNL     1      46.240  19.665 -24.669  1.00  0.00     0.157 HD
ENDBRANCH  16  25
ENDBRANCH  10  12
ENDBRANCH   7  10
ENDBRANCH   1   7
BRANCH   6  28
HETATM   28  C17 UNL     1      43.987  24.269 -30.829  1.00  0.00     0.211 C 
HETATM   29  O8  UNL     1      42.864  24.793 -31.166  1.00  0.00    -0.644 OA
HETATM   30  O9  UNL     1      44.891  25.118 -30.252  1.00  0.00    -0.644 OA
ENDBRANCH   6  28
BRANCH   4  31
HETATM   31  O3  UNL     1      45.193  20.925 -34.072  1.00  0.00    -0.233 OA
BRANCH  31  32
HETATM   32  S2  UNL     1      44.230  21.416 -35.367  1.00  0.00     0.277 S 
HETATM   33  O4  UNL     1      43.906  22.887 -35.285  1.00  0.00    -0.198 OA
HETATM   34  O5  UNL     1      44.985  21.105 -36.636  1.00  0.00    -0.198 OA
BRANCH  32  35
HETATM   35  C10 UNL     1      42.754  20.438 -35.361  1.00  0.00     0.247 C 
BRANCH  35  36
HETATM   36  C11 UNL     1      41.984  20.769 -34.148  1.00  0.00     0.102 A 
HETATM   37  N6  UNL     1      41.672  19.817 -33.255  1.00  0.00    -0.312 N 
HETATM   38  C12 UNL     1      40.964  20.097 -32.131  1.00  0.00     0.250 A 
ATOM     39  H6  UNL     1      41.975  18.859 -33.426  1.00  0.00     0.170 HD
HETATM   40  O6  UNL     1      40.686  19.200 -31.316  1.00  0.00    -0.268 OA
HETATM   41  C13 UNL     1      40.557  21.392 -31.900  1.00  0.00     0.130 A 
HETATM   42  C14 UNL     1      40.889  22.356 -32.834  1.00  0.00     0.146 A 
HETATM   43  N7  UNL     1      41.596  22.039 -33.944  1.00  0.00    -0.326 N 
ATOM     44  H7  UNL     1      41.834  22.763 -34.623  1.00  0.00     0.169 HD
BRANCH  42  45
HETATM   45  O7  UNL     1      40.471  23.647 -32.584  1.00  0.00    -0.346 OA
ATOM     46  H7  UNL     1      40.214  24.172 -33.332  1.00  0.00     0.219 HD
ENDBRANCH  42  45
ENDBRANCH  35  36
ENDBRANCH  32  35
ENDBRANCH  31  32
ENDBRANCH   4  31
TORSDOF 10
ENDMDL
MODEL 4
REMARK VINA RESULT: -8.729821373      1.906      3.169
REMARK  10 active torsions:
REMARK  status: ('A' for Active; 'I' for Inactive)
REMARK    1  A    between atoms: N1_1  and  C1_4 
REMARK    2  A    between atoms: C5_14  and  N5_15 
REMARK    3  A    between atoms: N5_15  and  S1_17 
REMARK    4  A    between atoms: S1_17  and  C6_20 
REMARK    5  A    between atoms: C9_23  and  O3_24 
REMARK    6  A    between atoms: O3_24  and  S2_25 
REMARK    7  A    between atoms: S2_25  and  C10_28 
REMARK    8  A    between atoms: C10_28  and  C11_29 
REMARK    9  A    between atoms: C14_35  and  O7_36 
REMARK   10  A    between atoms: C16_41  and  C17_42 
ROOT
HETATM    1  C6  UNL     1      44.490  24.313 -30.076  1.00  0.00     0.096 A 
HETATM    2  C7  UNL     1      43.188  24.563 -30.524  1.00  0.00     0.029 A 
HETATM    3  C8  UNL     1      42.716  24.082 -31.721  1.00  0.00     0.040 A 
HETATM    4  C9  UNL     1      43.568  23.318 -32.515  1.00  0.00     0.090 A 
HETATM    5  C15 UNL     1      44.840  23.064 -32.094  1.00  0.00     0.058 A 
HETATM    6  C16 UNL     1      45.317  23.564 -30.860  1.00  0.00     0.066 A 
ENDROOT
BRANCH   1   7
HETATM    7  S1  UNL     1      45.002  24.916 -28.546  1.00  0.00     0.262 S 
HETATM    8  O1  UNL     1      45.257  26.419 -28.539  1.00  0.00    -0.200 OA
HETATM    9  O2  UNL     1      43.837  24.787 -27.538  1.00  0.00    -0.200 OA
BRANCH   7  10
HETATM   10  N5  UNL     1      46.328  24.087 -27.849  1.00  0.00    -0.276 N 
ATOM     11  H5  UNL     1      47.308  24.276 -28.059  1.00  0.00     0.176 HD
BRANCH  10  12
HETATM   12  C5  UNL     1      45.870  23.097 -26.936  1.00  0.00     0.300 C 
HETATM   13  N4  UNL     1      46.966  22.398 -26.270  1.00  0.00    -0.346 N 
HETATM   14  C4  UNL     1      46.420  21.139 -25.864  1.00  0.00     0.119 A 
ATOM     15  H4  UNL     1      47.917  22.736 -26.125  1.00  0.00     0.163 HD
HETATM   16  C1  UNL     1      46.769  20.228 -24.892  1.00  0.00     0.130 A 
HETATM   17  C3  UNL     1      45.319  20.878 -26.683  1.00  0.00     0.135 A 
HETATM   18  N2  UNL     1      46.077  19.073 -24.694  1.00  0.00    -0.337 N 
HETATM   19  C2  UNL     1      45.025  18.858 -25.503  1.00  0.00     0.183 A 
ATOM     20  H2  UNL     1      46.344  18.405 -23.971  1.00  0.00     0.168 HD
HETATM   21  N3  UNL     1      44.656  19.729 -26.466  1.00  0.00    -0.337 N 
ATOM     22  H3  UNL     1      43.847  19.510 -27.048  1.00  0.00     0.168 HD
HETATM   23  N8  UNL     1      45.205  21.979 -27.578  1.00  0.00    -0.336 N 
ATOM     24  H8  UNL     1      44.747  21.981 -28.489  1.00  0.00     0.165 HD
BRANCH  16  25
HETATM   25  N1  UNL     1      47.781  20.466 -24.137  1.00  0.00    -0.383 N 
ATOM     26  H12 UNL     1      47.848  20.008 -23.228  1.00  0.00     0.157 HD
ATOM     27  H11 UNL     1      48.493  21.112 -24.476  1.00  0.00     0.157 HD
ENDBRANCH  16  25
ENDBRANCH  10  12
ENDBRANCH   7  10
ENDBRANCH   1   7
BRANCH   6  28
HETATM   28  C17 UNL     1      46.700  23.240 -30.571  1.00  0.00     0.211 C 
HETATM   29  O8  UNL     1      47.017  22.078 -30.124  1.00  0.00    -0.644 OA
HETATM   30  O9  UNL     1      47.737  24.113 -30.750  1.00  0.00    -0.644 OA
ENDBRANCH   6  28
BRANCH   4  31
HETATM   31  O3  UNL     1      43.102  22.819 -33.739  1.00  0.00    -0.233 OA
BRANCH  31  32
HETATM   32  S2  UNL     1      41.992  21.549 -33.783  1.00  0.00     0.277 S 
HETATM   33  O4  UNL     1      40.625  21.997 -33.328  1.00  0.00    -0.198 OA
HETATM   34  O5  UNL     1      41.943  21.041 -35.203  1.00  0.00    -0.198 OA
BRANCH  32  35
HETATM   35  C10 UNL     1      42.606  20.241 -32.760  1.00  0.00     0.247 C 
BRANCH  35  36
HETATM   36  C11 UNL     1      41.868  20.265 -31.484  1.00  0.00     0.102 A 
HETATM   37  N6  UNL     1      42.447  20.736 -30.369  1.00  0.00    -0.312 N 
HETATM   38  C12 UNL     1      41.789  20.769 -29.182  1.00  0.00     0.250 A 
ATOM     39  H6  UNL     1      43.407  21.077 -30.414  1.00  0.00     0.170 HD
HETATM   40  O6  UNL     1      42.343  21.209 -28.160  1.00  0.00    -0.268 OA
HETATM   41  C13 UNL     1      40.492  20.309 -29.121  1.00  0.00     0.130 A 
HETATM   42  C14 UNL     1      39.916  19.828 -30.283  1.00  0.00     0.146 A 
HETATM   43  N7  UNL     1      40.604  19.811 -31.449  1.00  0.00    -0.326 N 
ATOM     44  H7  UNL     1      40.165  19.454 -32.298  1.00  0.00     0.169 HD
BRANCH  42  45
HETATM   45  O7  UNL     1      38.617  19.372 -30.201  1.00  0.00    -0.346 OA
ATOM     46  H7  UNL     1      38.391  18.609 -30.720  1.00  0.00     0.219 HD
ENDBRANCH  42  45
ENDBRANCH  35  36
ENDBRANCH  32  35
ENDBRANCH  31  32
ENDBRANCH   4  31
TORSDOF 10
ENDMDL
MODEL 5
REMARK VINA RESULT: -8.702877704      2.176      3.974
REMARK  10 active torsions:
REMARK  status: ('A' for Active; 'I' for Inactive)
REMARK    1  A    between atoms: N1_1  and  C1_4 
REMARK    2  A    between atoms: C5_14  and  N5_15 
REMARK    3  A    between atoms: N5_15  and  S1_17 
REMARK    4  A    between atoms: S1_17  and  C6_20 
REMARK    5  A    between atoms: C9_23  and  O3_24 
REMARK    6  A    between atoms: O3_24  and  S2_25 
REMARK    7  A    between atoms: S2_25  and  C10_28 
REMARK    8  A    between atoms: C10_28  and  C11_29 
REMARK    9  A    between atoms: C14_35  and  O7_36 
REMARK   10  A    between atoms: C16_41  and  C17_42 
ROOT
HETATM    1  C6  UNL     1      43.474  21.822 -28.578  1.00  0.00     0.096 A 
HETATM    2  C7  UNL     1      42.745  20.706 -28.154  1.00  0.00     0.029 A 
HETATM    3  C8  UNL     1      41.463  20.456 -28.581  1.00  0.00     0.040 A 
HETATM    4  C9  UNL     1      40.872  21.351 -29.469  1.00  0.00     0.090 A 
HETATM    5  C15 UNL     1      41.567  22.444 -29.894  1.00  0.00     0.058 A 
HETATM    6  C16 UNL     1      42.886  22.692 -29.449  1.00  0.00     0.066 A 
ENDROOT
BRANCH   1   7
HETATM    7  S1  UNL     1      45.091  22.050 -28.031  1.00  0.00     0.262 S 
HETATM    8  O1  UNL     1      46.123  22.019 -29.153  1.00  0.00    -0.200 OA
HETATM    9  O2  UNL     1      45.244  23.492 -27.497  1.00  0.00    -0.200 OA
BRANCH   7  10
HETATM   10  N5  UNL     1      45.575  21.017 -26.753  1.00  0.00    -0.276 N 
ATOM     11  H5  UNL     1      45.310  20.036 -26.667  1.00  0.00     0.176 HD
BRANCH  10  12
HETATM   12  C5  UNL     1      46.397  21.720 -25.830  1.00  0.00     0.300 C 
HETATM   13  N4  UNL     1      47.570  22.315 -26.464  1.00  0.00    -0.346 N 
HETATM   14  C4  UNL     1      48.531  22.469 -25.414  1.00  0.00     0.119 A 
ATOM     15  H4  UNL     1      47.682  22.567 -27.446  1.00  0.00     0.163 HD
HETATM   16  C1  UNL     1      49.625  23.288 -25.248  1.00  0.00     0.130 A 
HETATM   17  C3  UNL     1      48.198  21.559 -24.408  1.00  0.00     0.135 A 
HETATM   18  N2  UNL     1      50.403  23.247 -24.132  1.00  0.00    -0.337 N 
HETATM   19  C2  UNL     1      50.050  22.358 -23.188  1.00  0.00     0.183 A 
ATOM     20  H2  UNL     1      51.211  23.858 -24.019  1.00  0.00     0.168 HD
HETATM   21  N3  UNL     1      48.984  21.540 -23.318  1.00  0.00    -0.337 N 
ATOM     22  H3  UNL     1      48.768  20.886 -22.566  1.00  0.00     0.168 HD
HETATM   23  N8  UNL     1      47.040  20.861 -24.854  1.00  0.00    -0.336 N 
ATOM     24  H8  UNL     1      46.726  19.940 -24.549  1.00  0.00     0.165 HD
BRANCH  16  25
HETATM   25  N1  UNL     1      49.933  24.126 -26.172  1.00  0.00    -0.383 N 
ATOM     26  H12 UNL     1      50.157  25.090 -25.922  1.00  0.00     0.157 HD
ATOM     27  H11 UNL     1      49.943  23.797 -27.137  1.00  0.00     0.157 HD
ENDBRANCH  16  25
ENDBRANCH  10  12
ENDBRANCH   7  10
ENDBRANCH   1   7
BRANCH   6  28
HETATM   28  C17 UNL     1      43.478  23.912 -29.961  1.00  0.00     0.211 C 
HETATM   29  O8  UNL     1      43.225  25.042 -29.407  1.00  0.00    -0.644 OA
HETATM   30  O9  UNL     1      44.327  23.951 -31.033  1.00  0.00    -0.644 OA
ENDBRANCH   6  28
BRANCH   4  31
HETATM   31  O3  UNL     1      39.565  21.111 -29.916  1.00  0.00    -0.233 OA
BRANCH  31  32
HETATM   32  S2  UNL     1      39.220  21.036 -31.565  1.00  0.00     0.277 S 
HETATM   33  O4  UNL     1      37.734  21.097 -31.819  1.00  0.00    -0.198 OA
HETATM   34  O5  UNL     1      39.924  22.195 -32.228  1.00  0.00    -0.198 OA
BRANCH  32  35
HETATM   35  C10 UNL     1      39.915  19.540 -32.209  1.00  0.00     0.247 C 
BRANCH  35  36
HETATM   36  C11 UNL     1      41.241  19.851 -32.775  1.00  0.00     0.102 A 
HETATM   37  N6  UNL     1      41.366  20.228 -34.056  1.00  0.00    -0.312 N 
HETATM   38  C12 UNL     1      42.575  20.520 -34.600  1.00  0.00     0.250 A 
ATOM     39  H6  UNL     1      40.531  20.298 -34.637  1.00  0.00     0.170 HD
HETATM   40  O6  UNL     1      42.670  20.868 -35.790  1.00  0.00    -0.268 OA
HETATM   41  C13 UNL     1      43.703  20.427 -33.815  1.00  0.00     0.130 A 
HETATM   42  C14 UNL     1      43.550  20.037 -32.497  1.00  0.00     0.146 A 
HETATM   43  N7  UNL     1      42.327  19.753 -31.990  1.00  0.00    -0.326 N 
ATOM     44  H7  UNL     1      42.231  19.467 -31.015  1.00  0.00     0.169 HD
BRANCH  42  45
HETATM   45  O7  UNL     1      44.692  19.949 -31.728  1.00  0.00    -0.346 OA
ATOM     46  H7  UNL     1      44.585  19.992 -30.786  1.00  0.00     0.219 HD
ENDBRANCH  42  45
ENDBRANCH  35  36
ENDBRANCH  32  35
ENDBRANCH  31  32
ENDBRANCH   4  31
TORSDOF 10
ENDMDL
