MODEL 1
REMARK VINA RESULT: -8.420502221      0.000      0.000
REMARK  16 active torsions:
REMARK  status: ('A' for Active; 'I' for Inactive)
REMARK    1  A    between atoms: O1_2  and  C2_3 
REMARK    2  A    between atoms: C2_3  and  C3_5 
REMARK    3  A    between atoms: C9_13  and  C10_14 
REMARK    4  A    between atoms: C10_14  and  C11_15 
REMARK    5  A    between atoms: C10_14  and  C12_19 
REMARK    6  A    between atoms: C11_15  and  N2_16 
REMARK    7  A    between atoms: C12_19  and  O3_20 
REMARK    8  A    between atoms: C12_19  and  N3_22 
REMARK    9  A    between atoms: N3_22  and  N4_23 
REMARK   10  A    between atoms: N4_23  and  C13_25 
REMARK   11  A    between atoms: C13_25  and  O4_26 
REMARK   12  A    between atoms: C13_25  and  N5_28 
REMARK   13  A    between atoms: N5_28  and  N6_29 
REMARK       I    between atoms: N6_29  and  C14_31 
REMARK   14  A    between atoms: C14_31  and  C15_33 
REMARK   15  A    between atoms: C15_33  and  N7_34 
REMARK   16  A    between atoms: C20_47  and  O7_48 
ROOT
HETATM    1  C3  UNL     1      49.497  24.058 -26.391  1.00  0.00     0.091 C 
HETATM    2  C4  UNL     1      48.671  24.696 -27.289  1.00  0.00     0.037 C 
HETATM    3  C5  UNL     1      47.316  24.599 -27.433  1.00  0.00     0.010 C 
HETATM    4  C6  UNL     1      46.962  25.796 -28.014  1.00  0.00     0.102 C 
HETATM    5  N1  UNL     1      45.754  26.080 -28.553  1.00  0.00    -0.363 N 
ATOM      6  H1  UNL     1      45.453  27.054 -28.530  1.00  0.00     0.165 HD
HETATM    7  C7  UNL     1      44.885  25.163 -29.135  1.00  0.00     0.059 A 
HETATM    8  C8  UNL     1      44.201  25.250 -30.290  1.00  0.00     0.039 A 
HETATM    9  C9  UNL     1      43.471  24.029 -30.472  1.00  0.00    -0.041 A 
HETATM   10  C16 UNL     1      43.753  23.259 -29.412  1.00  0.00     0.039 A 
HETATM   11  C17 UNL     1      44.621  23.884 -28.535  1.00  0.00     0.060 A 
HETATM   12  N8  UNL     1      45.150  23.387 -27.372  1.00  0.00    -0.351 N 
ATOM     13  H8  UNL     1      44.543  22.893 -26.717  1.00  0.00     0.166 HD
HETATM   14  C18 UNL     1      46.516  23.546 -27.065  1.00  0.00     0.082 C 
HETATM   15  C19 UNL     1      46.811  22.452 -26.314  1.00  0.00     0.145 A 
HETATM   16  O6  UNL     1      46.007  21.504 -26.003  1.00  0.00    -0.232 OA
HETATM   17  N9  UNL     1      46.602  20.603 -25.273  1.00  0.00    -0.238 N 
ATOM     18  H9  UNL     1      46.159  19.758 -24.911  1.00  0.00     0.197 HD
HETATM   19  C20 UNL     1      47.872  20.947 -25.069  1.00  0.00     0.177 A 
HETATM   20  C21 UNL     1      48.056  22.169 -25.742  1.00  0.00     0.106 A 
HETATM   21  C22 UNL     1      49.256  22.844 -25.773  1.00  0.00     0.205 C 
HETATM   22  O8  UNL     1      50.177  22.271 -25.189  1.00  0.00    -0.286 OA
ENDROOT
BRANCH   9  23
HETATM   23  C10 UNL     1      42.727  23.868 -31.764  1.00  0.00     0.103 C 
BRANCH  23  24
HETATM   24  C11 UNL     1      43.767  22.764 -32.396  1.00  0.00     0.066 C 
BRANCH  24  25
HETATM   25  N2  UNL     1      43.532  22.435 -33.708  1.00  0.00    -0.410 N 
ATOM     26  H22 UNL     1      44.068  22.853 -34.469  1.00  0.00     0.155 HD
ATOM     27  H21 UNL     1      42.789  21.751 -33.852  1.00  0.00     0.155 HD
ENDBRANCH  24  25
ENDBRANCH  23  24
BRANCH  23  28
HETATM   28  C12 UNL     1      41.440  23.179 -31.763  1.00  0.00     0.244 C 
BRANCH  28  29
HETATM   29  O3  UNL     1      40.333  23.831 -32.097  1.00  0.00    -0.377 OA
ATOM     30  H3  UNL     1      40.164  24.698 -31.747  1.00  0.00     0.211 HD
ENDBRANCH  28  29
BRANCH  28  31
HETATM   31  N3  UNL     1      41.400  21.783 -31.487  1.00  0.00    -0.104 NA
BRANCH  31  32
HETATM   32  N4  UNL     1      40.008  21.496 -31.118  1.00  0.00    -0.253 N 
ATOM     33  H4  UNL     1      39.223  21.926 -31.607  1.00  0.00     0.187 HD
BRANCH  32  34
HETATM   34  C13 UNL     1      39.815  20.599 -30.058  1.00  0.00     0.330 C 
BRANCH  34  35
HETATM   35  O4  UNL     1      38.697  19.886 -30.221  1.00  0.00    -0.319 OA
ATOM     36  H4  UNL     1      38.035  20.383 -30.688  1.00  0.00     0.222 HD
ENDBRANCH  34  35
BRANCH  34  37
HETATM   37  N5  UNL     1      40.617  20.413 -28.980  1.00  0.00    -0.276 NA
BRANCH  37  38
HETATM   38  N6  UNL     1      41.396  20.224 -27.916  1.00  0.00    -0.197 N 
HETATM   39  C14 UNL     1      42.766  19.866 -28.106  1.00  0.00     0.271 C 
HETATM   40  O5  UNL     1      43.166  19.865 -29.330  1.00  0.00    -0.269 OA
ATOM     41  H6  UNL     1      41.018  20.334 -26.975  1.00  0.00     0.205 HD
BRANCH  39  42
HETATM   42  C15 UNL     1      43.747  19.488 -27.089  1.00  0.00     0.334 C 
BRANCH  42  43
HETATM   43  N7  UNL     1      43.679  18.144 -26.620  1.00  0.00    -0.071 N 
ATOM     44  H73 UNL     1      43.656  18.134 -25.601  1.00  0.00     0.274 HD
ATOM     45  H72 UNL     1      42.761  17.751 -26.829  1.00  0.00     0.274 HD
ATOM     46  H71 UNL     1      44.408  17.514 -26.955  1.00  0.00     0.274 HD
ENDBRANCH  42  43
ENDBRANCH  39  42
ENDBRANCH  37  38
ENDBRANCH  34  37
ENDBRANCH  32  34
ENDBRANCH  31  32
ENDBRANCH  28  31
ENDBRANCH  23  28
ENDBRANCH   9  23
BRANCH   1  47
HETATM   47  C2  UNL     1      50.699  24.747 -25.988  1.00  0.00     0.297 C 
HETATM   48  O2  UNL     1      51.785  24.804 -26.535  1.00  0.00    -0.259 OA
BRANCH  47  49
HETATM   49  O1  UNL     1      50.572  25.466 -24.756  1.00  0.00    -0.322 OA
HETATM   50  C1  UNL     1      50.942  26.871 -24.765  1.00  0.00     0.213 C 
ENDBRANCH  47  49
ENDBRANCH   1  47
BRANCH  19  51
HETATM   51  O7  UNL     1      48.835  20.251 -24.343  1.00  0.00    -0.344 OA
ATOM     52  H7  UNL     1      49.651  20.587 -23.991  1.00  0.00     0.219 HD
ENDBRANCH  19  51
TORSDOF 16
ENDMDL
MODEL 2
REMARK VINA RESULT: -8.142506438      2.129      4.150
REMARK  16 active torsions:
REMARK  status: ('A' for Active; 'I' for Inactive)
REMARK    1  A    between atoms: O1_2  and  C2_3 
REMARK    2  A    between atoms: C2_3  and  C3_5 
REMARK    3  A    between atoms: C9_13  and  C10_14 
REMARK    4  A    between atoms: C10_14  and  C11_15 
REMARK    5  A    between atoms: C10_14  and  C12_19 
REMARK    6  A    between atoms: C11_15  and  N2_16 
REMARK    7  A    between atoms: C12_19  and  O3_20 
REMARK    8  A    between atoms: C12_19  and  N3_22 
REMARK    9  A    between atoms: N3_22  and  N4_23 
REMARK   10  A    between atoms: N4_23  and  C13_25 
REMARK   11  A    between atoms: C13_25  and  O4_26 
REMARK   12  A    between atoms: C13_25  and  N5_28 
REMARK   13  A    between atoms: N5_28  and  N6_29 
REMARK       I    between atoms: N6_29  and  C14_31 
REMARK   14  A    between atoms: C14_31  and  C15_33 
REMARK   15  A    between atoms: C15_33  and  N7_34 
REMARK   16  A    between atoms: C20_47  and  O7_48 
ROOT
HETATM    1  C3  UNL     1      49.773  24.374 -26.902  1.00  0.00     0.091 C 
HETATM    2  C4  UNL     1      48.503  24.395 -27.435  1.00  0.00     0.037 C 
HETATM    3  C5  UNL     1      47.391  23.708 -27.040  1.00  0.00     0.010 C 
HETATM    4  C6  UNL     1      46.348  24.489 -27.486  1.00  0.00     0.102 C 
HETATM    5  N1  UNL     1      45.049  24.115 -27.527  1.00  0.00    -0.363 N 
ATOM      6  H1  UNL     1      44.351  24.851 -27.429  1.00  0.00     0.165 HD
HETATM    7  C7  UNL     1      44.580  22.816 -27.690  1.00  0.00     0.059 A 
HETATM    8  C8  UNL     1      43.603  22.356 -28.494  1.00  0.00     0.039 A 
HETATM    9  C9  UNL     1      43.520  20.934 -28.329  1.00  0.00    -0.041 A 
HETATM   10  C16 UNL     1      44.457  20.602 -27.431  1.00  0.00     0.039 A 
HETATM   11  C17 UNL     1      45.160  21.706 -26.984  1.00  0.00     0.060 A 
HETATM   12  N8  UNL     1      46.205  21.741 -26.097  1.00  0.00    -0.351 N 
ATOM     13  H8  UNL     1      46.152  21.192 -25.239  1.00  0.00     0.166 HD
HETATM   14  C18 UNL     1      47.350  22.523 -26.349  1.00  0.00     0.082 C 
HETATM   15  C19 UNL     1      48.351  21.845 -25.728  1.00  0.00     0.145 A 
HETATM   16  O6  UNL     1      48.238  20.738 -25.092  1.00  0.00    -0.232 OA
HETATM   17  N9  UNL     1      49.387  20.351 -24.614  1.00  0.00    -0.238 N 
ATOM     18  H9  UNL     1      49.539  19.498 -24.075  1.00  0.00     0.197 HD
HETATM   19  C20 UNL     1      50.334  21.233 -24.931  1.00  0.00     0.177 A 
HETATM   20  C21 UNL     1      49.690  22.242 -25.671  1.00  0.00     0.106 A 
HETATM   21  C22 UNL     1      50.347  23.336 -26.191  1.00  0.00     0.205 C 
HETATM   22  O8  UNL     1      51.562  23.344 -25.987  1.00  0.00    -0.286 OA
ENDROOT
BRANCH   9  23
HETATM   23  C10 UNL     1      42.567  20.201 -29.225  1.00  0.00     0.103 C 
BRANCH  23  24
HETATM   24  C11 UNL     1      41.213  20.878 -28.588  1.00  0.00     0.066 C 
BRANCH  24  25
HETATM   25  N2  UNL     1      40.053  20.183 -28.827  1.00  0.00    -0.410 N 
ATOM     26  H22 UNL     1      40.038  19.353 -29.421  1.00  0.00     0.155 HD
ATOM     27  H21 UNL     1      39.224  20.561 -28.369  1.00  0.00     0.155 HD
ENDBRANCH  24  25
ENDBRANCH  23  24
BRANCH  23  28
HETATM   28  C12 UNL     1      42.506  20.555 -30.640  1.00  0.00     0.244 C 
BRANCH  28  29
HETATM   29  O3  UNL     1      43.381  20.041 -31.496  1.00  0.00    -0.377 OA
ATOM     30  H3  UNL     1      44.263  19.834 -31.212  1.00  0.00     0.211 HD
ENDBRANCH  28  29
BRANCH  28  31
HETATM   31  N3  UNL     1      41.445  21.384 -31.103  1.00  0.00    -0.104 NA
BRANCH  31  32
HETATM   32  N4  UNL     1      41.043  20.820 -32.398  1.00  0.00    -0.253 N 
ATOM     33  H4  UNL     1      40.666  19.875 -32.478  1.00  0.00     0.187 HD
BRANCH  32  34
HETATM   34  C13 UNL     1      41.204  21.648 -33.517  1.00  0.00     0.330 C 
BRANCH  34  35
HETATM   35  O4  UNL     1      40.477  22.763 -33.406  1.00  0.00    -0.319 OA
ATOM     36  H4  UNL     1      40.759  23.288 -32.666  1.00  0.00     0.222 HD
ENDBRANCH  34  35
BRANCH  34  37
HETATM   37  N5  UNL     1      41.985  21.423 -34.604  1.00  0.00    -0.276 NA
BRANCH  37  38
HETATM   38  N6  UNL     1      42.742  21.201 -35.676  1.00  0.00    -0.197 N 
HETATM   39  C14 UNL     1      43.965  20.474 -35.532  1.00  0.00     0.271 C 
HETATM   40  O5  UNL     1      44.177  19.990 -34.359  1.00  0.00    -0.269 OA
ATOM     41  H6  UNL     1      42.453  21.546 -36.591  1.00  0.00     0.205 HD
BRANCH  39  42
HETATM   42  C15 UNL     1      44.996  20.238 -36.542  1.00  0.00     0.334 C 
BRANCH  42  43
HETATM   43  N7  UNL     1      44.667  19.305 -37.568  1.00  0.00    -0.071 N 
ATOM     44  H73 UNL     1      45.466  19.181 -38.190  1.00  0.00     0.274 HD
ATOM     45  H72 UNL     1      44.594  18.368 -37.173  1.00  0.00     0.274 HD
ATOM     46  H71 UNL     1      43.833  19.514 -38.116  1.00  0.00     0.274 HD
ENDBRANCH  42  43
ENDBRANCH  39  42
ENDBRANCH  37  38
ENDBRANCH  34  37
ENDBRANCH  32  34
ENDBRANCH  31  32
ENDBRANCH  28  31
ENDBRANCH  23  28
ENDBRANCH   9  23
BRANCH   1  47
HETATM   47  C2  UNL     1      50.565  25.574 -27.024  1.00  0.00     0.297 C 
HETATM   48  O2  UNL     1      51.403  25.874 -27.854  1.00  0.00    -0.259 OA
BRANCH  47  49
HETATM   49  O1  UNL     1      50.310  26.544 -26.002  1.00  0.00    -0.322 OA
HETATM   50  C1  UNL     1      51.354  26.761 -25.015  1.00  0.00     0.213 C 
ENDBRANCH  47  49
ENDBRANCH   1  47
BRANCH  19  51
HETATM   51  O7  UNL     1      51.686  21.182 -24.606  1.00  0.00    -0.344 OA
ATOM     52  H7  UNL     1      52.072  21.069 -23.745  1.00  0.00     0.219 HD
ENDBRANCH  19  51
TORSDOF 16
ENDMDL
MODEL 3
REMARK VINA RESULT: -8.134504384      2.256      3.840
REMARK  16 active torsions:
REMARK  status: ('A' for Active; 'I' for Inactive)
REMARK    1  A    between atoms: O1_2  and  C2_3 
REMARK    2  A    between atoms: C2_3  and  C3_5 
REMARK    3  A    between atoms: C9_13  and  C10_14 
REMARK    4  A    between atoms: C10_14  and  C11_15 
REMARK    5  A    between atoms: C10_14  and  C12_19 
REMARK    6  A    between atoms: C11_15  and  N2_16 
REMARK    7  A    between atoms: C12_19  and  O3_20 
REMARK    8  A    between atoms: C12_19  and  N3_22 
REMARK    9  A    between atoms: N3_22  and  N4_23 
REMARK   10  A    between atoms: N4_23  and  C13_25 
REMARK   11  A    between atoms: C13_25  and  O4_26 
REMARK   12  A    between atoms: C13_25  and  N5_28 
REMARK   13  A    between atoms: N5_28  and  N6_29 
REMARK       I    between atoms: N6_29  and  C14_31 
REMARK   14  A    between atoms: C14_31  and  C15_33 
REMARK   15  A    between atoms: C15_33  and  N7_34 
REMARK   16  A    between atoms: C20_47  and  O7_48 
ROOT
HETATM    1  C3  UNL     1      49.255  23.977 -26.246  1.00  0.00     0.091 C 
HETATM    2  C4  UNL     1      48.465  24.619 -27.174  1.00  0.00     0.037 C 
HETATM    3  C5  UNL     1      47.125  24.488 -27.403  1.00  0.00     0.010 C 
HETATM    4  C6  UNL     1      46.770  25.692 -27.969  1.00  0.00     0.102 C 
HETATM    5  N1  UNL     1      45.589  25.959 -28.572  1.00  0.00    -0.363 N 
ATOM      6  H1  UNL     1      45.258  26.923 -28.539  1.00  0.00     0.165 HD
HETATM    7  C7  UNL     1      44.785  25.036 -29.234  1.00  0.00     0.059 A 
HETATM    8  C8  UNL     1      44.170  25.140 -30.426  1.00  0.00     0.039 A 
HETATM    9  C9  UNL     1      43.489  23.906 -30.687  1.00  0.00    -0.041 A 
HETATM   10  C16 UNL     1      43.730  23.111 -29.636  1.00  0.00     0.039 A 
HETATM   11  C17 UNL     1      44.524  23.732 -28.690  1.00  0.00     0.060 A 
HETATM   12  N8  UNL     1      44.997  23.213 -27.511  1.00  0.00    -0.351 N 
ATOM     13  H8  UNL     1      44.368  22.682 -26.910  1.00  0.00     0.166 HD
HETATM   14  C18 UNL     1      46.337  23.402 -27.117  1.00  0.00     0.082 C 
HETATM   15  C19 UNL     1      46.619  22.294 -26.382  1.00  0.00     0.145 A 
HETATM   16  O6  UNL     1      45.826  21.314 -26.149  1.00  0.00    -0.232 OA
HETATM   17  N9  UNL     1      46.404  20.407 -25.411  1.00  0.00    -0.238 N 
ATOM     18  H9  UNL     1      45.966  19.539 -25.102  1.00  0.00     0.197 HD
HETATM   19  C20 UNL     1      47.648  20.781 -25.120  1.00  0.00     0.177 A 
HETATM   20  C21 UNL     1      47.835  22.028 -25.743  1.00  0.00     0.106 A 
HETATM   21  C22 UNL     1      49.014  22.738 -25.681  1.00  0.00     0.205 C 
HETATM   22  O8  UNL     1      49.915  22.173 -25.059  1.00  0.00    -0.286 OA
ENDROOT
BRANCH   9  23
HETATM   23  C10 UNL     1      42.830  23.764 -32.027  1.00  0.00     0.103 C 
BRANCH  23  24
HETATM   24  C11 UNL     1      44.158  23.160 -32.782  1.00  0.00     0.066 C 
BRANCH  24  25
HETATM   25  N2  UNL     1      43.952  22.756 -34.078  1.00  0.00    -0.410 N 
ATOM     26  H22 UNL     1      43.153  22.178 -34.338  1.00  0.00     0.155 HD
ATOM     27  H21 UNL     1      44.653  23.079 -34.745  1.00  0.00     0.155 HD
ENDBRANCH  24  25
ENDBRANCH  23  24
BRANCH  23  28
HETATM   28  C12 UNL     1      41.818  22.730 -32.216  1.00  0.00     0.244 C 
BRANCH  28  29
HETATM   29  O3  UNL     1      40.739  22.976 -32.950  1.00  0.00    -0.377 OA
ATOM     30  H3  UNL     1      40.011  22.366 -32.949  1.00  0.00     0.211 HD
ENDBRANCH  28  29
BRANCH  28  31
HETATM   31  N3  UNL     1      42.043  21.431 -31.680  1.00  0.00    -0.104 NA
BRANCH  31  32
HETATM   32  N4  UNL     1      41.558  20.495 -32.702  1.00  0.00    -0.253 N 
ATOM     33  H4  UNL     1      40.562  20.339 -32.858  1.00  0.00     0.187 HD
BRANCH  32  34
HETATM   34  C13 UNL     1      42.536  19.828 -33.453  1.00  0.00     0.330 C 
BRANCH  34  35
HETATM   35  O4  UNL     1      43.273  19.021 -32.684  1.00  0.00    -0.319 OA
ATOM     36  H4  UNL     1      44.201  19.134 -32.854  1.00  0.00     0.222 HD
ENDBRANCH  34  35
BRANCH  34  37
HETATM   37  N5  UNL     1      42.761  19.927 -34.787  1.00  0.00    -0.276 NA
BRANCH  37  38
HETATM   38  N6  UNL     1      42.972  20.028 -36.098  1.00  0.00    -0.197 N 
HETATM   39  C14 UNL     1      44.300  20.253 -36.579  1.00  0.00     0.271 C 
HETATM   40  O5  UNL     1      45.218  20.226 -35.678  1.00  0.00    -0.269 OA
ATOM     41  H6  UNL     1      42.194  19.947 -36.753  1.00  0.00     0.205 HD
BRANCH  39  42
HETATM   42  C15 UNL     1      44.726  20.524 -37.951  1.00  0.00     0.334 C 
BRANCH  42  43
HETATM   43  N7  UNL     1      44.737  19.408 -38.837  1.00  0.00    -0.071 N 
ATOM     44  H73 UNL     1      43.876  18.874 -38.731  1.00  0.00     0.274 HD
ATOM     45  H72 UNL     1      44.637  19.730 -39.800  1.00  0.00     0.274 HD
ATOM     46  H71 UNL     1      45.541  18.785 -38.765  1.00  0.00     0.274 HD
ENDBRANCH  42  43
ENDBRANCH  39  42
ENDBRANCH  37  38
ENDBRANCH  34  37
ENDBRANCH  32  34
ENDBRANCH  31  32
ENDBRANCH  28  31
ENDBRANCH  23  28
ENDBRANCH   9  23
BRANCH   1  47
HETATM   47  C2  UNL     1      50.409  24.687 -25.751  1.00  0.00     0.297 C 
HETATM   48  O2  UNL     1      50.571  25.274 -24.696  1.00  0.00    -0.259 OA
BRANCH  47  49
HETATM   49  O1  UNL     1      51.521  24.689 -26.653  1.00  0.00    -0.322 OA
HETATM   50  C1  UNL     1      51.996  25.980 -27.120  1.00  0.00     0.213 C 
ENDBRANCH  47  49
ENDBRANCH   1  47
BRANCH  19  51
HETATM   51  O7  UNL     1      48.586  20.091 -24.357  1.00  0.00    -0.344 OA
ATOM     52  H7  UNL     1      48.901  20.309 -23.487  1.00  0.00     0.219 HD
ENDBRANCH  19  51
TORSDOF 16
ENDMDL
MODEL 4
REMARK VINA RESULT: -8.125919903      2.368      4.191
REMARK  16 active torsions:
REMARK  status: ('A' for Active; 'I' for Inactive)
REMARK    1  A    between atoms: O1_2  and  C2_3 
REMARK    2  A    between atoms: C2_3  and  C3_5 
REMARK    3  A    between atoms: C9_13  and  C10_14 
REMARK    4  A    between atoms: C10_14  and  C11_15 
REMARK    5  A    between atoms: C10_14  and  C12_19 
REMARK    6  A    between atoms: C11_15  and  N2_16 
REMARK    7  A    between atoms: C12_19  and  O3_20 
REMARK    8  A    between atoms: C12_19  and  N3_22 
REMARK    9  A    between atoms: N3_22  and  N4_23 
REMARK   10  A    between atoms: N4_23  and  C13_25 
REMARK   11  A    between atoms: C13_25  and  O4_26 
REMARK   12  A    between atoms: C13_25  and  N5_28 
REMARK   13  A    between atoms: N5_28  and  N6_29 
REMARK       I    between atoms: N6_29  and  C14_31 
REMARK   14  A    between atoms: C14_31  and  C15_33 
REMARK   15  A    between atoms: C15_33  and  N7_34 
REMARK   16  A    between atoms: C20_47  and  O7_48 
ROOT
HETATM    1  C3  UNL     1      48.974  24.132 -26.638  1.00  0.00     0.091 C 
HETATM    2  C4  UNL     1      47.868  24.321 -27.438  1.00  0.00     0.037 C 
HETATM    3  C5  UNL     1      46.609  23.808 -27.303  1.00  0.00     0.010 C 
HETATM    4  C6  UNL     1      45.813  24.718 -27.960  1.00  0.00     0.102 C 
HETATM    5  N1  UNL     1      44.514  24.531 -28.289  1.00  0.00    -0.363 N 
ATOM      6  H1  UNL     1      43.924  25.361 -28.340  1.00  0.00     0.165 HD
HETATM    7  C7  UNL     1      43.911  23.308 -28.564  1.00  0.00     0.059 A 
HETATM    8  C8  UNL     1      43.079  22.973 -29.567  1.00  0.00     0.039 A 
HETATM    9  C9  UNL     1      42.759  21.582 -29.438  1.00  0.00    -0.041 A 
HETATM   10  C16 UNL     1      43.419  21.141 -28.359  1.00  0.00     0.039 A 
HETATM   11  C17 UNL     1      44.157  22.144 -27.758  1.00  0.00     0.060 A 
HETATM   12  N8  UNL     1      44.977  22.050 -26.663  1.00  0.00    -0.351 N 
ATOM     13  H8  UNL     1      44.659  21.533 -25.843  1.00  0.00     0.166 HD
HETATM   14  C18 UNL     1      46.249  22.656 -26.649  1.00  0.00     0.082 C 
HETATM   15  C19 UNL     1      46.982  21.857 -25.829  1.00  0.00     0.145 A 
HETATM   16  O6  UNL     1      46.575  20.792 -25.244  1.00  0.00    -0.232 OA
HETATM   17  N9  UNL     1      47.524  20.257 -24.528  1.00  0.00    -0.238 N 
ATOM     18  H9  UNL     1      47.431  19.404 -23.977  1.00  0.00     0.197 HD
HETATM   19  C20 UNL     1      48.633  20.989 -24.621  1.00  0.00     0.177 A 
HETATM   20  C21 UNL     1      48.319  22.061 -25.475  1.00  0.00     0.106 A 
HETATM   21  C22 UNL     1      49.224  23.039 -25.828  1.00  0.00     0.205 C 
HETATM   22  O8  UNL     1      50.353  22.880 -25.361  1.00  0.00    -0.286 OA
ENDROOT
BRANCH   9  23
HETATM   23  C10 UNL     1      41.931  20.971 -30.529  1.00  0.00     0.103 C 
BRANCH  23  24
HETATM   24  C11 UNL     1      40.997  22.301 -30.769  1.00  0.00     0.066 C 
BRANCH  24  25
HETATM   25  N2  UNL     1      39.798  22.059 -31.393  1.00  0.00    -0.410 N 
ATOM     26  H22 UNL     1      38.958  21.820 -30.866  1.00  0.00     0.155 HD
ATOM     27  H21 UNL     1      39.821  22.138 -32.410  1.00  0.00     0.155 HD
ENDBRANCH  24  25
ENDBRANCH  23  24
BRANCH  23  28
HETATM   28  C12 UNL     1      42.540  20.728 -31.833  1.00  0.00     0.244 C 
BRANCH  28  29
HETATM   29  O3  UNL     1      42.424  21.627 -32.803  1.00  0.00    -0.377 OA
ATOM     30  H3  UNL     1      42.125  21.363 -33.666  1.00  0.00     0.211 HD
ENDBRANCH  28  29
BRANCH  28  31
HETATM   31  N3  UNL     1      43.332  19.561 -32.022  1.00  0.00    -0.104 NA
BRANCH  31  32
HETATM   32  N4  UNL     1      44.602  19.833 -31.337  1.00  0.00    -0.253 N 
ATOM     33  H4  UNL     1      44.863  19.350 -30.477  1.00  0.00     0.187 HD
BRANCH  32  34
HETATM   34  C13 UNL     1      45.438  20.791 -31.927  1.00  0.00     0.330 C 
BRANCH  34  35
HETATM   35  O4  UNL     1      46.162  21.438 -31.009  1.00  0.00    -0.319 OA
ATOM     36  H4  UNL     1      46.221  20.940 -30.201  1.00  0.00     0.222 HD
ENDBRANCH  34  35
BRANCH  34  37
HETATM   37  N5  UNL     1      45.561  21.076 -33.248  1.00  0.00    -0.276 NA
BRANCH  37  38
HETATM   38  N6  UNL     1      45.675  21.363 -34.543  1.00  0.00    -0.197 N 
HETATM   39  C14 UNL     1      44.841  20.686 -35.487  1.00  0.00     0.271 C 
HETATM   40  O5  UNL     1      43.950  19.913 -34.972  1.00  0.00    -0.269 OA
ATOM     41  H6  UNL     1      46.350  22.059 -34.859  1.00  0.00     0.205 HD
BRANCH  39  42
HETATM   42  C15 UNL     1      44.896  20.753 -36.947  1.00  0.00     0.334 C 
BRANCH  42  43
HETATM   43  N7  UNL     1      44.967  19.504 -37.631  1.00  0.00    -0.071 N 
ATOM     44  H73 UNL     1      44.978  18.741 -36.955  1.00  0.00     0.274 HD
ATOM     45  H72 UNL     1      44.082  19.319 -38.103  1.00  0.00     0.274 HD
ATOM     46  H71 UNL     1      45.738  19.395 -38.288  1.00  0.00     0.274 HD
ENDBRANCH  42  43
ENDBRANCH  39  42
ENDBRANCH  37  38
ENDBRANCH  34  37
ENDBRANCH  32  34
ENDBRANCH  31  32
ENDBRANCH  28  31
ENDBRANCH  23  28
ENDBRANCH   9  23
BRANCH   1  47
HETATM   47  C2  UNL     1      49.937  25.204 -26.571  1.00  0.00     0.297 C 
HETATM   48  O2  UNL     1      50.060  26.092 -25.748  1.00  0.00    -0.259 OA
BRANCH  47  49
HETATM   49  O1  UNL     1      50.881  25.205 -27.648  1.00  0.00    -0.322 OA
HETATM   50  C1  UNL     1      50.805  26.301 -28.598  1.00  0.00     0.213 C 
ENDBRANCH  47  49
ENDBRANCH   1  47
BRANCH  19  51
HETATM   51  O7  UNL     1      49.860  20.753 -24.007  1.00  0.00    -0.344 OA
ATOM     52  H7  UNL     1      50.047  20.724 -23.076  1.00  0.00     0.219 HD
ENDBRANCH  19  51
TORSDOF 16
ENDMDL
MODEL 5
REMARK VINA RESULT: -8.112697590      2.704      4.385
REMARK  16 active torsions:
REMARK  status: ('A' for Active; 'I' for Inactive)
REMARK    1  A    between atoms: O1_2  and  C2_3 
REMARK    2  A    between atoms: C2_3  and  C3_5 
REMARK    3  A    between atoms: C9_13  and  C10_14 
REMARK    4  A    between atoms: C10_14  and  C11_15 
REMARK    5  A    between atoms: C10_14  and  C12_19 
REMARK    6  A    between atoms: C11_15  and  N2_16 
REMARK    7  A    between atoms: C12_19  and  O3_20 
REMARK    8  A    between atoms: C12_19  and  N3_22 
REMARK    9  A    between atoms: N3_22  and  N4_23 
REMARK   10  A    between atoms: N4_23  and  C13_25 
REMARK   11  A    between atoms: C13_25  and  O4_26 
REMARK   12  A    between atoms: C13_25  and  N5_28 
REMARK   13  A    between atoms: N5_28  and  N6_29 
REMARK       I    between atoms: N6_29  and  C14_31 
REMARK   14  A    between atoms: C14_31  and  C15_33 
REMARK   15  A    between atoms: C15_33  and  N7_34 
REMARK   16  A    between atoms: C20_47  and  O7_48 
ROOT
HETATM    1  C3  UNL     1      49.179  24.056 -26.741  1.00  0.00     0.091 C 
HETATM    2  C4  UNL     1      48.069  24.385 -27.487  1.00  0.00     0.037 C 
HETATM    3  C5  UNL     1      46.769  24.000 -27.314  1.00  0.00     0.010 C 
HETATM    4  C6  UNL     1      46.047  25.010 -27.909  1.00  0.00     0.102 C 
HETATM    5  N1  UNL     1      44.724  24.969 -28.188  1.00  0.00    -0.363 N 
ATOM      6  H1  UNL     1      44.222  25.857 -28.188  1.00  0.00     0.165 HD
HETATM    7  C7  UNL     1      43.986  23.825 -28.473  1.00  0.00     0.059 A 
HETATM    8  C8  UNL     1      43.084  23.612 -29.448  1.00  0.00     0.039 A 
HETATM    9  C9  UNL     1      42.626  22.258 -29.347  1.00  0.00    -0.041 A 
HETATM   10  C16 UNL     1      43.279  21.714 -28.311  1.00  0.00     0.039 A 
HETATM   11  C17 UNL     1      44.141  22.615 -27.713  1.00  0.00     0.060 A 
HETATM   12  N8  UNL     1      44.988  22.400 -26.657  1.00  0.00    -0.351 N 
ATOM     13  H8  UNL     1      44.651  21.891 -25.840  1.00  0.00     0.166 HD
HETATM   14  C18 UNL     1      46.316  22.870 -26.680  1.00  0.00     0.082 C 
HETATM   15  C19 UNL     1      46.993  21.972 -25.916  1.00  0.00     0.145 A 
HETATM   16  O6  UNL     1      46.501  20.935 -25.346  1.00  0.00    -0.232 OA
HETATM   17  N9  UNL     1      47.417  20.281 -24.688  1.00  0.00    -0.238 N 
ATOM     18  H9  UNL     1      47.257  19.424 -24.159  1.00  0.00     0.197 HD
HETATM   19  C20 UNL     1      48.592  20.898 -24.806  1.00  0.00     0.177 A 
HETATM   20  C21 UNL     1      48.358  22.025 -25.614  1.00  0.00     0.106 A 
HETATM   21  C22 UNL     1      49.345  22.916 -25.976  1.00  0.00     0.205 C 
HETATM   22  O8  UNL     1      50.469  22.625 -25.562  1.00  0.00    -0.286 OA
ENDROOT
BRANCH   9  23
HETATM   23  C10 UNL     1      41.696  21.773 -30.419  1.00  0.00     0.103 C 
BRANCH  23  24
HETATM   24  C11 UNL     1      42.104  22.935 -31.506  1.00  0.00     0.066 C 
BRANCH  24  25
HETATM   25  N2  UNL     1      41.696  22.690 -32.794  1.00  0.00    -0.410 N 
ATOM     26  H22 UNL     1      41.071  21.915 -33.019  1.00  0.00     0.155 HD
ATOM     27  H21 UNL     1      42.065  23.336 -33.491  1.00  0.00     0.155 HD
ENDBRANCH  24  25
ENDBRANCH  23  24
BRANCH  23  28
HETATM   28  C12 UNL     1      41.997  20.523 -31.111  1.00  0.00     0.244 C 
BRANCH  28  29
HETATM   29  O3  UNL     1      41.017  19.790 -31.624  1.00  0.00    -0.377 OA
ATOM     30  H3  UNL     1      40.529  19.190 -31.072  1.00  0.00     0.211 HD
ENDBRANCH  28  29
BRANCH  28  31
HETATM   31  N3  UNL     1      43.356  20.147 -31.305  1.00  0.00    -0.104 NA
BRANCH  31  32
HETATM   32  N4  UNL     1      43.396  19.484 -32.615  1.00  0.00    -0.253 N 
ATOM     33  H4  UNL     1      42.984  18.563 -32.763  1.00  0.00     0.187 HD
BRANCH  32  34
HETATM   34  C13 UNL     1      44.032  20.184 -33.650  1.00  0.00     0.330 C 
BRANCH  34  35
HETATM   35  O4  UNL     1      45.036  20.934 -33.186  1.00  0.00    -0.319 OA
ATOM     36  H4  UNL     1      45.739  20.395 -32.843  1.00  0.00     0.222 HD
ENDBRANCH  34  35
BRANCH  34  37
HETATM   37  N5  UNL     1      43.733  20.149 -34.973  1.00  0.00    -0.276 NA
BRANCH  37  38
HETATM   38  N6  UNL     1      43.446  20.124 -36.273  1.00  0.00    -0.197 N 
HETATM   39  C14 UNL     1      44.471  20.420 -37.224  1.00  0.00     0.271 C 
HETATM   40  O5  UNL     1      45.646  20.584 -36.726  1.00  0.00    -0.269 OA
ATOM     41  H6  UNL     1      42.503  19.895 -36.587  1.00  0.00     0.205 HD
BRANCH  39  42
HETATM   42  C15 UNL     1      44.338  20.577 -38.672  1.00  0.00     0.334 C 
BRANCH  42  43
HETATM   43  N7  UNL     1      44.522  19.397 -39.450  1.00  0.00    -0.071 N 
ATOM     44  H73 UNL     1      44.821  19.649 -40.392  1.00  0.00     0.274 HD
ATOM     45  H72 UNL     1      45.345  18.893 -39.123  1.00  0.00     0.274 HD
ATOM     46  H71 UNL     1      43.725  18.763 -39.500  1.00  0.00     0.274 HD
ENDBRANCH  42  43
ENDBRANCH  39  42
ENDBRANCH  37  38
ENDBRANCH  34  37
ENDBRANCH  32  34
ENDBRANCH  31  32
ENDBRANCH  28  31
ENDBRANCH  23  28
ENDBRANCH   9  23
BRANCH   1  47
HETATM   47  C2  UNL     1      50.251  25.020 -26.684  1.00  0.00     0.297 C 
HETATM   48  O2  UNL     1      51.212  25.162 -27.417  1.00  0.00    -0.259 OA
BRANCH  47  49
HETATM   49  O1  UNL     1      50.146  25.940 -25.592  1.00  0.00    -0.322 OA
HETATM   50  C1  UNL     1      51.384  26.488 -25.064  1.00  0.00     0.213 C 
ENDBRANCH  47  49
ENDBRANCH   1  47
BRANCH  19  51
HETATM   51  O7  UNL     1      49.811  20.516 -24.253  1.00  0.00    -0.344 OA
ATOM     52  H7  UNL     1      50.071  20.557 -23.340  1.00  0.00     0.219 HD
ENDBRANCH  19  51
TORSDOF 16
ENDMDL
