MODEL 1
REMARK VINA RESULT: -7.454360602      0.000      0.000
REMARK  10 active torsions:
REMARK  status: ('A' for Active; 'I' for Inactive)
REMARK    1  A    between atoms: C2_2  and  C4_4 
REMARK    2  A    between atoms: C4_4  and  C5_5 
REMARK    3  A    between atoms: C5_5  and  O1_6 
REMARK    4  A    between atoms: O1_6  and  C6_7 
REMARK    5  A    between atoms: C8_11  and  N2_12 
REMARK    6  A    between atoms: C9_15  and  N3_16 
REMARK    7  A    between atoms: N3_16  and  S1_18 
REMARK    8  A    between atoms: S1_18  and  C10_21 
REMARK    9  A    between atoms: C10_21  and  C12_23 
REMARK   10  A    between atoms: C12_23  and  N4_26 
ROOT
HETATM    1  C6  UNL     1       0.179   7.384  11.471  1.00  0.00     0.159 A 
HETATM    2  C7  UNL     1       0.867   6.305  10.920  1.00  0.00     0.145 A 
HETATM    3  N1  UNL     1       1.327   5.319  11.699  1.00  0.00    -0.345 N 
ATOM      4  H1  UNL     1       1.829   4.530  11.292  1.00  0.00     0.167 HD
HETATM    5  C8  UNL     1       1.117   5.381  13.031  1.00  0.00     0.144 A 
HETATM    6  C9  UNL     1       0.439   6.442  13.583  1.00  0.00     0.161 A 
HETATM    7  N5  UNL     1      -0.032   7.452  12.777  1.00  0.00    -0.318 N 
ATOM      8  H5  UNL     1      -0.536   8.243  13.179  1.00  0.00     0.169 HD
ENDROOT
BRANCH   6   9
HETATM    9  N3  UNL     1       0.213   6.556  14.808  1.00  0.00    -0.266 N 
ATOM     10  H3  UNL     1       0.641   7.401  15.185  1.00  0.00     0.180 HD
BRANCH   9  11
HETATM   11  S1  UNL     1      -0.590   5.713  15.984  1.00  0.00     0.238 S 
HETATM   12  O2  UNL     1       0.132   4.403  16.281  1.00  0.00    -0.205 OA
HETATM   13  O3  UNL     1      -0.776   6.389  17.311  1.00  0.00    -0.205 OA
BRANCH  11  14
HETATM   14  C10 UNL     1      -2.237   5.209  15.476  1.00  0.00     0.160 C 
HETATM   15  C11 UNL     1      -2.245   4.590  14.120  1.00  0.00     0.031 C 
BRANCH  14  16
HETATM   16  C12 UNL     1      -3.157   6.372  15.643  1.00  0.00     0.134 C 
HETATM   17  C13 UNL     1      -4.405   6.142  14.780  1.00  0.00     0.047 C 
HETATM   18  C14 UNL     1      -2.588   7.690  15.223  1.00  0.00     0.047 C 
BRANCH  16  19
HETATM   19  N4  UNL     1      -3.558   6.463  17.028  1.00  0.00    -0.070 N 
ATOM     20  H43 UNL     1      -4.564   6.593  17.133  1.00  0.00     0.275 HD
ATOM     21  H42 UNL     1      -3.478   5.570  17.514  1.00  0.00     0.275 HD
ATOM     22  H41 UNL     1      -3.022   7.201  17.483  1.00  0.00     0.275 HD
ENDBRANCH  16  19
ENDBRANCH  14  16
ENDBRANCH  11  14
ENDBRANCH   9  11
ENDBRANCH   6   9
BRANCH   5  23
HETATM   23  N2  UNL     1       1.574   4.404  13.790  1.00  0.00    -0.382 N 
ATOM     24  H22 UNL     1       2.569   4.334  14.006  1.00  0.00     0.157 HD
ATOM     25  H21 UNL     1       0.914   3.720  14.158  1.00  0.00     0.157 HD
ENDBRANCH   5  23
BRANCH   1  26
HETATM   26  O1  UNL     1      -0.300   8.409  10.666  1.00  0.00    -0.335 OA
BRANCH  26  27
HETATM   27  C5  UNL     1      -1.452   9.093  11.050  1.00  0.00     0.178 C 
BRANCH  27  28
HETATM   28  C4  UNL     1      -1.799  10.257  10.188  1.00  0.00     0.030 C 
BRANCH  28  29
HETATM   29  C2  UNL     1      -2.176   9.711   8.808  1.00  0.00    -0.021 C 
HETATM   30  C1  UNL     1      -1.431  10.534   7.790  1.00  0.00     0.009 C 
HETATM   31  C3  UNL     1      -3.657   9.734   8.613  1.00  0.00     0.009 C 
ENDBRANCH  28  29
ENDBRANCH  27  28
ENDBRANCH  26  27
ENDBRANCH   1  26
TORSDOF 10
ENDMDL
MODEL 2
REMARK VINA RESULT: -7.421810798      0.981      1.381
REMARK  10 active torsions:
REMARK  status: ('A' for Active; 'I' for Inactive)
REMARK    1  A    between atoms: C2_2  and  C4_4 
REMARK    2  A    between atoms: C4_4  and  C5_5 
REMARK    3  A    between atoms: C5_5  and  O1_6 
REMARK    4  A    between atoms: O1_6  and  C6_7 
REMARK    5  A    between atoms: C8_11  and  N2_12 
REMARK    6  A    between atoms: C9_15  and  N3_16 
REMARK    7  A    between atoms: N3_16  and  S1_18 
REMARK    8  A    between atoms: S1_18  and  C10_21 
REMARK    9  A    between atoms: C10_21  and  C12_23 
REMARK   10  A    between atoms: C12_23  and  N4_26 
ROOT
HETATM    1  C6  UNL     1       0.429   7.447  10.966  1.00  0.00     0.159 A 
HETATM    2  C7  UNL     1       1.099   6.338  10.454  1.00  0.00     0.145 A 
HETATM    3  N1  UNL     1       1.476   5.337  11.260  1.00  0.00    -0.345 N 
ATOM      4  H1  UNL     1       1.966   4.526  10.882  1.00  0.00     0.167 HD
HETATM    5  C8  UNL     1       1.200   5.414  12.579  1.00  0.00     0.144 A 
HETATM    6  C9  UNL     1       0.540   6.506  13.091  1.00  0.00     0.161 A 
HETATM    7  N5  UNL     1       0.154   7.531  12.259  1.00  0.00    -0.318 N 
ATOM      8  H5  UNL     1      -0.338   8.343  12.631  1.00  0.00     0.169 HD
ENDROOT
BRANCH   6   9
HETATM    9  N3  UNL     1       0.255   6.636  14.302  1.00  0.00    -0.266 N 
ATOM     10  H3  UNL     1       0.838   7.346  14.744  1.00  0.00     0.180 HD
BRANCH   9  11
HETATM   11  S1  UNL     1      -0.808   5.972  15.383  1.00  0.00     0.238 S 
HETATM   12  O2  UNL     1      -0.345   4.577  15.790  1.00  0.00    -0.205 OA
HETATM   13  O3  UNL     1      -1.040   6.716  16.665  1.00  0.00    -0.205 OA
BRANCH  11  14
HETATM   14  C10 UNL     1      -2.441   5.714  14.684  1.00  0.00     0.160 C 
HETATM   15  C11 UNL     1      -2.984   6.947  14.047  1.00  0.00     0.031 C 
BRANCH  14  16
HETATM   16  C12 UNL     1      -3.313   5.112  15.736  1.00  0.00     0.134 C 
HETATM   17  C13 UNL     1      -4.332   4.184  15.059  1.00  0.00     0.047 C 
HETATM   18  C14 UNL     1      -4.102   6.096  16.538  1.00  0.00     0.047 C 
BRANCH  16  19
HETATM   19  N4  UNL     1      -2.497   4.330  16.635  1.00  0.00    -0.070 N 
ATOM     20  H43 UNL     1      -1.857   3.710  16.139  1.00  0.00     0.275 HD
ATOM     21  H42 UNL     1      -1.800   4.897  17.119  1.00  0.00     0.275 HD
ATOM     22  H41 UNL     1      -3.102   3.825  17.282  1.00  0.00     0.275 HD
ENDBRANCH  16  19
ENDBRANCH  14  16
ENDBRANCH  11  14
ENDBRANCH   9  11
ENDBRANCH   6   9
BRANCH   5  23
HETATM   23  N2  UNL     1       1.576   4.424  13.364  1.00  0.00    -0.382 N 
ATOM     24  H22 UNL     1       1.800   3.508  12.976  1.00  0.00     0.157 HD
ATOM     25  H21 UNL     1       1.640   4.592  14.367  1.00  0.00     0.157 HD
ENDBRANCH   5  23
BRANCH   1  26
HETATM   26  O1  UNL     1       0.035   8.486  10.133  1.00  0.00    -0.335 OA
BRANCH  26  27
HETATM   27  C5  UNL     1      -1.323   8.706   9.915  1.00  0.00     0.178 C 
BRANCH  27  28
HETATM   28  C4  UNL     1      -1.772  10.105  10.153  1.00  0.00     0.030 C 
BRANCH  28  29
HETATM   29  C2  UNL     1      -2.413  10.609   8.857  1.00  0.00    -0.021 C 
HETATM   30  C1  UNL     1      -3.606   9.730   8.585  1.00  0.00     0.009 C 
HETATM   31  C3  UNL     1      -1.422  10.616   7.740  1.00  0.00     0.009 C 
ENDBRANCH  28  29
ENDBRANCH  27  28
ENDBRANCH  26  27
ENDBRANCH   1  26
TORSDOF 10
ENDMDL
MODEL 3
REMARK VINA RESULT: -7.341121199      1.732      1.978
REMARK  10 active torsions:
REMARK  status: ('A' for Active; 'I' for Inactive)
REMARK    1  A    between atoms: C2_2  and  C4_4 
REMARK    2  A    between atoms: C4_4  and  C5_5 
REMARK    3  A    between atoms: C5_5  and  O1_6 
REMARK    4  A    between atoms: O1_6  and  C6_7 
REMARK    5  A    between atoms: C8_11  and  N2_12 
REMARK    6  A    between atoms: C9_15  and  N3_16 
REMARK    7  A    between atoms: N3_16  and  S1_18 
REMARK    8  A    between atoms: S1_18  and  C10_21 
REMARK    9  A    between atoms: C10_21  and  C12_23 
REMARK   10  A    between atoms: C12_23  and  N4_26 
ROOT
HETATM    1  C6  UNL     1      -0.792   6.562  10.424  1.00  0.00     0.159 A 
HETATM    2  C7  UNL     1      -0.542   5.404   9.691  1.00  0.00     0.145 A 
HETATM    3  N1  UNL     1      -0.410   4.222  10.306  1.00  0.00    -0.345 N 
ATOM      4  H1  UNL     1      -0.228   3.377   9.766  1.00  0.00     0.167 HD
HETATM    5  C8  UNL     1      -0.523   4.164  11.650  1.00  0.00     0.144 A 
HETATM    6  C9  UNL     1      -0.769   5.302  12.380  1.00  0.00     0.161 A 
HETATM    7  N5  UNL     1      -0.904   6.514  11.743  1.00  0.00    -0.318 N 
ATOM      8  H5  UNL     1      -1.088   7.363  12.278  1.00  0.00     0.169 HD
ENDROOT
BRANCH   6   9
HETATM    9  N3  UNL     1      -0.884   5.313  13.625  1.00  0.00    -0.266 N 
ATOM     10  H3  UNL     1      -1.156   4.396  13.979  1.00  0.00     0.180 HD
BRANCH   9  11
HETATM   11  S1  UNL     1      -0.717   6.406  14.856  1.00  0.00     0.238 S 
HETATM   12  O2  UNL     1       0.674   6.296  15.475  1.00  0.00    -0.205 OA
HETATM   13  O3  UNL     1      -0.901   7.857  14.519  1.00  0.00    -0.205 OA
BRANCH  11  14
HETATM   14  C10 UNL     1      -1.838   6.092  16.223  1.00  0.00     0.160 C 
HETATM   15  C11 UNL     1      -1.910   4.645  16.573  1.00  0.00     0.031 C 
BRANCH  14  16
HETATM   16  C12 UNL     1      -3.151   6.730  15.909  1.00  0.00     0.134 C 
HETATM   17  C13 UNL     1      -4.225   6.122  16.822  1.00  0.00     0.047 C 
HETATM   18  C14 UNL     1      -3.626   6.534  14.505  1.00  0.00     0.047 C 
BRANCH  16  19
HETATM   19  N4  UNL     1      -3.062   8.147  16.174  1.00  0.00    -0.070 N 
ATOM     20  H43 UNL     1      -2.368   8.609  15.587  1.00  0.00     0.275 HD
ATOM     21  H42 UNL     1      -3.885   8.655  15.848  1.00  0.00     0.275 HD
ATOM     22  H41 UNL     1      -2.887   8.291  17.169  1.00  0.00     0.275 HD
ENDBRANCH  16  19
ENDBRANCH  14  16
ENDBRANCH  11  14
ENDBRANCH   9  11
ENDBRANCH   6   9
BRANCH   5  23
HETATM   23  N2  UNL     1      -0.391   2.995  12.246  1.00  0.00    -0.382 N 
ATOM     24  H22 UNL     1       0.181   2.260  11.831  1.00  0.00     0.157 HD
ATOM     25  H21 UNL     1      -0.873   2.840  13.131  1.00  0.00     0.157 HD
ENDBRANCH   5  23
BRANCH   1  26
HETATM   26  O1  UNL     1      -0.930   7.790   9.789  1.00  0.00    -0.335 OA
BRANCH  26  27
HETATM   27  C5  UNL     1      -1.992   8.621  10.139  1.00  0.00     0.178 C 
BRANCH  27  28
HETATM   28  C4  UNL     1      -1.691  10.077  10.068  1.00  0.00     0.030 C 
BRANCH  28  29
HETATM   29  C2  UNL     1      -2.364  10.625   8.807  1.00  0.00    -0.021 C 
HETATM   30  C1  UNL     1      -3.602   9.798   8.574  1.00  0.00     0.009 C 
HETATM   31  C3  UNL     1      -1.421  10.609   7.649  1.00  0.00     0.009 C 
ENDBRANCH  28  29
ENDBRANCH  27  28
ENDBRANCH  26  27
ENDBRANCH   1  26
TORSDOF 10
ENDMDL
MODEL 4
REMARK VINA RESULT: -7.312881368      1.484      1.723
REMARK  10 active torsions:
REMARK  status: ('A' for Active; 'I' for Inactive)
REMARK    1  A    between atoms: C2_2  and  C4_4 
REMARK    2  A    between atoms: C4_4  and  C5_5 
REMARK    3  A    between atoms: C5_5  and  O1_6 
REMARK    4  A    between atoms: O1_6  and  C6_7 
REMARK    5  A    between atoms: C8_11  and  N2_12 
REMARK    6  A    between atoms: C9_15  and  N3_16 
REMARK    7  A    between atoms: N3_16  and  S1_18 
REMARK    8  A    between atoms: S1_18  and  C10_21 
REMARK    9  A    between atoms: C10_21  and  C12_23 
REMARK   10  A    between atoms: C12_23  and  N4_26 
ROOT
HETATM    1  C6  UNL     1      -0.631   6.506  10.380  1.00  0.00     0.159 A 
HETATM    2  C7  UNL     1       0.234   5.732   9.609  1.00  0.00     0.145 A 
HETATM    3  N1  UNL     1       0.987   4.780  10.175  1.00  0.00    -0.345 N 
ATOM      4  H1  UNL     1       1.618   4.215   9.606  1.00  0.00     0.167 HD
HETATM    5  C8  UNL     1       0.901   4.579  11.507  1.00  0.00     0.144 A 
HETATM    6  C9  UNL     1       0.051   5.339  12.274  1.00  0.00     0.161 A 
HETATM    7  N5  UNL     1      -0.721   6.314  11.688  1.00  0.00    -0.318 N 
ATOM      8  H5  UNL     1      -1.354   6.882  12.251  1.00  0.00     0.169 HD
ENDROOT
BRANCH   6   9
HETATM    9  N3  UNL     1      -0.074   5.200  13.511  1.00  0.00    -0.266 N 
ATOM     10  H3  UNL     1       0.277   4.293  13.819  1.00  0.00     0.180 HD
BRANCH   9  11
HETATM   11  S1  UNL     1      -0.652   6.083  14.786  1.00  0.00     0.238 S 
HETATM   12  O2  UNL     1       0.377   6.122  15.911  1.00  0.00    -0.205 OA
HETATM   13  O3  UNL     1      -1.025   7.512  14.521  1.00  0.00    -0.205 OA
BRANCH  11  14
HETATM   14  C10 UNL     1      -2.107   5.347  15.538  1.00  0.00     0.160 C 
HETATM   15  C11 UNL     1      -2.947   4.616  14.547  1.00  0.00     0.031 C 
BRANCH  14  16
HETATM   16  C12 UNL     1      -2.822   6.405  16.312  1.00  0.00     0.134 C 
HETATM   17  C13 UNL     1      -3.879   5.735  17.201  1.00  0.00     0.047 C 
HETATM   18  C14 UNL     1      -3.546   7.413  15.477  1.00  0.00     0.047 C 
BRANCH  16  19
HETATM   19  N4  UNL     1      -1.874   7.096  17.154  1.00  0.00    -0.070 N 
ATOM     20  H43 UNL     1      -1.348   6.458  17.751  1.00  0.00     0.275 HD
ATOM     21  H42 UNL     1      -1.090   7.476  16.625  1.00  0.00     0.275 HD
ATOM     22  H41 UNL     1      -2.364   7.812  17.690  1.00  0.00     0.275 HD
ENDBRANCH  16  19
ENDBRANCH  14  16
ENDBRANCH  11  14
ENDBRANCH   9  11
ENDBRANCH   6   9
BRANCH   5  23
HETATM   23  N2  UNL     1       1.647   3.640  12.054  1.00  0.00    -0.382 N 
ATOM     24  H22 UNL     1       1.724   2.718  11.625  1.00  0.00     0.157 HD
ATOM     25  H21 UNL     1       2.148   3.854  12.917  1.00  0.00     0.157 HD
ENDBRANCH   5  23
BRANCH   1  26
HETATM   26  O1  UNL     1      -1.414   7.493   9.797  1.00  0.00    -0.335 OA
BRANCH  26  27
HETATM   27  C5  UNL     1      -0.915   8.790   9.705  1.00  0.00     0.178 C 
BRANCH  27  28
HETATM   28  C4  UNL     1      -1.853   9.850  10.166  1.00  0.00     0.030 C 
BRANCH  28  29
HETATM   29  C2  UNL     1      -2.428  10.529   8.920  1.00  0.00    -0.021 C 
HETATM   30  C1  UNL     1      -3.689   9.788   8.558  1.00  0.00     0.009 C 
HETATM   31  C3  UNL     1      -1.423  10.555   7.815  1.00  0.00     0.009 C 
ENDBRANCH  28  29
ENDBRANCH  27  28
ENDBRANCH  26  27
ENDBRANCH   1  26
TORSDOF 10
ENDMDL
MODEL 5
REMARK VINA RESULT: -7.227690233      1.128      1.359
REMARK  10 active torsions:
REMARK  status: ('A' for Active; 'I' for Inactive)
REMARK    1  A    between atoms: C2_2  and  C4_4 
REMARK    2  A    between atoms: C4_4  and  C5_5 
REMARK    3  A    between atoms: C5_5  and  O1_6 
REMARK    4  A    between atoms: O1_6  and  C6_7 
REMARK    5  A    between atoms: C8_11  and  N2_12 
REMARK    6  A    between atoms: C9_15  and  N3_16 
REMARK    7  A    between atoms: N3_16  and  S1_18 
REMARK    8  A    between atoms: S1_18  and  C10_21 
REMARK    9  A    between atoms: C10_21  and  C12_23 
REMARK   10  A    between atoms: C12_23  and  N4_26 
ROOT
HETATM    1  C6  UNL     1      -0.332   7.750  11.854  1.00  0.00     0.159 A 
HETATM    2  C7  UNL     1       0.372   6.788  11.133  1.00  0.00     0.145 A 
HETATM    3  N1  UNL     1       0.916   5.733  11.754  1.00  0.00    -0.345 N 
ATOM      4  H1  UNL     1       1.429   5.030  11.223  1.00  0.00     0.167 HD
HETATM    5  C8  UNL     1       0.775   5.612  13.091  1.00  0.00     0.144 A 
HETATM    6  C9  UNL     1       0.083   6.558  13.809  1.00  0.00     0.161 A 
HETATM    7  N5  UNL     1      -0.474   7.639  13.166  1.00  0.00    -0.318 N 
ATOM      8  H5  UNL     1      -0.990   8.345  13.692  1.00  0.00     0.169 HD
ENDROOT
BRANCH   6   9
HETATM    9  N3  UNL     1      -0.081   6.502  15.048  1.00  0.00    -0.266 N 
ATOM     10  H3  UNL     1       0.799   6.318  15.529  1.00  0.00     0.180 HD
BRANCH   9  11
HETATM   11  S1  UNL     1      -1.334   6.645  16.119  1.00  0.00     0.238 S 
HETATM   12  O2  UNL     1      -0.801   6.729  17.546  1.00  0.00    -0.205 OA
HETATM   13  O3  UNL     1      -2.251   7.822  15.955  1.00  0.00    -0.205 OA
BRANCH  11  14
HETATM   14  C10 UNL     1      -2.408   5.206  16.129  1.00  0.00     0.160 C 
HETATM   15  C11 UNL     1      -1.739   3.998  15.570  1.00  0.00     0.031 C 
BRANCH  14  16
HETATM   16  C12 UNL     1      -3.694   5.576  15.467  1.00  0.00     0.134 C 
HETATM   17  C13 UNL     1      -4.416   4.291  15.039  1.00  0.00     0.047 C 
HETATM   18  C14 UNL     1      -3.550   6.412  14.236  1.00  0.00     0.047 C 
BRANCH  16  19
HETATM   19  N4  UNL     1      -4.526   6.285  16.412  1.00  0.00    -0.070 N 
ATOM     20  H43 UNL     1      -5.330   6.726  15.967  1.00  0.00     0.275 HD
ATOM     21  H42 UNL     1      -5.034   5.654  17.032  1.00  0.00     0.275 HD
ATOM     22  H41 UNL     1      -3.952   6.953  16.926  1.00  0.00     0.275 HD
ENDBRANCH  16  19
ENDBRANCH  14  16
ENDBRANCH  11  14
ENDBRANCH   9  11
ENDBRANCH   6   9
BRANCH   5  23
HETATM   23  N2  UNL     1       1.315   4.571  13.693  1.00  0.00    -0.382 N 
ATOM     24  H22 UNL     1       1.492   4.582  14.697  1.00  0.00     0.157 HD
ATOM     25  H21 UNL     1       1.554   3.752  13.134  1.00  0.00     0.157 HD
ENDBRANCH   5  23
BRANCH   1  26
HETATM   26  O1  UNL     1      -0.898   8.845  11.214  1.00  0.00    -0.335 OA
BRANCH  26  27
HETATM   27  C5  UNL     1      -1.309   8.719   9.888  1.00  0.00     0.178 C 
BRANCH  27  28
HETATM   28  C4  UNL     1      -0.439   9.413   8.900  1.00  0.00     0.030 C 
BRANCH  28  29
HETATM   29  C2  UNL     1      -1.300  10.454   8.179  1.00  0.00    -0.021 C 
HETATM   30  C1  UNL     1      -0.657  11.796   8.412  1.00  0.00     0.009 C 
HETATM   31  C3  UNL     1      -2.717  10.391   8.650  1.00  0.00     0.009 C 
ENDBRANCH  28  29
ENDBRANCH  27  28
ENDBRANCH  26  27
ENDBRANCH   1  26
TORSDOF 10
ENDMDL
