MODEL 1
REMARK VINA RESULT: -5.893658937      0.000      0.000
REMARK  3 active torsions:
REMARK  status: ('A' for Active; 'I' for Inactive)
REMARK    1  A    between atoms: C4_4  and  C5_5 
REMARK    2  A    between atoms: C6_6  and  C7_7 
REMARK    3  A    between atoms: C14_14  and  C15_15 
ROOT
HETATM    1  C1  UNL     1     124.774 102.704 -44.149  1.00  0.00     0.017 C 
HETATM    2  C2  UNL     1     124.958 103.049 -43.007  1.00  0.00    -0.089 C 
HETATM    3  C3  UNL     1     125.186 103.440 -41.644  1.00  0.00     0.063 C 
HETATM    4  C4  UNL     1     125.083 104.704 -41.264  1.00  0.00     0.009 C 
ENDROOT
BRANCH   4   5
HETATM    5  C5  UNL     1     124.741 105.756 -42.185  1.00  0.00    -0.002 C 
HETATM    6  C6  UNL     1     124.553 106.992 -41.827  1.00  0.00    -0.009 C 
BRANCH   6   7
HETATM    7  C7  UNL     1     124.200 108.106 -42.748  1.00  0.00     0.093 C 
HETATM    8  C8  UNL     1     123.021 108.811 -42.500  1.00  0.00    -0.173 C 
HETATM    9  C9  UNL     1     121.831 109.504 -42.215  1.00  0.00     0.084 C 
HETATM   10  C10 UNL     1     120.925 109.255 -43.475  1.00  0.00     0.039 C 
HETATM   11  C11 UNL     1     121.287 108.027 -44.205  1.00  0.00    -0.019 C 
HETATM   12  C12 UNL     1     122.576 107.590 -44.638  1.00  0.00    -0.055 C 
HETATM   13  C13 UNL     1     122.595 107.069 -45.891  1.00  0.00     0.019 C 
HETATM   14  C14 UNL     1     124.021 107.478 -44.175  1.00  0.00     0.137 C 
BRANCH  14  15
HETATM   15  C15 UNL     1     124.854 108.284 -45.112  1.00  0.00     0.183 C 
HETATM   16  O1  UNL     1     125.888 107.804 -45.636  1.00  0.00    -0.647 OA
HETATM   17  O2  UNL     1     124.483 109.588 -45.411  1.00  0.00    -0.647 OA
ENDBRANCH  14  15
ENDBRANCH   6   7
ENDBRANCH   4   5
TORSDOF 3
ENDMDL
MODEL 2
REMARK VINA RESULT: -5.781803751      1.048      1.566
REMARK  3 active torsions:
REMARK  status: ('A' for Active; 'I' for Inactive)
REMARK    1  A    between atoms: C4_4  and  C5_5 
REMARK    2  A    between atoms: C6_6  and  C7_7 
REMARK    3  A    between atoms: C14_14  and  C15_15 
ROOT
HETATM    1  C1  UNL     1     124.782 102.958 -44.076  1.00  0.00     0.017 C 
HETATM    2  C2  UNL     1     124.979 103.242 -42.919  1.00  0.00    -0.089 C 
HETATM    3  C3  UNL     1     125.223 103.560 -41.540  1.00  0.00     0.063 C 
HETATM    4  C4  UNL     1     125.100 104.798 -41.087  1.00  0.00     0.009 C 
ENDROOT
BRANCH   4   5
HETATM    5  C5  UNL     1     124.718 105.892 -41.940  1.00  0.00    -0.002 C 
HETATM    6  C6  UNL     1     125.070 107.126 -41.728  1.00  0.00    -0.009 C 
BRANCH   6   7
HETATM    7  C7  UNL     1     124.697 108.283 -42.587  1.00  0.00     0.093 C 
HETATM    8  C8  UNL     1     124.304 109.465 -41.956  1.00  0.00    -0.173 C 
HETATM    9  C9  UNL     1     123.922 110.641 -41.288  1.00  0.00     0.084 C 
HETATM   10  C10 UNL     1     122.432 110.873 -41.730  1.00  0.00     0.039 C 
HETATM   11  C11 UNL     1     121.762 109.630 -42.153  1.00  0.00    -0.019 C 
HETATM   12  C12 UNL     1     122.222 108.633 -43.066  1.00  0.00    -0.055 C 
HETATM   13  C13 UNL     1     121.271 108.180 -43.922  1.00  0.00     0.019 C 
HETATM   14  C14 UNL     1     123.461 107.834 -43.444  1.00  0.00     0.137 C 
BRANCH  14  15
HETATM   15  C15 UNL     1     123.781 108.150 -44.865  1.00  0.00     0.183 C 
HETATM   16  O1  UNL     1     124.039 107.241 -45.689  1.00  0.00    -0.647 OA
HETATM   17  O2  UNL     1     123.794 109.473 -45.287  1.00  0.00    -0.647 OA
ENDBRANCH  14  15
ENDBRANCH   6   7
ENDBRANCH   4   5
TORSDOF 3
ENDMDL
MODEL 3
REMARK VINA RESULT: -5.483047234      1.412      2.773
REMARK  3 active torsions:
REMARK  status: ('A' for Active; 'I' for Inactive)
REMARK    1  A    between atoms: C4_4  and  C5_5 
REMARK    2  A    between atoms: C6_6  and  C7_7 
REMARK    3  A    between atoms: C14_14  and  C15_15 
ROOT
HETATM    1  C1  UNL     1     126.285 103.019 -41.522  1.00  0.00     0.017 C 
HETATM    2  C2  UNL     1     125.741 102.621 -42.524  1.00  0.00    -0.089 C 
HETATM    3  C3  UNL     1     125.092 102.128 -43.706  1.00  0.00     0.063 C 
HETATM    4  C4  UNL     1     124.654 102.951 -44.646  1.00  0.00     0.009 C 
ENDROOT
BRANCH   4   5
HETATM    5  C5  UNL     1     124.798 104.380 -44.541  1.00  0.00    -0.002 C 
HETATM    6  C6  UNL     1     124.092 105.226 -45.231  1.00  0.00    -0.009 C 
BRANCH   6   7
HETATM    7  C7  UNL     1     124.211 106.707 -45.150  1.00  0.00     0.093 C 
HETATM    8  C8  UNL     1     124.672 107.262 -43.955  1.00  0.00    -0.173 C 
HETATM    9  C9  UNL     1     125.147 107.786 -42.740  1.00  0.00     0.084 C 
HETATM   10  C10 UNL     1     123.960 108.663 -42.203  1.00  0.00     0.039 C 
HETATM   11  C11 UNL     1     122.652 108.241 -42.735  1.00  0.00    -0.019 C 
HETATM   12  C12 UNL     1     122.278 107.978 -44.088  1.00  0.00    -0.055 C 
HETATM   13  C13 UNL     1     121.066 108.477 -44.438  1.00  0.00     0.019 C 
HETATM   14  C14 UNL     1     122.768 107.291 -45.354  1.00  0.00     0.137 C 
BRANCH  14  15
HETATM   15  C15 UNL     1     122.868 108.332 -46.417  1.00  0.00     0.183 C 
HETATM   16  O1  UNL     1     122.450 108.112 -47.579  1.00  0.00    -0.647 OA
HETATM   17  O2  UNL     1     123.432 109.565 -46.119  1.00  0.00    -0.647 OA
ENDBRANCH  14  15
ENDBRANCH   6   7
ENDBRANCH   4   5
TORSDOF 3
ENDMDL
MODEL 4
REMARK VINA RESULT: -5.445334545      1.948      3.373
REMARK  3 active torsions:
REMARK  status: ('A' for Active; 'I' for Inactive)
REMARK    1  A    between atoms: C4_4  and  C5_5 
REMARK    2  A    between atoms: C6_6  and  C7_7 
REMARK    3  A    between atoms: C14_14  and  C15_15 
ROOT
HETATM    1  C1  UNL     1     124.535 101.264 -47.131  1.00  0.00     0.017 C 
HETATM    2  C2  UNL     1     124.714 101.449 -45.951  1.00  0.00    -0.089 C 
HETATM    3  C3  UNL     1     124.935 101.648 -44.547  1.00  0.00     0.063 C 
HETATM    4  C4  UNL     1     124.927 102.860 -44.013  1.00  0.00     0.009 C 
ENDROOT
BRANCH   4   5
HETATM    5  C5  UNL     1     124.700 104.043 -44.801  1.00  0.00    -0.002 C 
HETATM    6  C6  UNL     1     124.711 105.247 -44.310  1.00  0.00    -0.009 C 
BRANCH   6   7
HETATM    7  C7  UNL     1     124.483 106.493 -45.091  1.00  0.00     0.093 C 
HETATM    8  C8  UNL     1     125.379 107.548 -44.915  1.00  0.00    -0.173 C 
HETATM    9  C9  UNL     1     126.306 108.587 -44.721  1.00  0.00     0.084 C 
HETATM   10  C10 UNL     1     125.451 109.766 -44.130  1.00  0.00     0.039 C 
HETATM   11  C11 UNL     1     124.224 109.300 -43.458  1.00  0.00    -0.019 C 
HETATM   12  C12 UNL     1     123.236 108.386 -43.933  1.00  0.00    -0.055 C 
HETATM   13  C13 UNL     1     121.958 108.765 -43.679  1.00  0.00     0.019 C 
HETATM   14  C14 UNL     1     123.083 107.054 -44.653  1.00  0.00     0.137 C 
BRANCH  14  15
HETATM   15  C15 UNL     1     122.308 107.307 -45.901  1.00  0.00     0.183 C 
HETATM   16  O1  UNL     1     121.213 106.733 -46.111  1.00  0.00    -0.647 OA
HETATM   17  O2  UNL     1     122.803 108.193 -46.849  1.00  0.00    -0.647 OA
ENDBRANCH  14  15
ENDBRANCH   6   7
ENDBRANCH   4   5
TORSDOF 3
ENDMDL
MODEL 5
REMARK VINA RESULT: -5.331286680      1.640      3.363
REMARK  3 active torsions:
REMARK  status: ('A' for Active; 'I' for Inactive)
REMARK    1  A    between atoms: C4_4  and  C5_5 
REMARK    2  A    between atoms: C6_6  and  C7_7 
REMARK    3  A    between atoms: C14_14  and  C15_15 
ROOT
HETATM    1  C1  UNL     1     124.938 104.129 -41.544  1.00  0.00     0.017 C 
HETATM    2  C2  UNL     1     124.842 103.594 -42.623  1.00  0.00    -0.089 C 
HETATM    3  C3  UNL     1     124.725 102.939 -43.894  1.00  0.00     0.063 C 
HETATM    4  C4  UNL     1     124.636 103.631 -45.020  1.00  0.00     0.009 C 
ENDROOT
BRANCH   4   5
HETATM    5  C5  UNL     1     124.650 105.070 -45.038  1.00  0.00    -0.002 C 
HETATM    6  C6  UNL     1     123.602 105.796 -45.291  1.00  0.00    -0.009 C 
BRANCH   6   7
HETATM    7  C7  UNL     1     123.576 107.283 -45.318  1.00  0.00     0.093 C 
HETATM    8  C8  UNL     1     124.706 107.965 -44.863  1.00  0.00    -0.173 C 
HETATM    9  C9  UNL     1     125.863 108.619 -44.406  1.00  0.00     0.084 C 
HETATM   10  C10 UNL     1     125.379 109.441 -43.157  1.00  0.00     0.039 C 
HETATM   11  C11 UNL     1     124.166 108.876 -42.537  1.00  0.00    -0.019 C 
HETATM   12  C12 UNL     1     122.945 108.480 -43.162  1.00  0.00    -0.055 C 
HETATM   13  C13 UNL     1     121.828 108.852 -42.487  1.00  0.00     0.019 C 
HETATM   14  C14 UNL     1     122.405 107.735 -44.374  1.00  0.00     0.137 C 
BRANCH  14  15
HETATM   15  C15 UNL     1     121.567 108.693 -45.150  1.00  0.00     0.183 C 
HETATM   16  O1  UNL     1     120.392 108.404 -45.481  1.00  0.00    -0.647 OA
HETATM   17  O2  UNL     1     122.092 109.925 -45.514  1.00  0.00    -0.647 OA
ENDBRANCH  14  15
ENDBRANCH   6   7
ENDBRANCH   4   5
TORSDOF 3
ENDMDL
