MODEL 1
REMARK VINA RESULT: -4.809692288      0.000      0.000
REMARK  3 active torsions:
REMARK  status: ('A' for Active; 'I' for Inactive)
REMARK    1  A    between atoms: C1_2  and  C2_4 
REMARK    2  A    between atoms: C2_4  and  C3_5 
REMARK    3  A    between atoms: C11_13  and  C12_14 
ROOT
HETATM    1  C3  UNL     1     124.468 107.340 -44.508  1.00  0.00    -0.028 C 
HETATM    2  C4  UNL     1     125.183 108.611 -44.786  1.00  0.00     0.015 C 
HETATM    3  C5  UNL     1     124.310 109.781 -44.373  1.00  0.00    -0.013 C 
HETATM    4  C6  UNL     1     123.018 109.771 -45.128  1.00  0.00     0.009 C 
HETATM    5  C7  UNL     1     122.285 108.484 -44.806  1.00  0.00    -0.013 C 
HETATM    6  C8  UNL     1     122.000 108.372 -43.328  1.00  0.00     0.010 C 
HETATM    7  C9  UNL     1     123.328 108.385 -42.577  1.00  0.00    -0.009 C 
HETATM    8  C10 UNL     1     124.096 109.634 -42.871  1.00  0.00     0.010 C 
HETATM    9  C11 UNL     1     124.076 107.158 -43.050  1.00  0.00     0.003 C 
HETATM   10  C15 UNL     1     123.153 107.349 -45.293  1.00  0.00     0.015 C 
ENDROOT
BRANCH   1  11
HETATM   11  C2  UNL     1     125.232 106.122 -44.958  1.00  0.00     0.109 C 
BRANCH  11  12
HETATM   12  C1  UNL     1     124.364 104.954 -45.225  1.00  0.00     0.231 C 
HETATM   13  N1  UNL     1     123.662 104.825 -46.457  1.00  0.00    -0.062 NA
HETATM   14  O1  UNL     1     124.205 104.027 -44.391  1.00  0.00    -0.277 OA
ENDBRANCH  11  12
ENDBRANCH   1  11
BRANCH   9  15
HETATM   15  C12 UNL     1     125.211 106.770 -42.191  1.00  0.00    -0.009 A 
HETATM   16  C13 UNL     1     125.255 106.888 -40.742  1.00  0.00     0.005 A 
HETATM   17  C14 UNL     1     124.962 105.560 -41.289  1.00  0.00     0.005 A 
ENDBRANCH   9  15
TORSDOF 3
ENDMDL
MODEL 2
REMARK VINA RESULT: -4.745402677      2.621      3.834
REMARK  3 active torsions:
REMARK  status: ('A' for Active; 'I' for Inactive)
REMARK    1  A    between atoms: C1_2  and  C2_4 
REMARK    2  A    between atoms: C2_4  and  C3_5 
REMARK    3  A    between atoms: C11_13  and  C12_14 
ROOT
HETATM    1  C3  UNL     1     124.983 108.913 -44.617  1.00  0.00    -0.028 C 
HETATM    2  C4  UNL     1     123.671 109.054 -45.297  1.00  0.00     0.015 C 
HETATM    3  C5  UNL     1     122.740 107.950 -44.830  1.00  0.00    -0.013 C 
HETATM    4  C6  UNL     1     123.313 106.605 -45.147  1.00  0.00     0.009 C 
HETATM    5  C7  UNL     1     124.634 106.464 -44.417  1.00  0.00    -0.013 C 
HETATM    6  C8  UNL     1     124.450 106.589 -42.924  1.00  0.00     0.010 C 
HETATM    7  C9  UNL     1     123.865 107.966 -42.624  1.00  0.00    -0.009 C 
HETATM    8  C10 UNL     1     122.562 108.159 -43.331  1.00  0.00     0.010 C 
HETATM    9  C11 UNL     1     124.899 108.962 -43.099  1.00  0.00     0.003 C 
HETATM   10  C15 UNL     1     125.552 107.533 -44.957  1.00  0.00     0.015 C 
ENDROOT
BRANCH   1  11
HETATM   11  C2  UNL     1     125.997 109.926 -45.077  1.00  0.00     0.109 C 
BRANCH  11  12
HETATM   12  C1  UNL     1     125.874 110.266 -46.512  1.00  0.00     0.231 C 
HETATM   13  N1  UNL     1     125.329 111.514 -46.928  1.00  0.00    -0.062 NA
HETATM   14  O1  UNL     1     126.239 109.483 -47.424  1.00  0.00    -0.277 OA
ENDBRANCH  11  12
ENDBRANCH   1  11
BRANCH   9  15
HETATM   15  C12 UNL     1     124.713 110.328 -42.574  1.00  0.00    -0.009 A 
HETATM   16  C13 UNL     1     124.264 110.665 -41.233  1.00  0.00     0.005 A 
HETATM   17  C14 UNL     1     125.705 110.750 -41.488  1.00  0.00     0.005 A 
ENDBRANCH   9  15
TORSDOF 3
ENDMDL
MODEL 3
REMARK VINA RESULT: -4.724808886      2.019      3.694
REMARK  3 active torsions:
REMARK  status: ('A' for Active; 'I' for Inactive)
REMARK    1  A    between atoms: C1_2  and  C2_4 
REMARK    2  A    between atoms: C2_4  and  C3_5 
REMARK    3  A    between atoms: C11_13  and  C12_14 
ROOT
HETATM    1  C3  UNL     1     124.601 108.980 -42.821  1.00  0.00    -0.028 C 
HETATM    2  C4  UNL     1     125.102 108.994 -41.424  1.00  0.00     0.015 C 
HETATM    3  C5  UNL     1     125.176 110.426 -40.929  1.00  0.00    -0.013 C 
HETATM    4  C6  UNL     1     126.097 111.236 -41.786  1.00  0.00     0.009 C 
HETATM    5  C7  UNL     1     125.552 111.241 -43.201  1.00  0.00    -0.013 C 
HETATM    6  C8  UNL     1     124.168 111.840 -43.252  1.00  0.00     0.010 C 
HETATM    7  C9  UNL     1     123.246 111.001 -42.372  1.00  0.00    -0.009 C 
HETATM    8  C10 UNL     1     123.747 110.956 -40.963  1.00  0.00     0.010 C 
HETATM    9  C11 UNL     1     123.233 109.622 -42.993  1.00  0.00     0.003 C 
HETATM   10  C15 UNL     1     125.559 109.810 -43.680  1.00  0.00     0.015 C 
ENDROOT
BRANCH   1  11
HETATM   11  C2  UNL     1     124.565 107.600 -43.422  1.00  0.00     0.109 C 
BRANCH  11  12
HETATM   12  C1  UNL     1     124.782 107.594 -44.886  1.00  0.00     0.231 C 
HETATM   13  N1  UNL     1     123.692 107.741 -45.791  1.00  0.00    -0.062 NA
HETATM   14  O1  UNL     1     125.921 107.462 -45.398  1.00  0.00    -0.277 OA
ENDBRANCH  11  12
ENDBRANCH   1  11
BRANCH   9  15
HETATM   15  C12 UNL     1     122.128 108.759 -42.532  1.00  0.00    -0.009 A 
HETATM   16  C13 UNL     1     120.773 109.201 -42.244  1.00  0.00     0.005 A 
HETATM   17  C14 UNL     1     120.996 108.554 -43.541  1.00  0.00     0.005 A 
ENDBRANCH   9  15
TORSDOF 3
ENDMDL
MODEL 4
REMARK VINA RESULT: -4.704517413      2.458      3.014
REMARK  3 active torsions:
REMARK  status: ('A' for Active; 'I' for Inactive)
REMARK    1  A    between atoms: C1_2  and  C2_4 
REMARK    2  A    between atoms: C2_4  and  C3_5 
REMARK    3  A    between atoms: C11_13  and  C12_14 
ROOT
HETATM    1  C3  UNL     1     124.027 109.302 -43.677  1.00  0.00    -0.028 C 
HETATM    2  C4  UNL     1     123.655 110.406 -44.597  1.00  0.00     0.015 C 
HETATM    3  C5  UNL     1     122.183 110.733 -44.423  1.00  0.00    -0.013 C 
HETATM    4  C6  UNL     1     121.335 109.538 -44.725  1.00  0.00     0.009 C 
HETATM    5  C7  UNL     1     121.703 108.433 -43.755  1.00  0.00    -0.013 C 
HETATM    6  C8  UNL     1     121.472 108.860 -42.327  1.00  0.00     0.010 C 
HETATM    7  C9  UNL     1     122.343 110.079 -42.039  1.00  0.00    -0.009 C 
HETATM    8  C10 UNL     1     122.026 111.197 -42.980  1.00  0.00     0.010 C 
HETATM    9  C11 UNL     1     123.771 109.609 -42.210  1.00  0.00     0.003 C 
HETATM   10  C15 UNL     1     123.151 108.090 -44.006  1.00  0.00     0.015 C 
ENDROOT
BRANCH   1  11
HETATM   11  C2  UNL     1     125.457 108.859 -43.835  1.00  0.00     0.109 C 
BRANCH  11  12
HETATM   12  C1  UNL     1     125.751 108.300 -45.174  1.00  0.00     0.231 C 
HETATM   13  N1  UNL     1     126.059 109.150 -46.274  1.00  0.00    -0.062 NA
HETATM   14  O1  UNL     1     125.745 107.065 -45.405  1.00  0.00    -0.277 OA
ENDBRANCH  11  12
ENDBRANCH   1  11
BRANCH   9  15
HETATM   15  C12 UNL     1     124.781 110.509 -41.623  1.00  0.00    -0.009 A 
HETATM   16  C13 UNL     1     124.681 111.165 -40.329  1.00  0.00     0.005 A 
HETATM   17  C14 UNL     1     125.512 109.960 -40.396  1.00  0.00     0.005 A 
ENDBRANCH   9  15
TORSDOF 3
ENDMDL
MODEL 5
REMARK VINA RESULT: -4.625712154      2.137      3.610
REMARK  3 active torsions:
REMARK  status: ('A' for Active; 'I' for Inactive)
REMARK    1  A    between atoms: C1_2  and  C2_4 
REMARK    2  A    between atoms: C2_4  and  C3_5 
REMARK    3  A    between atoms: C11_13  and  C12_14 
ROOT
HETATM    1  C3  UNL     1     124.503 107.675 -43.356  1.00  0.00    -0.028 C 
HETATM    2  C4  UNL     1     123.270 107.923 -42.566  1.00  0.00     0.015 C 
HETATM    3  C5  UNL     1     122.399 108.930 -43.295  1.00  0.00    -0.013 C 
HETATM    4  C6  UNL     1     123.129 110.223 -43.482  1.00  0.00     0.009 C 
HETATM    5  C7  UNL     1     124.364 109.959 -44.318  1.00  0.00    -0.013 C 
HETATM    6  C8  UNL     1     124.000 109.392 -45.668  1.00  0.00     0.010 C 
HETATM    7  C9  UNL     1     123.257 108.076 -45.456  1.00  0.00    -0.009 C 
HETATM    8  C10 UNL     1     122.032 108.282 -44.625  1.00  0.00     0.010 C 
HETATM    9  C11 UNL     1     124.241 107.160 -44.763  1.00  0.00     0.003 C 
HETATM   10  C15 UNL     1     125.234 109.008 -43.531  1.00  0.00     0.015 C 
ENDROOT
BRANCH   1  11
HETATM   11  C2  UNL     1     125.464 106.740 -42.670  1.00  0.00     0.109 C 
BRANCH  11  12
HETATM   12  C1  UNL     1     125.236 106.634 -41.212  1.00  0.00     0.231 C 
HETATM   13  N1  UNL     1     125.782 107.592 -40.311  1.00  0.00    -0.062 NA
HETATM   14  O1  UNL     1     124.557 105.708 -40.701  1.00  0.00    -0.277 OA
ENDBRANCH  11  12
ENDBRANCH   1  11
BRANCH   9  15
HETATM   15  C12 UNL     1     123.869 105.733 -44.796  1.00  0.00    -0.009 A 
HETATM   16  C13 UNL     1     123.437 104.998 -45.974  1.00  0.00     0.005 A 
HETATM   17  C14 UNL     1     124.833 104.825 -45.562  1.00  0.00     0.005 A 
ENDBRANCH   9  15
TORSDOF 3
ENDMDL
