MODEL 1
REMARK VINA RESULT: -5.262430701      0.000      0.000
REMARK  3 active torsions:
REMARK  status: ('A' for Active; 'I' for Inactive)
REMARK    1  A    between atoms: C2_2  and  C3_3 
REMARK    2  A    between atoms: C2_2  and  C7_7 
REMARK    3  A    between atoms: C12_12  and  C13_13 
ROOT
HETATM    1  C7  UNL     1     123.681 106.780 -44.185  1.00  0.00     0.024 C 
HETATM    2  C8  UNL     1     123.053 108.128 -44.543  1.00  0.00    -0.004 C 
HETATM    3  C9  UNL     1     124.017 108.648 -45.552  1.00  0.00     0.010 C 
HETATM    4  C10 UNL     1     125.357 108.264 -44.953  1.00  0.00    -0.007 C 
HETATM    5  C11 UNL     1     125.716 109.270 -43.869  1.00  0.00     0.024 C 
HETATM    6  C12 UNL     1     124.764 108.490 -42.985  1.00  0.00     0.044 C 
HETATM    7  C14 UNL     1     123.321 108.857 -43.233  1.00  0.00     0.024 C 
HETATM    8  C15 UNL     1     125.045 107.281 -43.849  1.00  0.00     0.015 C 
ENDROOT
BRANCH   1   9
HETATM    9  C2  UNL     1     123.611 105.795 -45.281  1.00  0.00    -0.080 C 
HETATM   10  C1  UNL     1     122.683 105.869 -46.215  1.00  0.00     0.015 C 
BRANCH   9  11
HETATM   11  C3  UNL     1     124.588 104.662 -45.380  1.00  0.00     0.014 C 
HETATM   12  C4  UNL     1     124.499 103.653 -44.251  1.00  0.00     0.009 C 
HETATM   13  C5  UNL     1     124.838 102.590 -45.308  1.00  0.00     0.001 C 
HETATM   14  C6  UNL     1     124.159 103.542 -46.304  1.00  0.00     0.009 C 
ENDBRANCH   9  11
ENDBRANCH   1   9
BRANCH   6  15
HETATM   15  C13 UNL     1     125.216 108.447 -41.612  1.00  0.00     0.240 C 
HETATM   16  N1  UNL     1     125.558 107.201 -41.029  1.00  0.00    -0.061 NA
HETATM   17  O1  UNL     1     125.334 109.465 -40.873  1.00  0.00    -0.276 OA
ENDBRANCH   6  15
TORSDOF 3
ENDMDL
MODEL 2
REMARK VINA RESULT: -5.089305142      1.902      2.482
REMARK  3 active torsions:
REMARK  status: ('A' for Active; 'I' for Inactive)
REMARK    1  A    between atoms: C2_2  and  C3_3 
REMARK    2  A    between atoms: C2_2  and  C7_7 
REMARK    3  A    between atoms: C12_12  and  C13_13 
ROOT
HETATM    1  C7  UNL     1     123.709 107.098 -43.681  1.00  0.00     0.024 C 
HETATM    2  C8  UNL     1     124.280 108.131 -44.655  1.00  0.00    -0.004 C 
HETATM    3  C9  UNL     1     125.576 108.470 -44.004  1.00  0.00     0.010 C 
HETATM    4  C10 UNL     1     125.198 108.538 -42.536  1.00  0.00    -0.007 C 
HETATM    5  C11 UNL     1     124.536 109.881 -42.262  1.00  0.00     0.024 C 
HETATM    6  C12 UNL     1     123.288 109.262 -42.859  1.00  0.00     0.044 C 
HETATM    7  C14 UNL     1     123.310 109.270 -44.368  1.00  0.00     0.024 C 
HETATM    8  C15 UNL     1     123.826 107.913 -42.437  1.00  0.00     0.015 C 
ENDROOT
BRANCH   1   9
HETATM    9  C2  UNL     1     124.451 105.823 -43.684  1.00  0.00    -0.080 C 
HETATM   10  C1  UNL     1     124.860 105.262 -42.563  1.00  0.00     0.015 C 
BRANCH   9  11
HETATM   11  C3  UNL     1     124.778 105.109 -44.961  1.00  0.00     0.014 C 
HETATM   12  C4  UNL     1     124.812 103.597 -44.848  1.00  0.00     0.009 C 
HETATM   13  C5  UNL     1     124.230 103.576 -46.269  1.00  0.00     0.001 C 
HETATM   14  C6  UNL     1     123.603 104.929 -45.899  1.00  0.00     0.009 C 
ENDBRANCH   9  11
ENDBRANCH   1   9
BRANCH   6  15
HETATM   15  C13 UNL     1     122.086 109.733 -42.206  1.00  0.00     0.240 C 
HETATM   16  N1  UNL     1     120.842 109.129 -42.513  1.00  0.00    -0.061 NA
HETATM   17  O1  UNL     1     122.064 110.669 -41.357  1.00  0.00    -0.276 OA
ENDBRANCH   6  15
TORSDOF 3
ENDMDL
MODEL 3
REMARK VINA RESULT: -5.074591146      2.827      4.295
REMARK  3 active torsions:
REMARK  status: ('A' for Active; 'I' for Inactive)
REMARK    1  A    between atoms: C2_2  and  C3_3 
REMARK    2  A    between atoms: C2_2  and  C7_7 
REMARK    3  A    between atoms: C12_12  and  C13_13 
ROOT
HETATM    1  C7  UNL     1     122.404 108.971 -42.292  1.00  0.00     0.024 C 
HETATM    2  C8  UNL     1     123.431 110.070 -42.564  1.00  0.00    -0.004 C 
HETATM    3  C9  UNL     1     123.648 109.920 -44.030  1.00  0.00     0.010 C 
HETATM    4  C10 UNL     1     123.682 108.414 -44.204  1.00  0.00    -0.007 C 
HETATM    5  C11 UNL     1     125.057 107.904 -43.796  1.00  0.00     0.024 C 
HETATM    6  C12 UNL     1     124.556 108.025 -42.371  1.00  0.00     0.044 C 
HETATM    7  C14 UNL     1     124.625 109.442 -41.857  1.00  0.00     0.024 C 
HETATM    8  C15 UNL     1     123.155 107.840 -42.909  1.00  0.00     0.015 C 
ENDROOT
BRANCH   1   9
HETATM    9  C2  UNL     1     121.078 109.254 -42.876  1.00  0.00    -0.080 C 
HETATM   10  C1  UNL     1     120.469 110.406 -42.672  1.00  0.00     0.015 C 
BRANCH   9  11
HETATM   11  C3  UNL     1     120.362 108.244 -43.721  1.00  0.00     0.014 C 
HETATM   12  C4  UNL     1     118.868 108.159 -43.471  1.00  0.00     0.009 C 
HETATM   13  C5  UNL     1     118.731 107.894 -44.978  1.00  0.00     0.001 C 
HETATM   14  C6  UNL     1     120.017 108.724 -45.115  1.00  0.00     0.009 C 
ENDBRANCH   9  11
ENDBRANCH   1   9
BRANCH   6  15
HETATM   15  C13 UNL     1     125.087 106.979 -41.522  1.00  0.00     0.240 C 
HETATM   16  N1  UNL     1     125.845 107.328 -40.377  1.00  0.00    -0.061 NA
HETATM   17  O1  UNL     1     124.918 105.745 -41.733  1.00  0.00    -0.276 OA
ENDBRANCH   6  15
TORSDOF 3
ENDMDL
MODEL 4
REMARK VINA RESULT: -4.872235336      2.420      3.409
REMARK  3 active torsions:
REMARK  status: ('A' for Active; 'I' for Inactive)
REMARK    1  A    between atoms: C2_2  and  C3_3 
REMARK    2  A    between atoms: C2_2  and  C7_7 
REMARK    3  A    between atoms: C12_12  and  C13_13 
ROOT
HETATM    1  C7  UNL     1     124.984 107.135 -43.460  1.00  0.00     0.024 C 
HETATM    2  C8  UNL     1     124.749 108.384 -42.608  1.00  0.00    -0.004 C 
HETATM    3  C9  UNL     1     123.273 108.342 -42.418  1.00  0.00     0.010 C 
HETATM    4  C10 UNL     1     122.777 107.923 -43.789  1.00  0.00    -0.007 C 
HETATM    5  C11 UNL     1     122.776 109.140 -44.703  1.00  0.00     0.024 C 
HETATM    6  C12 UNL     1     124.266 108.899 -44.842  1.00  0.00     0.044 C 
HETATM    7  C14 UNL     1     125.045 109.438 -43.667  1.00  0.00     0.024 C 
HETATM    8  C15 UNL     1     123.998 107.442 -44.536  1.00  0.00     0.015 C 
ENDROOT
BRANCH   1   9
HETATM    9  C2  UNL     1     124.758 105.877 -42.723  1.00  0.00    -0.080 C 
HETATM   10  C1  UNL     1     124.961 105.795 -41.423  1.00  0.00     0.015 C 
BRANCH   9  11
HETATM   11  C3  UNL     1     124.294 104.633 -43.420  1.00  0.00     0.014 C 
HETATM   12  C4  UNL     1     125.127 104.238 -44.625  1.00  0.00     0.009 C 
HETATM   13  C5  UNL     1     124.862 102.783 -44.206  1.00  0.00     0.001 C 
HETATM   14  C6  UNL     1     124.760 103.344 -42.779  1.00  0.00     0.009 C 
ENDBRANCH   9  11
ENDBRANCH   1   9
BRANCH   6  15
HETATM   15  C13 UNL     1     124.744 109.225 -46.168  1.00  0.00     0.240 C 
HETATM   16  N1  UNL     1     126.137 109.336 -46.399  1.00  0.00    -0.061 NA
HETATM   17  O1  UNL     1     123.990 109.422 -47.162  1.00  0.00    -0.276 OA
ENDBRANCH   6  15
TORSDOF 3
ENDMDL
MODEL 5
REMARK VINA RESULT: -4.854646953      3.246      6.283
REMARK  3 active torsions:
REMARK  status: ('A' for Active; 'I' for Inactive)
REMARK    1  A    between atoms: C2_2  and  C3_3 
REMARK    2  A    between atoms: C2_2  and  C7_7 
REMARK    3  A    between atoms: C12_12  and  C13_13 
ROOT
HETATM    1  C7  UNL     1     125.282 110.128 -42.466  1.00  0.00     0.024 C 
HETATM    2  C8  UNL     1     124.015 110.749 -43.056  1.00  0.00    -0.004 C 
HETATM    3  C9  UNL     1     122.958 109.867 -42.488  1.00  0.00     0.010 C 
HETATM    4  C10 UNL     1     123.581 108.490 -42.607  1.00  0.00    -0.007 C 
HETATM    5  C11 UNL     1     123.426 108.003 -44.041  1.00  0.00     0.024 C 
HETATM    6  C12 UNL     1     124.613 108.892 -44.353  1.00  0.00     0.044 C 
HETATM    7  C14 UNL     1     124.220 110.340 -44.509  1.00  0.00     0.024 C 
HETATM    8  C15 UNL     1     125.041 108.725 -42.912  1.00  0.00     0.015 C 
ENDROOT
BRANCH   1   9
HETATM    9  C2  UNL     1     125.404 110.326 -41.009  1.00  0.00    -0.080 C 
HETATM   10  C1  UNL     1     125.763 109.342 -40.209  1.00  0.00     0.015 C 
BRANCH   9  11
HETATM   11  C3  UNL     1     125.118 111.653 -40.372  1.00  0.00     0.014 C 
HETATM   12  C4  UNL     1     123.960 111.645 -39.392  1.00  0.00     0.009 C 
HETATM   13  C5  UNL     1     124.773 112.665 -38.578  1.00  0.00     0.001 C 
HETATM   14  C6  UNL     1     126.006 111.986 -39.192  1.00  0.00     0.009 C 
ENDBRANCH   9  11
ENDBRANCH   1   9
BRANCH   6  15
HETATM   15  C13 UNL     1     125.464 108.316 -45.371  1.00  0.00     0.240 C 
HETATM   16  N1  UNL     1     125.989 109.147 -46.393  1.00  0.00    -0.061 NA
HETATM   17  O1  UNL     1     125.784 107.095 -45.418  1.00  0.00    -0.276 OA
ENDBRANCH   6  15
TORSDOF 3
ENDMDL
