MODEL 1
REMARK VINA RESULT: -5.612146048      0.000      0.000
REMARK  3 active torsions:
REMARK  status: ('A' for Active; 'I' for Inactive)
REMARK       I    between atoms: C1_2  and  N1_3 
REMARK    1  A    between atoms: C1_2  and  C13_16 
REMARK    2  A    between atoms: N1_3  and  C2_5 
REMARK    3  A    between atoms: C2_5  and  C3_6 
ROOT
HETATM    1  C3  UNL     1     124.290 106.895 -44.491  1.00  0.00    -0.007 C 
HETATM    2  C4  UNL     1     125.266 107.869 -45.005  1.00  0.00     0.019 C 
HETATM    3  C5  UNL     1     125.098 109.254 -44.379  1.00  0.00    -0.013 C 
HETATM    4  C6  UNL     1     123.733 109.738 -44.832  1.00  0.00     0.009 C 
HETATM    5  C7  UNL     1     122.669 108.773 -44.409  1.00  0.00    -0.013 C 
HETATM    6  C8  UNL     1     122.649 108.800 -42.875  1.00  0.00     0.009 C 
HETATM    7  C9  UNL     1     124.002 108.327 -42.434  1.00  0.00    -0.013 C 
HETATM    8  C10 UNL     1     125.118 109.243 -42.890  1.00  0.00     0.009 C 
HETATM    9  C11 UNL     1     124.336 106.960 -42.944  1.00  0.00     0.019 C 
HETATM   10  C12 UNL     1     122.878 107.365 -44.836  1.00  0.00     0.019 C 
ENDROOT
BRANCH   1  11
HETATM   11  C2  UNL     1     124.499 105.472 -44.819  1.00  0.00     0.073 C 
BRANCH  11  12
HETATM   12  N1  UNL     1     124.780 104.502 -43.865  1.00  0.00    -0.340 N 
HETATM   13  C1  UNL     1     124.889 103.109 -43.923  1.00  0.00     0.225 C 
HETATM   14  O1  UNL     1     124.743 102.484 -44.983  1.00  0.00    -0.273 OA
ATOM     15  H1  UNL     1     124.938 104.884 -42.933  1.00  0.00     0.167 HD
BRANCH  13  16
HETATM   16  C13 UNL     1     125.189 102.270 -42.715  1.00  0.00     0.078 A 
HETATM   17  C14 UNL     1     125.519 102.904 -41.429  1.00  0.00     0.015 A 
HETATM   18  C15 UNL     1     126.635 102.328 -42.225  1.00  0.00     0.015 A 
ENDBRANCH  13  16
ENDBRANCH  11  12
ENDBRANCH   1  11
TORSDOF 3
ENDMDL
MODEL 2
REMARK VINA RESULT: -5.452005846      0.214      1.812
REMARK  3 active torsions:
REMARK  status: ('A' for Active; 'I' for Inactive)
REMARK       I    between atoms: C1_2  and  N1_3 
REMARK    1  A    between atoms: C1_2  and  C13_16 
REMARK    2  A    between atoms: N1_3  and  C2_5 
REMARK    3  A    between atoms: C2_5  and  C3_6 
ROOT
HETATM    1  C3  UNL     1     124.144 106.955 -44.246  1.00  0.00    -0.007 C 
HETATM    2  C4  UNL     1     122.821 107.493 -44.605  1.00  0.00     0.019 C 
HETATM    3  C5  UNL     1     122.709 108.996 -44.346  1.00  0.00    -0.013 C 
HETATM    4  C6  UNL     1     122.842 109.157 -42.844  1.00  0.00     0.009 C 
HETATM    5  C7  UNL     1     124.138 108.578 -42.368  1.00  0.00    -0.013 C 
HETATM    6  C8  UNL     1     125.248 109.434 -42.994  1.00  0.00     0.009 C 
HETATM    7  C9  UNL     1     125.107 109.275 -44.478  1.00  0.00    -0.013 C 
HETATM    8  C10 UNL     1     123.784 109.796 -44.997  1.00  0.00     0.009 C 
HETATM    9  C11 UNL     1     125.210 107.851 -44.924  1.00  0.00     0.019 C 
HETATM   10  C12 UNL     1     124.385 107.164 -42.753  1.00  0.00     0.019 C 
ENDROOT
BRANCH   1  11
HETATM   11  C2  UNL     1     124.469 105.582 -44.677  1.00  0.00     0.073 C 
BRANCH  11  12
HETATM   12  N1  UNL     1     124.784 104.559 -43.791  1.00  0.00    -0.340 N 
HETATM   13  C1  UNL     1     124.875 103.171 -43.929  1.00  0.00     0.225 C 
HETATM   14  O1  UNL     1     124.672 102.606 -45.013  1.00  0.00    -0.273 OA
ATOM     15  H1  UNL     1     124.990 104.888 -42.848  1.00  0.00     0.167 HD
BRANCH  13  16
HETATM   16  C13 UNL     1     125.223 102.264 -42.785  1.00  0.00     0.078 A 
HETATM   17  C14 UNL     1     125.615 102.824 -41.482  1.00  0.00     0.015 A 
HETATM   18  C15 UNL     1     126.690 102.288 -42.358  1.00  0.00     0.015 A 
ENDBRANCH  13  16
ENDBRANCH  11  12
ENDBRANCH   1  11
TORSDOF 3
ENDMDL
MODEL 3
REMARK VINA RESULT: -5.443778816      0.274      1.776
REMARK  3 active torsions:
REMARK  status: ('A' for Active; 'I' for Inactive)
REMARK       I    between atoms: C1_2  and  N1_3 
REMARK    1  A    between atoms: C1_2  and  C13_16 
REMARK    2  A    between atoms: N1_3  and  C2_5 
REMARK    3  A    between atoms: C2_5  and  C3_6 
ROOT
HETATM    1  C3  UNL     1     124.369 106.976 -44.110  1.00  0.00    -0.007 C 
HETATM    2  C4  UNL     1     124.466 107.277 -42.672  1.00  0.00     0.019 C 
HETATM    3  C5  UNL     1     124.114 108.730 -42.352  1.00  0.00    -0.013 C 
HETATM    4  C6  UNL     1     125.183 109.563 -43.035  1.00  0.00     0.009 C 
HETATM    5  C7  UNL     1     125.207 109.279 -44.505  1.00  0.00    -0.013 C 
HETATM    6  C8  UNL     1     123.860 109.764 -45.060  1.00  0.00     0.009 C 
HETATM    7  C9  UNL     1     122.809 108.942 -44.376  1.00  0.00    -0.013 C 
HETATM    8  C10 UNL     1     122.787 109.154 -42.877  1.00  0.00     0.009 C 
HETATM    9  C11 UNL     1     122.985 107.472 -44.597  1.00  0.00     0.019 C 
HETATM   10  C12 UNL     1     125.361 107.849 -44.876  1.00  0.00     0.019 C 
ENDROOT
BRANCH   1  11
HETATM   11  C2  UNL     1     124.435 105.562 -44.524  1.00  0.00     0.073 C 
BRANCH  11  12
HETATM   12  N1  UNL     1     124.761 104.528 -43.656  1.00  0.00    -0.340 N 
HETATM   13  C1  UNL     1     124.909 103.148 -43.828  1.00  0.00     0.225 C 
HETATM   14  O1  UNL     1     124.763 102.606 -44.933  1.00  0.00    -0.273 OA
ATOM     15  H1  UNL     1     124.925 104.838 -42.698  1.00  0.00     0.167 HD
BRANCH  13  16
HETATM   16  C13 UNL     1     125.256 102.224 -42.697  1.00  0.00     0.078 A 
HETATM   17  C14 UNL     1     125.616 102.763 -41.376  1.00  0.00     0.015 A 
HETATM   18  C15 UNL     1     126.714 102.265 -42.245  1.00  0.00     0.015 A 
ENDBRANCH  13  16
ENDBRANCH  11  12
ENDBRANCH   1  11
TORSDOF 3
ENDMDL
MODEL 4
REMARK VINA RESULT: -5.400001801      1.569      2.675
REMARK  3 active torsions:
REMARK  status: ('A' for Active; 'I' for Inactive)
REMARK       I    between atoms: C1_2  and  N1_3 
REMARK    1  A    between atoms: C1_2  and  C13_16 
REMARK    2  A    between atoms: N1_3  and  C2_5 
REMARK    3  A    between atoms: C2_5  and  C3_6 
ROOT
HETATM    1  C3  UNL     1     124.101 107.762 -42.777  1.00  0.00    -0.007 C 
HETATM    2  C4  UNL     1     122.772 108.337 -42.515  1.00  0.00     0.019 C 
HETATM    3  C5  UNL     1     122.204 109.077 -43.727  1.00  0.00    -0.013 C 
HETATM    4  C6  UNL     1     123.139 110.249 -43.957  1.00  0.00     0.009 C 
HETATM    5  C7  UNL     1     124.540 109.767 -44.172  1.00  0.00    -0.013 C 
HETATM    6  C8  UNL     1     124.524 108.964 -45.480  1.00  0.00     0.009 C 
HETATM    7  C9  UNL     1     123.593 107.811 -45.248  1.00  0.00    -0.013 C 
HETATM    8  C10 UNL     1     122.173 108.255 -44.968  1.00  0.00     0.009 C 
HETATM    9  C11 UNL     1     124.008 106.953 -44.094  1.00  0.00     0.019 C 
HETATM   10  C12 UNL     1     125.082 108.886 -43.105  1.00  0.00     0.019 C 
ENDROOT
BRANCH   1  11
HETATM   11  C2  UNL     1     124.649 106.816 -41.786  1.00  0.00     0.073 C 
BRANCH  11  12
HETATM   12  N1  UNL     1     125.145 105.563 -42.121  1.00  0.00    -0.340 N 
HETATM   13  C1  UNL     1     124.906 104.278 -41.624  1.00  0.00     0.225 C 
HETATM   14  O1  UNL     1     124.100 104.069 -40.706  1.00  0.00    -0.273 OA
ATOM     15  H1  UNL     1     125.821 105.584 -42.885  1.00  0.00     0.167 HD
BRANCH  13  16
HETATM   16  C13 UNL     1     125.603 103.060 -42.159  1.00  0.00     0.078 A 
HETATM   17  C14 UNL     1     125.640 101.816 -41.374  1.00  0.00     0.015 A 
HETATM   18  C15 UNL     1     126.869 102.651 -41.409  1.00  0.00     0.015 A 
ENDBRANCH  13  16
ENDBRANCH  11  12
ENDBRANCH   1  11
TORSDOF 3
ENDMDL
MODEL 5
REMARK VINA RESULT: -5.297868730      1.578      2.261
REMARK  3 active torsions:
REMARK  status: ('A' for Active; 'I' for Inactive)
REMARK       I    between atoms: C1_2  and  N1_3 
REMARK    1  A    between atoms: C1_2  and  C13_16 
REMARK    2  A    between atoms: N1_3  and  C2_5 
REMARK    3  A    between atoms: C2_5  and  C3_6 
ROOT
HETATM    1  C3  UNL     1     124.034 107.652 -43.050  1.00  0.00    -0.007 C 
HETATM    2  C4  UNL     1     123.727 107.067 -44.366  1.00  0.00     0.019 C 
HETATM    3  C5  UNL     1     123.448 108.129 -45.430  1.00  0.00    -0.013 C 
HETATM    4  C6  UNL     1     122.187 108.836 -44.973  1.00  0.00     0.009 C 
HETATM    5  C7  UNL     1     122.379 109.417 -43.606  1.00  0.00    -0.013 C 
HETATM    6  C8  UNL     1     123.456 110.501 -43.746  1.00  0.00     0.009 C 
HETATM    7  C9  UNL     1     124.698 109.796 -44.204  1.00  0.00    -0.013 C 
HETATM    8  C10 UNL     1     124.531 109.143 -45.559  1.00  0.00     0.009 C 
HETATM    9  C11 UNL     1     125.137 108.719 -43.262  1.00  0.00     0.019 C 
HETATM   10  C12 UNL     1     122.832 108.459 -42.564  1.00  0.00     0.019 C 
ENDROOT
BRANCH   1  11
HETATM   11  C2  UNL     1     124.565 106.757 -42.005  1.00  0.00     0.073 C 
BRANCH  11  12
HETATM   12  N1  UNL     1     125.086 105.498 -42.272  1.00  0.00    -0.340 N 
HETATM   13  C1  UNL     1     124.896 104.242 -41.686  1.00  0.00     0.225 C 
HETATM   14  O1  UNL     1     124.121 104.074 -40.734  1.00  0.00    -0.273 OA
ATOM     15  H1  UNL     1     125.740 105.486 -43.054  1.00  0.00     0.167 HD
BRANCH  13  16
HETATM   16  C13 UNL     1     125.611 103.010 -42.161  1.00  0.00     0.078 A 
HETATM   17  C14 UNL     1     125.658 101.804 -41.319  1.00  0.00     0.015 A 
HETATM   18  C15 UNL     1     126.877 102.652 -41.384  1.00  0.00     0.015 A 
ENDBRANCH  13  16
ENDBRANCH  11  12
ENDBRANCH   1  11
TORSDOF 3
ENDMDL
