MODEL 1
REMARK VINA RESULT: -5.568490435      0.000      0.000
REMARK  3 active torsions:
REMARK  status: ('A' for Active; 'I' for Inactive)
REMARK    1  A    between atoms: C2_2  and  C3_3 
REMARK    2  A    between atoms: C3_3  and  N1_4 
REMARK       I    between atoms: N1_4  and  C4_6 
REMARK    3  A    between atoms: C4_6  and  C5_8 
ROOT
HETATM    1  C5  UNL     1     124.330 106.665 -44.472  1.00  0.00     0.042 C 
HETATM    2  C6  UNL     1     125.414 107.515 -45.106  1.00  0.00     0.024 C 
HETATM    3  C7  UNL     1     125.139 108.977 -44.955  1.00  0.00    -0.013 C 
HETATM    4  C8  UNL     1     125.609 109.432 -43.623  1.00  0.00     0.005 C 
HETATM    5  C9  UNL     1     124.644 109.341 -42.516  1.00  0.00     0.005 C 
HETATM    6  C10 UNL     1     123.732 108.155 -42.524  1.00  0.00    -0.013 C 
HETATM    7  C11 UNL     1     122.439 108.472 -43.257  1.00  0.00     0.009 C 
HETATM    8  C12 UNL     1     122.692 108.442 -44.725  1.00  0.00    -0.013 C 
HETATM    9  C13 UNL     1     123.728 109.378 -45.212  1.00  0.00     0.009 C 
HETATM   10  C14 UNL     1     123.035 107.038 -45.124  1.00  0.00     0.024 C 
HETATM   11  C15 UNL     1     124.339 106.889 -42.985  1.00  0.00     0.024 C 
ENDROOT
BRANCH   1  12
HETATM   12  C4  UNL     1     124.631 105.239 -44.743  1.00  0.00     0.226 C 
HETATM   13  N1  UNL     1     124.761 104.272 -43.702  1.00  0.00    -0.357 N 
ATOM     14  H1  UNL     1     124.642 104.574 -42.736  1.00  0.00     0.162 HD
HETATM   15  O1  UNL     1     124.774 104.887 -45.939  1.00  0.00    -0.273 OA
BRANCH  13  16
HETATM   16  C3  UNL     1     125.051 102.898 -43.959  1.00  0.00     0.149 C 
BRANCH  16  17
HETATM   17  C2  UNL     1     126.163 102.363 -43.154  1.00  0.00    -0.018 C 
HETATM   18  C1  UNL     1     126.203 102.592 -41.856  1.00  0.00     0.008 C 
ENDBRANCH  16  17
ENDBRANCH  13  16
ENDBRANCH   1  12
TORSDOF 3
ENDMDL
MODEL 2
REMARK VINA RESULT: -5.508458595      0.408      2.051
REMARK  3 active torsions:
REMARK  status: ('A' for Active; 'I' for Inactive)
REMARK    1  A    between atoms: C2_2  and  C3_3 
REMARK    2  A    between atoms: C3_3  and  N1_4 
REMARK       I    between atoms: N1_4  and  C4_6 
REMARK    3  A    between atoms: C4_6  and  C5_8 
ROOT
HETATM    1  C5  UNL     1     124.394 106.681 -44.486  1.00  0.00     0.042 C 
HETATM    2  C6  UNL     1     124.358 106.848 -42.978  1.00  0.00     0.024 C 
HETATM    3  C7  UNL     1     124.212 108.281 -42.578  1.00  0.00    -0.013 C 
HETATM    4  C8  UNL     1     122.778 108.661 -42.620  1.00  0.00     0.005 C 
HETATM    5  C9  UNL     1     122.269 109.176 -43.901  1.00  0.00     0.005 C 
HETATM    6  C10 UNL     1     122.820 108.544 -45.139  1.00  0.00    -0.013 C 
HETATM    7  C11 UNL     1     124.039 109.301 -45.636  1.00  0.00     0.009 C 
HETATM    8  C12 UNL     1     125.212 108.949 -44.787  1.00  0.00    -0.013 C 
HETATM    9  C13 UNL     1     125.061 109.235 -43.343  1.00  0.00     0.009 C 
HETATM   10  C14 UNL     1     125.538 107.501 -44.995  1.00  0.00     0.024 C 
HETATM   11  C15 UNL     1     123.063 107.089 -45.055  1.00  0.00     0.024 C 
ENDROOT
BRANCH   1  12
HETATM   12  C4  UNL     1     124.629 105.251 -44.796  1.00  0.00     0.226 C 
HETATM   13  N1  UNL     1     124.752 104.256 -43.780  1.00  0.00    -0.357 N 
ATOM     14  H1  UNL     1     124.674 104.541 -42.804  1.00  0.00     0.162 HD
HETATM   15  O1  UNL     1     124.723 104.920 -46.003  1.00  0.00    -0.273 OA
BRANCH  13  16
HETATM   16  C3  UNL     1     124.979 102.878 -44.075  1.00  0.00     0.149 C 
BRANCH  16  17
HETATM   17  C2  UNL     1     126.080 102.277 -43.302  1.00  0.00    -0.018 C 
HETATM   18  C1  UNL     1     126.262 102.623 -42.042  1.00  0.00     0.008 C 
ENDBRANCH  16  17
ENDBRANCH  13  16
ENDBRANCH   1  12
TORSDOF 3
ENDMDL
MODEL 3
REMARK VINA RESULT: -5.383627695      0.433      2.041
REMARK  3 active torsions:
REMARK  status: ('A' for Active; 'I' for Inactive)
REMARK    1  A    between atoms: C2_2  and  C3_3 
REMARK    2  A    between atoms: C3_3  and  N1_4 
REMARK       I    between atoms: N1_4  and  C4_6 
REMARK    3  A    between atoms: C4_6  and  C5_8 
ROOT
HETATM    1  C5  UNL     1     124.335 106.731 -44.323  1.00  0.00     0.042 C 
HETATM    2  C6  UNL     1     122.967 107.085 -44.877  1.00  0.00     0.024 C 
HETATM    3  C7  UNL     1     122.549 108.468 -44.492  1.00  0.00    -0.013 C 
HETATM    4  C8  UNL     1     123.147 109.445 -45.436  1.00  0.00     0.005 C 
HETATM    5  C9  UNL     1     124.478 109.967 -45.089  1.00  0.00     0.005 C 
HETATM    6  C10 UNL     1     125.426 109.004 -44.449  1.00  0.00    -0.013 C 
HETATM    7  C11 UNL     1     125.315 109.060 -42.935  1.00  0.00     0.009 C 
HETATM    8  C12 UNL     1     124.089 108.328 -42.508  1.00  0.00    -0.013 C 
HETATM    9  C13 UNL     1     122.818 108.831 -43.074  1.00  0.00     0.009 C 
HETATM   10  C14 UNL     1     124.260 106.875 -42.835  1.00  0.00     0.024 C 
HETATM   11  C15 UNL     1     125.367 107.619 -44.961  1.00  0.00     0.024 C 
ENDROOT
BRANCH   1  12
HETATM   12  C4  UNL     1     124.634 105.322 -44.673  1.00  0.00     0.226 C 
HETATM   13  N1  UNL     1     124.704 104.287 -43.693  1.00  0.00    -0.357 N 
ATOM     14  H1  UNL     1     124.542 104.527 -42.715  1.00  0.00     0.162 HD
HETATM   15  O1  UNL     1     124.830 105.046 -45.881  1.00  0.00    -0.273 OA
BRANCH  13  16
HETATM   16  C3  UNL     1     124.992 102.929 -44.026  1.00  0.00     0.149 C 
BRANCH  16  17
HETATM   17  C2  UNL     1     126.174 102.384 -43.335  1.00  0.00    -0.018 C 
HETATM   18  C1  UNL     1     126.296 102.528 -42.030  1.00  0.00     0.008 C 
ENDBRANCH  16  17
ENDBRANCH  13  16
ENDBRANCH   1  12
TORSDOF 3
ENDMDL
MODEL 4
REMARK VINA RESULT: -5.327700668      2.076      3.230
REMARK  3 active torsions:
REMARK  status: ('A' for Active; 'I' for Inactive)
REMARK    1  A    between atoms: C2_2  and  C3_3 
REMARK    2  A    between atoms: C3_3  and  N1_4 
REMARK       I    between atoms: N1_4  and  C4_6 
REMARK    3  A    between atoms: C4_6  and  C5_8 
ROOT
HETATM    1  C5  UNL     1     124.786 108.101 -42.425  1.00  0.00     0.042 C 
HETATM    2  C6  UNL     1     123.294 108.146 -42.693  1.00  0.00     0.024 C 
HETATM    3  C7  UNL     1     122.899 109.371 -43.455  1.00  0.00    -0.013 C 
HETATM    4  C8  UNL     1     123.118 109.142 -44.904  1.00  0.00     0.005 C 
HETATM    5  C9  UNL     1     124.447 109.485 -45.434  1.00  0.00     0.005 C 
HETATM    6  C10 UNL     1     125.613 109.206 -44.539  1.00  0.00    -0.013 C 
HETATM    7  C11 UNL     1     125.944 110.421 -43.688  1.00  0.00     0.009 C 
HETATM    8  C12 UNL     1     124.957 110.521 -42.576  1.00  0.00    -0.013 C 
HETATM    9  C13 UNL     1     123.541 110.631 -42.990  1.00  0.00     0.009 C 
HETATM   10  C14 UNL     1     125.138 109.342 -41.667  1.00  0.00     0.024 C 
HETATM   11  C15 UNL     1     125.515 107.971 -43.735  1.00  0.00     0.024 C 
ENDROOT
BRANCH   1  12
HETATM   12  C4  UNL     1     125.080 106.909 -41.594  1.00  0.00     0.226 C 
HETATM   13  N1  UNL     1     124.689 105.592 -41.977  1.00  0.00    -0.357 N 
ATOM     14  H1  UNL     1     124.189 105.466 -42.857  1.00  0.00     0.162 HD
HETATM   15  O1  UNL     1     125.695 107.085 -40.514  1.00  0.00    -0.273 OA
BRANCH  13  16
HETATM   16  C3  UNL     1     124.970 104.442 -41.179  1.00  0.00     0.149 C 
BRANCH  16  17
HETATM   17  C2  UNL     1     125.421 103.274 -41.956  1.00  0.00    -0.018 C 
HETATM   18  C1  UNL     1     126.466 102.580 -41.550  1.00  0.00     0.008 C 
ENDBRANCH  16  17
ENDBRANCH  13  16
ENDBRANCH   1  12
TORSDOF 3
ENDMDL
MODEL 5
REMARK VINA RESULT: -5.277856296      2.163      2.601
REMARK  3 active torsions:
REMARK  status: ('A' for Active; 'I' for Inactive)
REMARK    1  A    between atoms: C2_2  and  C3_3 
REMARK    2  A    between atoms: C3_3  and  N1_4 
REMARK       I    between atoms: N1_4  and  C4_6 
REMARK    3  A    between atoms: C4_6  and  C5_8 
ROOT
HETATM    1  C5  UNL     1     124.696 108.156 -42.335  1.00  0.00     0.042 C 
HETATM    2  C6  UNL     1     125.452 108.110 -43.649  1.00  0.00     0.024 C 
HETATM    3  C7  UNL     1     125.079 109.243 -44.550  1.00  0.00    -0.013 C 
HETATM    4  C8  UNL     1     125.864 110.447 -44.180  1.00  0.00     0.005 C 
HETATM    5  C9  UNL     1     125.276 111.329 -43.159  1.00  0.00     0.005 C 
HETATM    6  C10 UNL     1     124.533 110.660 -42.048  1.00  0.00    -0.013 C 
HETATM    7  C11 UNL     1     123.058 110.529 -42.385  1.00  0.00     0.009 C 
HETATM    8  C12 UNL     1     122.875 109.407 -43.349  1.00  0.00    -0.013 C 
HETATM    9  C13 UNL     1     123.620 109.532 -44.621  1.00  0.00     0.009 C 
HETATM   10  C14 UNL     1     123.236 108.123 -42.664  1.00  0.00     0.024 C 
HETATM   11  C15 UNL     1     125.111 109.385 -41.574  1.00  0.00     0.024 C 
ENDROOT
BRANCH   1  12
HETATM   12  C4  UNL     1     125.055 106.957 -41.542  1.00  0.00     0.226 C 
HETATM   13  N1  UNL     1     124.649 105.641 -41.915  1.00  0.00    -0.357 N 
ATOM     14  H1  UNL     1     124.090 105.523 -42.759  1.00  0.00     0.162 HD
HETATM   15  O1  UNL     1     125.743 107.124 -40.506  1.00  0.00    -0.273 OA
BRANCH  13  16
HETATM   16  C3  UNL     1     124.993 104.484 -41.154  1.00  0.00     0.149 C 
BRANCH  16  17
HETATM   17  C2  UNL     1     125.427 103.339 -41.974  1.00  0.00    -0.018 C 
HETATM   18  C1  UNL     1     126.417 102.573 -41.559  1.00  0.00     0.008 C 
ENDBRANCH  16  17
ENDBRANCH  13  16
ENDBRANCH   1  12
TORSDOF 3
ENDMDL
