MODEL 1
REMARK VINA RESULT: -8.162711108      0.000      0.000
REMARK  8 active torsions:
REMARK  status: ('A' for Active; 'I' for Inactive)
REMARK    1  A    between atoms: C2_2  and  C3_3 
REMARK    2  A    between atoms: C8_10  and  N1_11 
REMARK    3  A    between atoms: C10_16  and  N3_17 
REMARK    4  A    between atoms: C15_26  and  N6_27 
REMARK    5  A    between atoms: N6_27  and  C16_29 
REMARK    6  A    between atoms: C16_29  and  C17_30 
REMARK    7  A    between atoms: C17_30  and  C18_31 
REMARK    8  A    between atoms: C18_31  and  N7_32 
ROOT
HETATM    1  N1  UNL     1      15.793   3.008  25.130  1.00  0.00    -0.188 N 
ATOM      2  H1  UNL     1      16.491   2.360  25.494  1.00  0.00     0.184 HD
HETATM    3  C9  UNL     1      14.590   2.988  25.601  1.00  0.00     0.711 A 
HETATM    4  N2  UNL     1      14.281   2.087  26.583  1.00  0.00    -0.021 N 
ATOM      5  H2  UNL     1      15.014   1.459  26.913  1.00  0.00     0.203 HD
HETATM    6  C10 UNL     1      13.065   1.988  27.133  1.00  0.00     0.709 A 
HETATM    7  N5  UNL     1      12.127   2.844  26.661  1.00  0.00    -0.021 N 
ATOM      8  H5  UNL     1      11.186   2.805  27.052  1.00  0.00     0.203 HD
HETATM    9  C15 UNL     1      12.390   3.742  25.698  1.00  0.00     0.707 A 
HETATM   10  N8  UNL     1      13.644   3.821  25.152  1.00  0.00    -0.021 N 
ATOM     11  H8  UNL     1      13.852   4.499  24.420  1.00  0.00     0.203 HD
ENDROOT
BRANCH   1  12
HETATM   12  C8  UNL     1      16.146   3.920  24.119  1.00  0.00     0.079 A 
HETATM   13  C3  UNL     1      16.806   5.071  24.491  1.00  0.00    -0.029 A 
HETATM   14  C4  UNL     1      17.150   5.954  23.467  1.00  0.00     0.011 A 
HETATM   15  C5  UNL     1      16.837   5.670  22.154  1.00  0.00     0.026 A 
HETATM   16  C6  UNL     1      16.173   4.508  21.795  1.00  0.00     0.058 A 
HETATM   17 CL1  UNL     1      15.779   4.155  20.108  1.00  0.00    -0.082 Cl
HETATM   18  C7  UNL     1      15.833   3.636  22.804  1.00  0.00     0.083 A 
HETATM   19 CL2  UNL     1      14.979   2.166  22.348  1.00  0.00    -0.080 Cl
BRANCH  13  20
HETATM   20  C2  UNL     1      17.122   5.383  25.903  1.00  0.00     0.036 C 
HETATM   21  C1  UNL     1      18.566   5.529  26.219  1.00  0.00     0.010 C 
ENDBRANCH  13  20
ENDBRANCH   1  12
BRANCH   6  22
HETATM   22  N3  UNL     1      12.750   1.076  28.141  1.00  0.00    -0.214 N 
HETATM   23  C11 UNL     1      13.537  -0.162  28.206  1.00  0.00     0.160 C 
HETATM   24  C12 UNL     1      13.776  -0.349  29.712  1.00  0.00     0.134 C 
HETATM   25  N4  UNL     1      12.473  -0.696  30.243  1.00  0.00    -0.418 N 
HETATM   26  C13 UNL     1      11.486   0.318  30.130  1.00  0.00     0.134 C 
ATOM     27  H4  UNL     1      12.280  -1.603  30.667  1.00  0.00     0.153 HD
HETATM   28  C14 UNL     1      11.684   1.337  29.068  1.00  0.00     0.160 C 
ENDBRANCH   6  22
BRANCH   9  29
HETATM   29  N6  UNL     1      11.556   4.590  25.224  1.00  0.00    -0.225 N 
ATOM     30  H6  UNL     1      11.355   4.502  24.228  1.00  0.00     0.177 HD
BRANCH  29  31
HETATM   31  C16 UNL     1      10.872   5.641  25.902  1.00  0.00     0.140 C 
BRANCH  31  32
HETATM   32  C17 UNL     1      11.851   6.379  26.796  1.00  0.00     0.050 C 
BRANCH  32  33
HETATM   33  C18 UNL     1      12.727   7.316  25.983  1.00  0.00     0.274 C 
BRANCH  33  34
HETATM   34  N7  UNL     1      14.084   7.329  26.473  1.00  0.00     0.088 N 
HETATM   35  C19 UNL     1      14.739   8.593  26.393  1.00  0.00     0.272 C 
HETATM   36  C20 UNL     1      15.826   8.475  27.447  1.00  0.00     0.032 C 
HETATM   37  C21 UNL     1      15.089   7.772  28.569  1.00  0.00     0.032 C 
HETATM   38  C22 UNL     1      14.181   6.829  27.805  1.00  0.00     0.272 C 
ENDBRANCH  33  34
ENDBRANCH  32  33
ENDBRANCH  31  32
ENDBRANCH  29  31
ENDBRANCH   9  29
TORSDOF 8
ENDMDL
MODEL 2
REMARK VINA RESULT: -8.095203620      2.762      5.864
REMARK  8 active torsions:
REMARK  status: ('A' for Active; 'I' for Inactive)
REMARK    1  A    between atoms: C2_2  and  C3_3 
REMARK    2  A    between atoms: C8_10  and  N1_11 
REMARK    3  A    between atoms: C10_16  and  N3_17 
REMARK    4  A    between atoms: C15_26  and  N6_27 
REMARK    5  A    between atoms: N6_27  and  C16_29 
REMARK    6  A    between atoms: C16_29  and  C17_30 
REMARK    7  A    between atoms: C17_30  and  C18_31 
REMARK    8  A    between atoms: C18_31  and  N7_32 
ROOT
HETATM    1  N1  UNL     1      11.438   5.125  26.766  1.00  0.00    -0.188 N 
ATOM      2  H1  UNL     1      10.756   5.204  27.520  1.00  0.00     0.184 HD
HETATM    3  C9  UNL     1      12.182   4.072  26.681  1.00  0.00     0.711 A 
HETATM    4  N2  UNL     1      12.035   3.083  27.615  1.00  0.00    -0.021 N 
ATOM      5  H2  UNL     1      11.339   3.210  28.350  1.00  0.00     0.203 HD
HETATM    6  C10 UNL     1      12.759   1.958  27.612  1.00  0.00     0.709 A 
HETATM    7  N5  UNL     1      13.669   1.837  26.615  1.00  0.00    -0.021 N 
ATOM      8  H5  UNL     1      14.242   0.995  26.573  1.00  0.00     0.203 HD
HETATM    9  C15 UNL     1      13.844   2.785  25.680  1.00  0.00     0.707 A 
HETATM   10  N8  UNL     1      13.089   3.928  25.708  1.00  0.00    -0.021 N 
ATOM     11  H8  UNL     1      13.216   4.653  25.003  1.00  0.00     0.203 HD
ENDROOT
BRANCH   1  12
HETATM   12  C8  UNL     1      11.562   6.163  25.825  1.00  0.00     0.079 A 
HETATM   13  C3  UNL     1      10.676   6.185  24.770  1.00  0.00    -0.029 A 
HETATM   14  C4  UNL     1      10.818   7.229  23.856  1.00  0.00     0.011 A 
HETATM   15  C5  UNL     1      11.802   8.182  24.017  1.00  0.00     0.026 A 
HETATM   16  C6  UNL     1      12.686   8.146  25.084  1.00  0.00     0.058 A 
HETATM   17 CL1  UNL     1      13.943   9.375  25.281  1.00  0.00    -0.082 Cl
HETATM   18  C7  UNL     1      12.547   7.117  25.987  1.00  0.00     0.083 A 
HETATM   19 CL2  UNL     1      13.679   7.067  27.335  1.00  0.00    -0.080 Cl
BRANCH  13  20
HETATM   20  C2  UNL     1       9.635   5.150  24.587  1.00  0.00     0.036 C 
HETATM   21  C1  UNL     1       8.407   5.594  23.878  1.00  0.00     0.010 C 
ENDBRANCH  13  20
ENDBRANCH   1  12
BRANCH   6  22
HETATM   22  N3  UNL     1      12.605   0.943  28.558  1.00  0.00    -0.214 N 
HETATM   23  C11 UNL     1      13.513  -0.208  28.471  1.00  0.00     0.160 C 
HETATM   24  C12 UNL     1      13.871  -0.484  29.940  1.00  0.00     0.134 C 
HETATM   25  N4  UNL     1      12.648  -1.004  30.518  1.00  0.00    -0.418 N 
HETATM   26  C13 UNL     1      11.561  -0.092  30.549  1.00  0.00     0.134 C 
ATOM     27  H4  UNL     1      12.574  -1.956  30.876  1.00  0.00     0.153 HD
HETATM   28  C14 UNL     1      11.584   1.021  29.566  1.00  0.00     0.160 C 
ENDBRANCH   6  22
BRANCH   9  29
HETATM   29  N6  UNL     1      14.669   2.724  24.704  1.00  0.00    -0.225 N 
ATOM     30  H6  UNL     1      15.655   2.800  24.954  1.00  0.00     0.177 HD
BRANCH  29  31
HETATM   31  C16 UNL     1      14.394   2.563  23.315  1.00  0.00     0.140 C 
BRANCH  31  32
HETATM   32  C17 UNL     1      15.614   1.979  22.628  1.00  0.00     0.050 C 
BRANCH  32  33
HETATM   33  C18 UNL     1      16.819   2.887  22.797  1.00  0.00     0.274 C 
BRANCH  33  34
HETATM   34  N7  UNL     1      17.417   3.215  21.525  1.00  0.00     0.088 N 
HETATM   35  C19 UNL     1      18.842   3.181  21.505  1.00  0.00     0.272 C 
HETATM   36  C20 UNL     1      19.152   2.973  20.033  1.00  0.00     0.032 C 
HETATM   37  C21 UNL     1      18.098   1.960  19.638  1.00  0.00     0.032 C 
HETATM   38  C22 UNL     1      16.909   2.404  20.467  1.00  0.00     0.272 C 
ENDBRANCH  33  34
ENDBRANCH  32  33
ENDBRANCH  31  32
ENDBRANCH  29  31
ENDBRANCH   9  29
TORSDOF 8
ENDMDL
MODEL 3
REMARK VINA RESULT: -8.033356425      2.357      4.830
REMARK  8 active torsions:
REMARK  status: ('A' for Active; 'I' for Inactive)
REMARK    1  A    between atoms: C2_2  and  C3_3 
REMARK    2  A    between atoms: C8_10  and  N1_11 
REMARK    3  A    between atoms: C10_16  and  N3_17 
REMARK    4  A    between atoms: C15_26  and  N6_27 
REMARK    5  A    between atoms: N6_27  and  C16_29 
REMARK    6  A    between atoms: C16_29  and  C17_30 
REMARK    7  A    between atoms: C17_30  and  C18_31 
REMARK    8  A    between atoms: C18_31  and  N7_32 
ROOT
HETATM    1  N1  UNL     1      11.473   5.126  26.823  1.00  0.00    -0.188 N 
ATOM      2  H1  UNL     1      10.780   5.203  27.568  1.00  0.00     0.184 HD
HETATM    3  C9  UNL     1      12.216   4.072  26.744  1.00  0.00     0.711 A 
HETATM    4  N2  UNL     1      12.053   3.079  27.671  1.00  0.00    -0.021 N 
ATOM      5  H2  UNL     1      11.346   3.204  28.396  1.00  0.00     0.203 HD
HETATM    6  C10 UNL     1      12.774   1.952  27.673  1.00  0.00     0.709 A 
HETATM    7  N5  UNL     1      13.698   1.833  26.690  1.00  0.00    -0.021 N 
ATOM      8  H5  UNL     1      14.270   0.990  26.653  1.00  0.00     0.203 HD
HETATM    9  C15 UNL     1      13.889   2.785  25.763  1.00  0.00     0.707 A 
HETATM   10  N8  UNL     1      13.137   3.930  25.785  1.00  0.00    -0.021 N 
ATOM     11  H8  UNL     1      13.276   4.658  25.084  1.00  0.00     0.203 HD
ENDROOT
BRANCH   1  12
HETATM   12  C8  UNL     1      11.614   6.168  25.889  1.00  0.00     0.079 A 
HETATM   13  C3  UNL     1      10.745   6.197  24.820  1.00  0.00    -0.029 A 
HETATM   14  C4  UNL     1      10.903   7.245  23.913  1.00  0.00     0.011 A 
HETATM   15  C5  UNL     1      11.887   8.196  24.095  1.00  0.00     0.026 A 
HETATM   16  C6  UNL     1      12.754   8.153  25.175  1.00  0.00     0.058 A 
HETATM   17 CL1  UNL     1      14.009   9.378  25.398  1.00  0.00    -0.082 Cl
HETATM   18  C7  UNL     1      12.599   7.120  26.071  1.00  0.00     0.083 A 
HETATM   19 CL2  UNL     1      13.708   7.061  27.437  1.00  0.00    -0.080 Cl
BRANCH  13  20
HETATM   20  C2  UNL     1       9.705   5.165  24.616  1.00  0.00     0.036 C 
HETATM   21  C1  UNL     1       8.466   5.628  23.940  1.00  0.00     0.010 C 
ENDBRANCH  13  20
ENDBRANCH   1  12
BRANCH   6  22
HETATM   22  N3  UNL     1      12.603   0.933  28.612  1.00  0.00    -0.214 N 
HETATM   23  C11 UNL     1      13.505  -0.223  28.530  1.00  0.00     0.160 C 
HETATM   24  C12 UNL     1      13.844  -0.509  30.001  1.00  0.00     0.134 C 
HETATM   25  N4  UNL     1      12.612  -1.025  30.562  1.00  0.00    -0.418 N 
HETATM   26  C13 UNL     1      11.530  -0.107  30.586  1.00  0.00     0.134 C 
ATOM     27  H4  UNL     1      12.529  -1.978  30.914  1.00  0.00     0.153 HD
HETATM   28  C14 UNL     1      11.571   1.011  29.609  1.00  0.00     0.160 C 
ENDBRANCH   6  22
BRANCH   9  29
HETATM   29  N6  UNL     1      14.729   2.726  24.799  1.00  0.00    -0.225 N 
ATOM     30  H6  UNL     1      15.712   2.783  25.065  1.00  0.00     0.177 HD
BRANCH  29  31
HETATM   31  C16 UNL     1      14.474   2.593  23.403  1.00  0.00     0.140 C 
BRANCH  31  32
HETATM   32  C17 UNL     1      15.501   3.396  22.628  1.00  0.00     0.050 C 
BRANCH  32  33
HETATM   33  C18 UNL     1      16.811   3.481  23.390  1.00  0.00     0.274 C 
BRANCH  33  34
HETATM   34  N7  UNL     1      17.144   4.846  23.721  1.00  0.00     0.088 N 
HETATM   35  C19 UNL     1      16.178   5.814  23.317  1.00  0.00     0.272 C 
HETATM   36  C20 UNL     1      16.457   6.977  24.252  1.00  0.00     0.032 C 
HETATM   37  C21 UNL     1      16.704   6.262  25.564  1.00  0.00     0.032 C 
HETATM   38  C22 UNL     1      17.427   5.010  25.109  1.00  0.00     0.272 C 
ENDBRANCH  33  34
ENDBRANCH  32  33
ENDBRANCH  31  32
ENDBRANCH  29  31
ENDBRANCH   9  29
TORSDOF 8
ENDMDL
MODEL 4
REMARK VINA RESULT: -7.977427398      1.473      2.217
REMARK  8 active torsions:
REMARK  status: ('A' for Active; 'I' for Inactive)
REMARK    1  A    between atoms: C2_2  and  C3_3 
REMARK    2  A    between atoms: C8_10  and  N1_11 
REMARK    3  A    between atoms: C10_16  and  N3_17 
REMARK    4  A    between atoms: C15_26  and  N6_27 
REMARK    5  A    between atoms: N6_27  and  C16_29 
REMARK    6  A    between atoms: C16_29  and  C17_30 
REMARK    7  A    between atoms: C17_30  and  C18_31 
REMARK    8  A    between atoms: C18_31  and  N7_32 
ROOT
HETATM    1  N1  UNL     1      15.932   2.923  25.134  1.00  0.00    -0.188 N 
ATOM      2  H1  UNL     1      16.611   2.272  25.526  1.00  0.00     0.184 HD
HETATM    3  C9  UNL     1      14.717   2.928  25.574  1.00  0.00     0.711 A 
HETATM    4  N2  UNL     1      14.371   2.049  26.564  1.00  0.00    -0.021 N 
ATOM      5  H2  UNL     1      15.087   1.417  26.923  1.00  0.00     0.203 HD
HETATM    6  C10 UNL     1      13.141   1.978  27.084  1.00  0.00     0.709 A 
HETATM    7  N5  UNL     1      12.227   2.838  26.574  1.00  0.00    -0.021 N 
ATOM      8  H5  UNL     1      11.276   2.819  26.942  1.00  0.00     0.203 HD
HETATM    9  C15 UNL     1      12.527   3.715  25.602  1.00  0.00     0.707 A 
HETATM   10  N8  UNL     1      13.795   3.766  25.087  1.00  0.00    -0.021 N 
ATOM     11  H8  UNL     1      14.031   4.428  24.349  1.00  0.00     0.203 HD
ENDROOT
BRANCH   1  12
HETATM   12  C8  UNL     1      16.324   3.812  24.116  1.00  0.00     0.079 A 
HETATM   13  C3  UNL     1      16.251   3.371  22.812  1.00  0.00    -0.029 A 
HETATM   14  C4  UNL     1      16.639   4.276  21.824  1.00  0.00     0.011 A 
HETATM   15  C5  UNL     1      17.070   5.543  22.154  1.00  0.00     0.026 A 
HETATM   16  C6  UNL     1      17.138   5.972  23.471  1.00  0.00     0.058 A 
HETATM   17 CL1  UNL     1      17.692   7.601  23.882  1.00  0.00    -0.082 Cl
HETATM   18  C7  UNL     1      16.756   5.081  24.447  1.00  0.00     0.083 A 
HETATM   19 CL2  UNL     1      16.853   5.624  26.119  1.00  0.00    -0.080 Cl
BRANCH  13  20
HETATM   20  C2  UNL     1      15.808   2.004  22.462  1.00  0.00     0.036 C 
HETATM   21  C1  UNL     1      14.450   1.903  21.867  1.00  0.00     0.010 C 
ENDBRANCH  13  20
ENDBRANCH   1  12
BRANCH   6  22
HETATM   22  N3  UNL     1      12.787   1.088  28.101  1.00  0.00    -0.214 N 
HETATM   23  C11 UNL     1      13.552  -0.162  28.203  1.00  0.00     0.160 C 
HETATM   24  C12 UNL     1      13.753  -0.327  29.718  1.00  0.00     0.134 C 
HETATM   25  N4  UNL     1      12.433  -0.643  30.225  1.00  0.00    -0.418 N 
HETATM   26  C13 UNL     1      11.466   0.385  30.073  1.00  0.00     0.134 C 
ATOM     27  H4  UNL     1      12.215  -1.539  30.659  1.00  0.00     0.153 HD
HETATM   28  C14 UNL     1      11.705   1.383  28.998  1.00  0.00     0.160 C 
ENDBRANCH   6  22
BRANCH   9  29
HETATM   29  N6  UNL     1      11.718   4.565  25.093  1.00  0.00    -0.225 N 
ATOM     30  H6  UNL     1      11.637   4.544  24.076  1.00  0.00     0.177 HD
BRANCH  29  31
HETATM   31  C16 UNL     1      10.915   5.539  25.756  1.00  0.00     0.140 C 
BRANCH  31  32
HETATM   32  C17 UNL     1      11.784   6.337  26.710  1.00  0.00     0.050 C 
BRANCH  32  33
HETATM   33  C18 UNL     1      12.636   7.343  25.956  1.00  0.00     0.274 C 
BRANCH  33  34
HETATM   34  N7  UNL     1      13.981   7.390  26.475  1.00  0.00     0.088 N 
HETATM   35  C19 UNL     1      14.607   8.669  26.405  1.00  0.00     0.272 C 
HETATM   36  C20 UNL     1      15.673   8.582  27.483  1.00  0.00     0.032 C 
HETATM   37  C21 UNL     1      14.929   7.866  28.591  1.00  0.00     0.032 C 
HETATM   38  C22 UNL     1      14.061   6.898  27.811  1.00  0.00     0.272 C 
ENDBRANCH  33  34
ENDBRANCH  32  33
ENDBRANCH  31  32
ENDBRANCH  29  31
ENDBRANCH   9  29
TORSDOF 8
ENDMDL
MODEL 5
REMARK VINA RESULT: -7.976707259      1.147      1.534
REMARK  8 active torsions:
REMARK  status: ('A' for Active; 'I' for Inactive)
REMARK    1  A    between atoms: C2_2  and  C3_3 
REMARK    2  A    between atoms: C8_10  and  N1_11 
REMARK    3  A    between atoms: C10_16  and  N3_17 
REMARK    4  A    between atoms: C15_26  and  N6_27 
REMARK    5  A    between atoms: N6_27  and  C16_29 
REMARK    6  A    between atoms: C16_29  and  C17_30 
REMARK    7  A    between atoms: C17_30  and  C18_31 
REMARK    8  A    between atoms: C18_31  and  N7_32 
ROOT
HETATM    1  N1  UNL     1      15.776   2.814  24.765  1.00  0.00    -0.188 N 
ATOM      2  H1  UNL     1      16.273   1.925  24.823  1.00  0.00     0.184 HD
HETATM    3  C9  UNL     1      14.760   3.033  25.532  1.00  0.00     0.711 A 
HETATM    4  N2  UNL     1      14.372   2.056  26.409  1.00  0.00    -0.021 N 
ATOM      5  H2  UNL     1      14.901   1.184  26.428  1.00  0.00     0.203 HD
HETATM    6  C10 UNL     1      13.334   2.188  27.242  1.00  0.00     0.709 A 
HETATM    7  N5  UNL     1      12.664   3.365  27.178  1.00  0.00    -0.021 N 
ATOM      8  H5  UNL     1      11.866   3.509  27.796  1.00  0.00     0.203 HD
HETATM    9  C15 UNL     1      13.013   4.347  26.332  1.00  0.00     0.707 A 
HETATM   10  N8  UNL     1      14.080   4.185  25.489  1.00  0.00    -0.021 N 
ATOM     11  H8  UNL     1      14.352   4.925  24.843  1.00  0.00     0.203 HD
ENDROOT
BRANCH   1  12
HETATM   12  C8  UNL     1      16.203   3.794  23.851  1.00  0.00     0.079 A 
HETATM   13  C3  UNL     1      17.021   4.799  24.319  1.00  0.00    -0.029 A 
HETATM   14  C4  UNL     1      17.434   5.753  23.389  1.00  0.00     0.011 A 
HETATM   15  C5  UNL     1      17.033   5.677  22.071  1.00  0.00     0.026 A 
HETATM   16  C6  UNL     1      16.209   4.660  21.615  1.00  0.00     0.058 A 
HETATM   17 CL1  UNL     1      15.703   4.572  19.923  1.00  0.00    -0.082 Cl
HETATM   18  C7  UNL     1      15.801   3.718  22.531  1.00  0.00     0.083 A 
HETATM   19 CL2  UNL     1      14.746   2.433  21.953  1.00  0.00    -0.080 Cl
BRANCH  13  20
HETATM   20  C2  UNL     1      17.432   4.890  25.737  1.00  0.00     0.036 C 
HETATM   21  C1  UNL     1      18.828   5.342  25.971  1.00  0.00     0.010 C 
ENDBRANCH  13  20
ENDBRANCH   1  12
BRANCH   6  22
HETATM   22  N3  UNL     1      12.942   1.197  28.143  1.00  0.00    -0.214 N 
HETATM   23  C11 UNL     1      13.719  -0.049  28.161  1.00  0.00     0.160 C 
HETATM   24  C12 UNL     1      13.843  -0.363  29.660  1.00  0.00     0.134 C 
HETATM   25  N4  UNL     1      12.503  -0.743  30.061  1.00  0.00    -0.418 N 
HETATM   26  C13 UNL     1      11.530   0.285  29.960  1.00  0.00     0.134 C 
ATOM     27  H4  UNL     1      12.277  -1.681  30.391  1.00  0.00     0.153 HD
HETATM   28  C14 UNL     1      11.809   1.388  29.006  1.00  0.00     0.160 C 
ENDBRANCH   6  22
BRANCH   9  29
HETATM   29  N6  UNL     1      12.437   5.486  26.237  1.00  0.00    -0.225 N 
ATOM     30  H6  UNL     1      11.462   5.464  25.940  1.00  0.00     0.177 HD
BRANCH  29  31
HETATM   31  C16 UNL     1      12.977   6.781  26.491  1.00  0.00     0.140 C 
BRANCH  31  32
HETATM   32  C17 UNL     1      13.658   6.782  27.846  1.00  0.00     0.050 C 
BRANCH  32  33
HETATM   33  C18 UNL     1      14.898   7.658  27.830  1.00  0.00     0.274 C 
BRANCH  33  34
HETATM   34  N7  UNL     1      15.776   7.352  28.934  1.00  0.00     0.088 N 
HETATM   35  C19 UNL     1      17.164   7.343  28.611  1.00  0.00     0.272 C 
HETATM   36  C20 UNL     1      17.823   7.587  29.957  1.00  0.00     0.032 C 
HETATM   37  C21 UNL     1      16.917   8.643  30.555  1.00  0.00     0.032 C 
HETATM   38  C22 UNL     1      15.555   8.210  30.052  1.00  0.00     0.272 C 
ENDBRANCH  33  34
ENDBRANCH  32  33
ENDBRANCH  31  32
ENDBRANCH  29  31
ENDBRANCH   9  29
TORSDOF 8
ENDMDL
