MODEL 1
REMARK VINA RESULT: -9.149999761      0.000      0.000
REMARK  9 active torsions:
REMARK  status: ('A' for Active; 'I' for Inactive)
REMARK    1  A    between atoms: C2_2  and  O1_3 
REMARK    2  A    between atoms: O1_3  and  C3_4 
REMARK       I    between atoms: C3_4  and  N1_6 
REMARK    3  A    between atoms: C6_9  and  C7_10 
REMARK    4  A    between atoms: C7_10  and  N2_11 
REMARK       I    between atoms: N2_11  and  C8_13 
REMARK    5  A    between atoms: C8_13  and  C9_15 
REMARK       I    between atoms: C9_15  and  N3_17 
REMARK    6  A    between atoms: N3_17  and  C10_19 
REMARK    7  A    between atoms: C10_19  and  C11_20 
REMARK    8  A    between atoms: C14_23  and  C15_24 
REMARK       I    between atoms: C15_24  and  N4_26 
REMARK    9  A    between atoms: C22_36  and  C23_37 
ROOT
HETATM    1  N2  UNL     1      14.139   8.796  26.189  1.00  0.00    -0.353 N 
ATOM      2  H2  UNL     1      14.511   7.950  26.620  1.00  0.00     0.162 HD
HETATM    3  C8  UNL     1      12.808   8.794  25.708  1.00  0.00     0.309 C 
HETATM    4  O3  UNL     1      12.278   9.779  25.172  1.00  0.00    -0.262 OA
ENDROOT
BRANCH   3   5
HETATM    5  C9  UNL     1      12.003   7.556  25.848  1.00  0.00     0.309 C 
HETATM    6  O4  UNL     1      11.433   7.425  26.940  1.00  0.00    -0.262 OA
HETATM    7  N3  UNL     1      11.956   6.669  24.774  1.00  0.00    -0.351 N 
ATOM      8  H3  UNL     1      12.489   6.987  23.964  1.00  0.00     0.162 HD
BRANCH   7   9
HETATM    9  C10 UNL     1      11.324   5.419  24.571  1.00  0.00     0.156 C 
BRANCH   9  10
HETATM   10  C11 UNL     1      11.831   4.295  25.338  1.00  0.00     0.204 C 
HETATM   11  C12 UNL     1      13.239   4.367  25.820  1.00  0.00     0.037 C 
HETATM   12  C13 UNL     1      13.235   3.422  27.057  1.00  0.00     0.045 C 
HETATM   13  C14 UNL     1      11.854   2.831  26.992  1.00  0.00     0.277 C 
HETATM   14  N5  UNL     1      11.074   4.024  26.598  1.00  0.00    -0.057 N 
ATOM     15  H52 UNL     1      11.000   4.783  27.275  1.00  0.00     0.278 HD
ATOM     16  H51 UNL     1      10.062   3.921  26.526  1.00  0.00     0.278 HD
BRANCH  13  17
HETATM   17  C15 UNL     1      11.391   2.311  28.284  1.00  0.00     0.250 C 
HETATM   18  O5  UNL     1      10.539   2.973  28.931  1.00  0.00    -0.271 OA
HETATM   19  N4  UNL     1      11.875   1.112  28.797  1.00  0.00    -0.350 N 
HETATM   20  C16 UNL     1      11.450   0.628  30.087  1.00  0.00     0.126 C 
HETATM   21  C20 UNL     1      12.798   0.296  28.055  1.00  0.00     0.126 C 
HETATM   22  C17 UNL     1      12.165  -0.667  30.369  1.00  0.00     0.020 C 
HETATM   23  C18 UNL     1      13.637  -0.584  30.149  1.00  0.00     0.003 C 
HETATM   24  C19 UNL     1      14.060   0.034  28.853  1.00  0.00     0.020 C 
ENDBRANCH  13  17
ENDBRANCH   9  10
ENDBRANCH   7   9
ENDBRANCH   3   5
BRANCH   1  25
HETATM   25  C7  UNL     1      14.983   9.957  26.088  1.00  0.00     0.128 C 
BRANCH  25  26
HETATM   26  C6  UNL     1      15.919  10.011  27.253  1.00  0.00     0.007 C 
HETATM   27  C5  UNL     1      17.339  10.283  26.816  1.00  0.00     0.026 C 
HETATM   28  C4  UNL     1      18.122  10.613  28.088  1.00  0.00     0.129 C 
HETATM   29  N1  UNL     1      17.399  10.167  29.263  1.00  0.00    -0.315 N 
HETATM   30  C3  UNL     1      17.423  10.995  30.425  1.00  0.00     0.363 C 
HETATM   31  C22 UNL     1      16.660   8.926  29.294  1.00  0.00     0.197 C 
HETATM   32  O2  UNL     1      18.040  12.071  30.450  1.00  0.00    -0.238 OA
HETATM   33  C21 UNL     1      15.937   8.674  27.990  1.00  0.00     0.041 C 
BRANCH  30  34
HETATM   34  O1  UNL     1      16.739  10.603  31.580  1.00  0.00    -0.304 OA
BRANCH  34  35
HETATM   35  C2  UNL     1      17.351  10.553  32.853  1.00  0.00     0.176 C 
HETATM   36  C1  UNL     1      17.006   9.318  33.630  1.00  0.00     0.034 C 
ENDBRANCH  34  35
ENDBRANCH  30  34
BRANCH  31  37
HETATM   37  C23 UNL     1      17.554   7.745  29.646  1.00  0.00     0.407 C 
HETATM   38  F1  UNL     1      18.553   7.678  28.688  1.00  0.00    -0.169 F 
HETATM   39  F2  UNL     1      18.140   7.906  30.871  1.00  0.00    -0.169 F 
HETATM   40  F3  UNL     1      16.848   6.572  29.666  1.00  0.00    -0.169 F 
ENDBRANCH  31  37
ENDBRANCH  25  26
ENDBRANCH   1  25
TORSDOF 9
ENDMDL
MODEL 2
REMARK VINA RESULT: -8.655065313      1.785      2.657
REMARK  9 active torsions:
REMARK  status: ('A' for Active; 'I' for Inactive)
REMARK    1  A    between atoms: C2_2  and  O1_3 
REMARK    2  A    between atoms: O1_3  and  C3_4 
REMARK       I    between atoms: C3_4  and  N1_6 
REMARK    3  A    between atoms: C6_9  and  C7_10 
REMARK    4  A    between atoms: C7_10  and  N2_11 
REMARK       I    between atoms: N2_11  and  C8_13 
REMARK    5  A    between atoms: C8_13  and  C9_15 
REMARK       I    between atoms: C9_15  and  N3_17 
REMARK    6  A    between atoms: N3_17  and  C10_19 
REMARK    7  A    between atoms: C10_19  and  C11_20 
REMARK    8  A    between atoms: C14_23  and  C15_24 
REMARK       I    between atoms: C15_24  and  N4_26 
REMARK    9  A    between atoms: C22_36  and  C23_37 
ROOT
HETATM    1  N2  UNL     1      15.493  10.666  25.818  1.00  0.00    -0.353 N 
ATOM      2  H2  UNL     1      16.093   9.866  25.614  1.00  0.00     0.162 HD
HETATM    3  C8  UNL     1      14.117  10.593  25.494  1.00  0.00     0.309 C 
HETATM    4  O3  UNL     1      13.320  11.517  25.707  1.00  0.00    -0.262 OA
ENDROOT
BRANCH   3   5
HETATM    5  C9  UNL     1      13.600   9.351  24.867  1.00  0.00     0.309 C 
HETATM    6  O4  UNL     1      14.461   8.503  24.601  1.00  0.00    -0.262 OA
HETATM    7  N3  UNL     1      12.229   9.246  24.637  1.00  0.00    -0.351 N 
ATOM      8  H3  UNL     1      11.703  10.061  24.953  1.00  0.00     0.162 HD
BRANCH   7   9
HETATM    9  C10 UNL     1      11.414   8.244  24.057  1.00  0.00     0.156 C 
BRANCH   9  10
HETATM   10  C11 UNL     1      11.223   7.027  24.826  1.00  0.00     0.204 C 
HETATM   11  C12 UNL     1       9.965   6.260  24.603  1.00  0.00     0.037 C 
HETATM   12  C13 UNL     1      10.358   4.814  25.024  1.00  0.00     0.045 C 
HETATM   13  C14 UNL     1      11.742   5.015  25.575  1.00  0.00     0.277 C 
HETATM   14  N5  UNL     1      12.276   5.991  24.601  1.00  0.00    -0.057 N 
ATOM     15  H52 UNL     1      12.422   5.669  23.644  1.00  0.00     0.278 HD
ATOM     16  H51 UNL     1      13.249   6.277  24.706  1.00  0.00     0.278 HD
BRANCH  13  17
HETATM   17  C15 UNL     1      12.545   3.787  25.574  1.00  0.00     0.250 C 
HETATM   18  O5  UNL     1      13.223   3.510  24.551  1.00  0.00    -0.271 OA
HETATM   19  N4  UNL     1      12.567   2.935  26.673  1.00  0.00    -0.350 N 
HETATM   20  C16 UNL     1      13.322   1.707  26.650  1.00  0.00     0.126 C 
HETATM   21  C20 UNL     1      11.858   3.253  27.883  1.00  0.00     0.126 C 
HETATM   22  C17 UNL     1      13.123   1.000  27.965  1.00  0.00     0.020 C 
HETATM   23  C18 UNL     1      11.690   0.884  28.357  1.00  0.00     0.003 C 
HETATM   24  C19 UNL     1      10.891   2.146  28.258  1.00  0.00     0.020 C 
ENDBRANCH  13  17
ENDBRANCH   9  10
ENDBRANCH   7   9
ENDBRANCH   3   5
BRANCH   1  25
HETATM   25  C7  UNL     1      16.071  11.836  26.426  1.00  0.00     0.128 C 
BRANCH  25  26
HETATM   26  C6  UNL     1      16.803  11.455  27.672  1.00  0.00     0.007 C 
HETATM   27  C5  UNL     1      18.275  11.236  27.411  1.00  0.00     0.026 C 
HETATM   28  C4  UNL     1      18.946  11.158  28.782  1.00  0.00     0.129 C 
HETATM   29  N1  UNL     1      17.963  10.903  29.818  1.00  0.00    -0.315 N 
HETATM   30  C3  UNL     1      18.117  11.567  31.072  1.00  0.00     0.363 C 
HETATM   31  C22 UNL     1      16.845  10.010  29.623  1.00  0.00     0.197 C 
HETATM   32  O2  UNL     1      19.057  12.345  31.290  1.00  0.00    -0.238 OA
HETATM   33  C21 UNL     1      16.260  10.143  28.235  1.00  0.00     0.041 C 
BRANCH  30  34
HETATM   34  O1  UNL     1      17.192  11.351  32.098  1.00  0.00    -0.304 OA
BRANCH  34  35
HETATM   35  C2  UNL     1      17.526  10.694  33.304  1.00  0.00     0.176 C 
HETATM   36  C1  UNL     1      16.777   9.412  33.509  1.00  0.00     0.034 C 
ENDBRANCH  34  35
ENDBRANCH  30  34
BRANCH  31  37
HETATM   37  C23 UNL     1      17.221   8.563  29.908  1.00  0.00     0.407 C 
HETATM   38  F1  UNL     1      16.081   7.917  30.359  1.00  0.00    -0.169 F 
HETATM   39  F2  UNL     1      17.662   7.925  28.781  1.00  0.00    -0.169 F 
HETATM   40  F3  UNL     1      18.207   8.479  30.854  1.00  0.00    -0.169 F 
ENDBRANCH  31  37
ENDBRANCH  25  26
ENDBRANCH   1  25
TORSDOF 9
ENDMDL
MODEL 3
REMARK VINA RESULT: -8.653036911      1.509      2.050
REMARK  9 active torsions:
REMARK  status: ('A' for Active; 'I' for Inactive)
REMARK    1  A    between atoms: C2_2  and  O1_3 
REMARK    2  A    between atoms: O1_3  and  C3_4 
REMARK       I    between atoms: C3_4  and  N1_6 
REMARK    3  A    between atoms: C6_9  and  C7_10 
REMARK    4  A    between atoms: C7_10  and  N2_11 
REMARK       I    between atoms: N2_11  and  C8_13 
REMARK    5  A    between atoms: C8_13  and  C9_15 
REMARK       I    between atoms: C9_15  and  N3_17 
REMARK    6  A    between atoms: N3_17  and  C10_19 
REMARK    7  A    between atoms: C10_19  and  C11_20 
REMARK    8  A    between atoms: C14_23  and  C15_24 
REMARK       I    between atoms: C15_24  and  N4_26 
REMARK    9  A    between atoms: C22_36  and  C23_37 
ROOT
HETATM    1  N2  UNL     1      15.382  10.800  25.779  1.00  0.00    -0.353 N 
ATOM      2  H2  UNL     1      15.907   9.942  25.611  1.00  0.00     0.162 HD
HETATM    3  C8  UNL     1      14.008  10.841  25.442  1.00  0.00     0.309 C 
HETATM    4  O3  UNL     1      13.296  11.842  25.614  1.00  0.00    -0.262 OA
ENDROOT
BRANCH   3   5
HETATM    5  C9  UNL     1      13.383   9.630  24.854  1.00  0.00     0.309 C 
HETATM    6  O4  UNL     1      12.157   9.702  24.693  1.00  0.00    -0.262 OA
HETATM    7  N3  UNL     1      14.202   8.546  24.543  1.00  0.00    -0.351 N 
ATOM      8  H3  UNL     1      15.188   8.713  24.744  1.00  0.00     0.162 HD
BRANCH   7   9
HETATM    9  C10 UNL     1      13.951   7.261  24.005  1.00  0.00     0.156 C 
BRANCH   9  10
HETATM   10  C11 UNL     1      13.997   6.142  24.930  1.00  0.00     0.204 C 
HETATM   11  C12 UNL     1      14.975   6.213  26.052  1.00  0.00     0.037 C 
HETATM   12  C13 UNL     1      14.344   5.280  27.126  1.00  0.00     0.045 C 
HETATM   13  C14 UNL     1      13.177   4.694  26.382  1.00  0.00     0.277 C 
HETATM   14  N5  UNL     1      12.709   5.886  25.643  1.00  0.00    -0.057 N 
ATOM     15  H52 UNL     1      12.312   6.652  26.187  1.00  0.00     0.278 HD
ATOM     16  H51 UNL     1      11.867   5.787  25.075  1.00  0.00     0.278 HD
BRANCH  13  17
HETATM   17  C15 UNL     1      12.125   4.188  27.272  1.00  0.00     0.250 C 
HETATM   18  O5  UNL     1      11.351   5.013  27.822  1.00  0.00    -0.271 OA
HETATM   19  N4  UNL     1      11.974   2.826  27.512  1.00  0.00    -0.350 N 
HETATM   20  C16 UNL     1      10.968   2.337  28.421  1.00  0.00     0.126 C 
HETATM   21  C20 UNL     1      12.796   1.851  26.849  1.00  0.00     0.126 C 
HETATM   22  C17 UNL     1      11.074   0.837  28.488  1.00  0.00     0.020 C 
HETATM   23  C18 UNL     1      12.464   0.357  28.726  1.00  0.00     0.003 C 
HETATM   24  C19 UNL     1      13.514   0.968  27.851  1.00  0.00     0.020 C 
ENDBRANCH  13  17
ENDBRANCH   9  10
ENDBRANCH   7   9
ENDBRANCH   3   5
BRANCH   1  25
HETATM   25  C7  UNL     1      16.060  11.933  26.351  1.00  0.00     0.128 C 
BRANCH  25  26
HETATM   26  C6  UNL     1      16.779  11.522  27.596  1.00  0.00     0.007 C 
HETATM   27  C5  UNL     1      18.247  11.277  27.338  1.00  0.00     0.026 C 
HETATM   28  C4  UNL     1      18.911  11.170  28.711  1.00  0.00     0.129 C 
HETATM   29  N1  UNL     1      17.919  10.922  29.740  1.00  0.00    -0.315 N 
HETATM   30  C3  UNL     1      18.080  11.568  31.002  1.00  0.00     0.363 C 
HETATM   31  C22 UNL     1      16.784  10.054  29.529  1.00  0.00     0.197 C 
HETATM   32  O2  UNL     1      19.034  12.325  31.234  1.00  0.00    -0.238 OA
HETATM   33  C21 UNL     1      16.208  10.215  28.140  1.00  0.00     0.041 C 
BRANCH  30  34
HETATM   34  O1  UNL     1      17.146  11.358  32.021  1.00  0.00    -0.304 OA
BRANCH  34  35
HETATM   35  C2  UNL     1      17.472  10.715  33.238  1.00  0.00     0.176 C 
HETATM   36  C1  UNL     1      16.838   9.365  33.384  1.00  0.00     0.034 C 
ENDBRANCH  34  35
ENDBRANCH  30  34
BRANCH  31  37
HETATM   37  C23 UNL     1      17.130   8.596  29.798  1.00  0.00     0.407 C 
HETATM   38  F1  UNL     1      17.448   8.012  28.582  1.00  0.00    -0.169 F 
HETATM   39  F2  UNL     1      18.209   8.480  30.630  1.00  0.00    -0.169 F 
HETATM   40  F3  UNL     1      16.080   7.931  30.373  1.00  0.00    -0.169 F 
ENDBRANCH  31  37
ENDBRANCH  25  26
ENDBRANCH   1  25
TORSDOF 9
ENDMDL
MODEL 4
REMARK VINA RESULT: -8.546879081      4.303      8.565
REMARK  9 active torsions:
REMARK  status: ('A' for Active; 'I' for Inactive)
REMARK    1  A    between atoms: C2_2  and  O1_3 
REMARK    2  A    between atoms: O1_3  and  C3_4 
REMARK       I    between atoms: C3_4  and  N1_6 
REMARK    3  A    between atoms: C6_9  and  C7_10 
REMARK    4  A    between atoms: C7_10  and  N2_11 
REMARK       I    between atoms: N2_11  and  C8_13 
REMARK    5  A    between atoms: C8_13  and  C9_15 
REMARK       I    between atoms: C9_15  and  N3_17 
REMARK    6  A    between atoms: N3_17  and  C10_19 
REMARK    7  A    between atoms: C10_19  and  C11_20 
REMARK    8  A    between atoms: C14_23  and  C15_24 
REMARK       I    between atoms: C15_24  and  N4_26 
REMARK    9  A    between atoms: C22_36  and  C23_37 
ROOT
HETATM    1  N2  UNL     1      16.258   3.848  23.636  1.00  0.00    -0.353 N 
ATOM      2  H2  UNL     1      16.499   4.639  24.234  1.00  0.00     0.162 HD
HETATM    3  C8  UNL     1      17.285   3.193  22.916  1.00  0.00     0.309 C 
HETATM    4  O3  UNL     1      17.079   2.226  22.168  1.00  0.00    -0.262 OA
ENDROOT
BRANCH   3   5
HETATM    5  C9  UNL     1      18.678   3.685  23.058  1.00  0.00     0.309 C 
HETATM    6  O4  UNL     1      19.462   3.292  22.184  1.00  0.00    -0.262 OA
HETATM    7  N3  UNL     1      18.980   4.522  24.131  1.00  0.00    -0.351 N 
ATOM      8  H3  UNL     1      18.173   4.731  24.720  1.00  0.00     0.162 HD
BRANCH   7   9
HETATM    9  C10 UNL     1      20.171   5.144  24.575  1.00  0.00     0.156 C 
BRANCH   9  10
HETATM   10  C11 UNL     1      20.025   6.284  25.463  1.00  0.00     0.204 C 
HETATM   11  C12 UNL     1      20.674   7.563  25.056  1.00  0.00     0.037 C 
HETATM   12  C13 UNL     1      19.828   8.636  25.801  1.00  0.00     0.045 C 
HETATM   13  C14 UNL     1      18.922   7.787  26.648  1.00  0.00     0.277 C 
HETATM   14  N5  UNL     1      18.609   6.702  25.693  1.00  0.00    -0.057 N 
ATOM     15  H52 UNL     1      18.050   6.942  24.874  1.00  0.00     0.278 HD
ATOM     16  H51 UNL     1      17.949   5.984  25.995  1.00  0.00     0.278 HD
BRANCH  13  17
HETATM   17  C15 UNL     1      17.699   8.486  27.059  1.00  0.00     0.250 C 
HETATM   18  O5  UNL     1      17.169   9.298  26.258  1.00  0.00    -0.271 OA
HETATM   19  N4  UNL     1      17.124   8.265  28.306  1.00  0.00    -0.350 N 
HETATM   20  C16 UNL     1      15.948   8.987  28.723  1.00  0.00     0.126 C 
HETATM   21  C20 UNL     1      17.663   7.295  29.220  1.00  0.00     0.126 C 
HETATM   22  C17 UNL     1      15.590   8.549  30.119  1.00  0.00     0.020 C 
HETATM   23  C18 UNL     1      16.747   8.578  31.058  1.00  0.00     0.003 C 
HETATM   24  C19 UNL     1      17.999   7.928  30.557  1.00  0.00     0.020 C 
ENDBRANCH  13  17
ENDBRANCH   9  10
ENDBRANCH   7   9
ENDBRANCH   3   5
BRANCH   1  25
HETATM   25  C7  UNL     1      14.883   3.431  23.550  1.00  0.00     0.128 C 
BRANCH  25  26
HETATM   26  C6  UNL     1      14.092   4.046  24.660  1.00  0.00     0.007 C 
HETATM   27  C5  UNL     1      14.979   4.481  25.803  1.00  0.00     0.026 C 
HETATM   28  C4  UNL     1      14.110   5.350  26.713  1.00  0.00     0.129 C 
HETATM   29  N1  UNL     1      12.703   5.133  26.433  1.00  0.00    -0.315 N 
HETATM   30  C3  UNL     1      11.827   6.260  26.467  1.00  0.00     0.363 C 
HETATM   31  C22 UNL     1      12.167   3.829  26.122  1.00  0.00     0.197 C 
HETATM   32  O2  UNL     1      12.237   7.401  26.726  1.00  0.00    -0.238 OA
HETATM   33  C21 UNL     1      13.102   3.036  25.237  1.00  0.00     0.041 C 
BRANCH  30  34
HETATM   34  O1  UNL     1      10.464   6.096  26.203  1.00  0.00    -0.304 OA
BRANCH  34  35
HETATM   35  C2  UNL     1       9.882   6.416  24.955  1.00  0.00     0.176 C 
HETATM   36  C1  UNL     1       9.084   5.293  24.366  1.00  0.00     0.034 C 
ENDBRANCH  34  35
ENDBRANCH  30  34
BRANCH  31  37
HETATM   37  C23 UNL     1      11.828   3.043  27.381  1.00  0.00     0.407 C 
HETATM   38  F1  UNL     1      12.966   2.345  27.756  1.00  0.00    -0.169 F 
HETATM   39  F2  UNL     1      11.469   3.870  28.410  1.00  0.00    -0.169 F 
HETATM   40  F3  UNL     1      10.797   2.168  27.163  1.00  0.00    -0.169 F 
ENDBRANCH  31  37
ENDBRANCH  25  26
ENDBRANCH   1  25
TORSDOF 9
ENDMDL
MODEL 5
REMARK VINA RESULT: -8.415497230      2.494      8.099
REMARK  9 active torsions:
REMARK  status: ('A' for Active; 'I' for Inactive)
REMARK    1  A    between atoms: C2_2  and  O1_3 
REMARK    2  A    between atoms: O1_3  and  C3_4 
REMARK       I    between atoms: C3_4  and  N1_6 
REMARK    3  A    between atoms: C6_9  and  C7_10 
REMARK    4  A    between atoms: C7_10  and  N2_11 
REMARK       I    between atoms: N2_11  and  C8_13 
REMARK    5  A    between atoms: C8_13  and  C9_15 
REMARK       I    between atoms: C9_15  and  N3_17 
REMARK    6  A    between atoms: N3_17  and  C10_19 
REMARK    7  A    between atoms: C10_19  and  C11_20 
REMARK    8  A    between atoms: C14_23  and  C15_24 
REMARK       I    between atoms: C15_24  and  N4_26 
REMARK    9  A    between atoms: C22_36  and  C23_37 
ROOT
HETATM    1  N2  UNL     1      10.950   7.548  24.223  1.00  0.00    -0.353 N 
ATOM      2  H2  UNL     1      11.321   8.002  25.058  1.00  0.00     0.162 HD
HETATM    3  C8  UNL     1      11.113   8.180  22.967  1.00  0.00     0.309 C 
HETATM    4  O3  UNL     1      10.694   7.698  21.905  1.00  0.00    -0.262 OA
ENDROOT
BRANCH   3   5
HETATM    5  C9  UNL     1      11.819   9.484  22.914  1.00  0.00     0.309 C 
HETATM    6  O4  UNL     1      11.211  10.383  22.319  1.00  0.00    -0.262 OA
HETATM    7  N3  UNL     1      13.071   9.586  23.520  1.00  0.00    -0.351 N 
ATOM      8  H3  UNL     1      13.374   8.722  23.969  1.00  0.00     0.162 HD
BRANCH   7   9
HETATM    9  C10 UNL     1      14.010  10.639  23.642  1.00  0.00     0.156 C 
BRANCH   9  10
HETATM   10  C11 UNL     1      14.856  10.630  24.822  1.00  0.00     0.204 C 
HETATM   11  C12 UNL     1      14.884  11.861  25.661  1.00  0.00     0.037 C 
HETATM   12  C13 UNL     1      15.300  11.322  27.060  1.00  0.00     0.045 C 
HETATM   13  C14 UNL     1      15.600   9.879  26.762  1.00  0.00     0.277 C 
HETATM   14  N5  UNL     1      14.505   9.571  25.817  1.00  0.00    -0.057 N 
ATOM     15  H52 UNL     1      13.554   9.568  26.185  1.00  0.00     0.278 HD
ATOM     16  H51 UNL     1      14.431   8.612  25.479  1.00  0.00     0.278 HD
BRANCH  13  17
HETATM   17  C15 UNL     1      15.521   9.019  27.948  1.00  0.00     0.250 C 
HETATM   18  O5  UNL     1      14.630   8.132  27.992  1.00  0.00    -0.271 OA
HETATM   19  N4  UNL     1      16.405   9.168  29.011  1.00  0.00    -0.350 N 
HETATM   20  C16 UNL     1      16.295   8.350  30.193  1.00  0.00     0.126 C 
HETATM   21  C20 UNL     1      17.477  10.126  28.967  1.00  0.00     0.126 C 
HETATM   22  C17 UNL     1      17.368   8.768  31.163  1.00  0.00     0.020 C 
HETATM   23  C18 UNL     1      17.418  10.241  31.385  1.00  0.00     0.003 C 
HETATM   24  C19 UNL     1      17.409  11.079  30.144  1.00  0.00     0.020 C 
ENDBRANCH  13  17
ENDBRANCH   9  10
ENDBRANCH   7   9
ENDBRANCH   3   5
BRANCH   1  25
HETATM   25  C7  UNL     1      10.276   6.283  24.357  1.00  0.00     0.128 C 
BRANCH  25  26
HETATM   26  C6  UNL     1      10.966   5.443  25.384  1.00  0.00     0.007 C 
HETATM   27  C5  UNL     1      11.414   6.265  26.569  1.00  0.00     0.026 C 
HETATM   28  C4  UNL     1      11.816   5.267  27.655  1.00  0.00     0.129 C 
HETATM   29  N1  UNL     1      12.033   3.951  27.084  1.00  0.00    -0.315 N 
HETATM   30  C3  UNL     1      11.600   2.813  27.829  1.00  0.00     0.363 C 
HETATM   31  C22 UNL     1      12.664   3.759  25.799  1.00  0.00     0.197 C 
HETATM   32  O2  UNL     1      11.051   2.924  28.935  1.00  0.00    -0.238 OA
HETATM   33  C21 UNL     1      12.222   4.802  24.798  1.00  0.00     0.041 C 
BRANCH  30  34
HETATM   34  O1  UNL     1      11.789   1.527  27.314  1.00  0.00    -0.304 OA
BRANCH  34  35
HETATM   35  C2  UNL     1      12.776   0.643  27.807  1.00  0.00     0.176 C 
HETATM   36  C1  UNL     1      12.484   0.135  29.186  1.00  0.00     0.034 C 
ENDBRANCH  34  35
ENDBRANCH  30  34
BRANCH  31  37
HETATM   37  C23 UNL     1      14.181   3.735  25.913  1.00  0.00     0.407 C 
HETATM   38  F1  UNL     1      14.697   4.171  24.702  1.00  0.00    -0.169 F 
HETATM   39  F2  UNL     1      14.626   4.573  26.898  1.00  0.00    -0.169 F 
HETATM   40  F3  UNL     1      14.643   2.476  26.189  1.00  0.00    -0.169 F 
ENDBRANCH  31  37
ENDBRANCH  25  26
ENDBRANCH   1  25
TORSDOF 9
ENDMDL
