MODEL 1
REMARK VINA RESULT: -8.815044122      0.000      0.000
REMARK  8 active torsions:
REMARK  status: ('A' for Active; 'I' for Inactive)
REMARK    1  A    between atoms: C3_3  and  O1_4 
REMARK    2  A    between atoms: N2_15  and  N3_16 
REMARK       I    between atoms: N3_16  and  C9_18 
REMARK    3  A    between atoms: C9_18  and  C10_20 
REMARK    4  A    between atoms: C10_20  and  N4_21 
REMARK    5  A    between atoms: N5_24  and  C13_25 
REMARK    6  A    between atoms: C13_25  and  C14_26 
REMARK    7  A    between atoms: C14_26  and  C15_27 
REMARK    8  A    between atoms: C15_27  and  N6_28 
ROOT
HETATM    1  N3  UNL     1      12.698   7.971  25.500  1.00  0.00    -0.261 N 
ATOM      2  H3  UNL     1      12.686   8.561  26.332  1.00  0.00     0.190 HD
HETATM    3  C9  UNL     1      12.733   8.580  24.248  1.00  0.00     0.275 C 
HETATM    4  O2  UNL     1      12.763   7.902  23.196  1.00  0.00    -0.265 OA
ENDROOT
BRANCH   1   5
HETATM    5  N2  UNL     1      12.679   6.571  25.663  1.00  0.00    -0.258 N 
HETATM    6  C8  UNL     1      14.013   6.017  25.585  1.00  0.00     0.158 C 
HETATM    7  C7  UNL     1      14.178   4.916  26.570  1.00  0.00     0.106 C 
HETATM    8  C6  UNL     1      13.933   3.532  25.988  1.00  0.00     0.275 C 
HETATM    9  C5  UNL     1      12.610   3.045  26.425  1.00  0.00     0.046 A 
HETATM   10  F1  UNL     1      14.981   2.751  26.325  1.00  0.00    -0.201 F 
HETATM   11  F2  UNL     1      13.980   3.677  24.592  1.00  0.00    -0.201 F 
HETATM   12  C2  UNL     1      12.474   1.907  27.149  1.00  0.00     0.003 A 
HETATM   13  C4  UNL     1      11.359   3.565  26.222  1.00  0.00     0.033 A 
HETATM   14  C1  UNL     1      13.564   1.030  27.592  1.00  0.00     0.054 C 
HETATM   15  C3  UNL     1      11.109   1.744  27.386  1.00  0.00     0.147 A 
HETATM   16  N1  UNL     1      10.463   2.750  26.821  1.00  0.00    -0.339 N 
ATOM     17  H1  UNL     1       9.453   2.888  26.833  1.00  0.00     0.168 HD
HETATM   18  C25 UNL     1      10.735   4.737  25.546  1.00  0.00     0.162 C 
HETATM   19  C24 UNL     1      11.391   6.021  25.841  1.00  0.00     0.243 C 
HETATM   20  O3  UNL     1      10.613   6.841  26.389  1.00  0.00    -0.271 OA
BRANCH  15  21
HETATM   21  O1  UNL     1      10.528   0.696  28.101  1.00  0.00    -0.346 OA
ATOM     22  H1  UNL     1      10.249  -0.134  27.734  1.00  0.00     0.219 HD
ENDBRANCH  15  21
ENDBRANCH   1   5
BRANCH   3  23
HETATM   23  C10 UNL     1      12.729  10.058  24.179  1.00  0.00     0.162 C 
BRANCH  23  24
HETATM   24  N4  UNL     1      14.034  10.577  24.076  1.00  0.00    -0.382 N 
HETATM   25  C11 UNL     1      15.126   9.790  24.503  1.00  0.00     0.152 C 
HETATM   26  C12 UNL     1      15.496  10.054  25.944  1.00  0.00     0.292 C 
HETATM   27  N5  UNL     1      15.728  11.459  26.126  1.00  0.00     0.091 N 
HETATM   28  C22 UNL     1      14.472  12.155  25.892  1.00  0.00     0.292 C 
HETATM   29  C23 UNL     1      14.152  11.976  24.422  1.00  0.00     0.152 C 
BRANCH  27  30
HETATM   30  C13 UNL     1      16.165  11.783  27.467  1.00  0.00     0.274 C 
BRANCH  30  31
HETATM   31  C14 UNL     1      16.401  10.629  28.366  1.00  0.00     0.050 C 
BRANCH  31  32
HETATM   32  C15 UNL     1      17.824  10.492  28.861  1.00  0.00     0.119 C 
BRANCH  32  33
HETATM   33  N6  UNL     1      17.808  10.241  30.261  1.00  0.00    -0.408 N 
HETATM   34  C16 UNL     1      17.832  11.407  31.064  1.00  0.00     0.117 C 
HETATM   35  C17 UNL     1      16.852  11.357  32.220  1.00  0.00     0.019 C 
HETATM   36  C18 UNL     1      16.985  10.106  33.026  1.00  0.00     0.004 C 
HETATM   37  C19 UNL     1      17.434   8.941  32.210  1.00  0.00     0.024 C 
HETATM   38  C20 UNL     1      17.077   9.125  30.728  1.00  0.00     0.075 C 
HETATM   39  C21 UNL     1      17.604   7.859  30.049  1.00  0.00     0.032 C 
ENDBRANCH  32  33
ENDBRANCH  31  32
ENDBRANCH  30  31
ENDBRANCH  27  30
ENDBRANCH  23  24
ENDBRANCH   3  23
TORSDOF 8
ENDMDL
MODEL 2
REMARK VINA RESULT: -8.757565930      0.646      1.392
REMARK  8 active torsions:
REMARK  status: ('A' for Active; 'I' for Inactive)
REMARK    1  A    between atoms: C3_3  and  O1_4 
REMARK    2  A    between atoms: N2_15  and  N3_16 
REMARK       I    between atoms: N3_16  and  C9_18 
REMARK    3  A    between atoms: C9_18  and  C10_20 
REMARK    4  A    between atoms: C10_20  and  N4_21 
REMARK    5  A    between atoms: N5_24  and  C13_25 
REMARK    6  A    between atoms: C13_25  and  C14_26 
REMARK    7  A    between atoms: C14_26  and  C15_27 
REMARK    8  A    between atoms: C15_27  and  N6_28 
ROOT
HETATM    1  N3  UNL     1      12.409   7.983  25.322  1.00  0.00    -0.261 N 
ATOM      2  H3  UNL     1      12.450   8.597  26.137  1.00  0.00     0.190 HD
HETATM    3  C9  UNL     1      12.309   8.558  24.058  1.00  0.00     0.275 C 
HETATM    4  O2  UNL     1      12.269   7.851  23.025  1.00  0.00    -0.265 OA
ENDROOT
BRANCH   1   5
HETATM    5  N2  UNL     1      12.457   6.589  25.522  1.00  0.00    -0.258 N 
HETATM    6  C8  UNL     1      13.814   6.096  25.450  1.00  0.00     0.158 C 
HETATM    7  C7  UNL     1      14.035   5.031  26.462  1.00  0.00     0.106 C 
HETATM    8  C6  UNL     1      13.853   3.622  25.918  1.00  0.00     0.275 C 
HETATM    9  C5  UNL     1      12.557   3.085  26.375  1.00  0.00     0.046 A 
HETATM   10  F1  UNL     1      14.938   2.900  26.269  1.00  0.00    -0.201 F 
HETATM   11  F2  UNL     1      13.886   3.732  24.518  1.00  0.00    -0.201 F 
HETATM   12  C2  UNL     1      12.477   1.961  27.129  1.00  0.00     0.003 A 
HETATM   13  C4  UNL     1      11.281   3.541  26.167  1.00  0.00     0.033 A 
HETATM   14  C1  UNL     1      13.610   1.148  27.588  1.00  0.00     0.054 C 
HETATM   15  C3  UNL     1      11.122   1.741  27.379  1.00  0.00     0.147 A 
HETATM   16  N1  UNL     1      10.428   2.700  26.792  1.00  0.00    -0.339 N 
ATOM     17  H1  UNL     1       9.412   2.791  26.807  1.00  0.00     0.168 HD
HETATM   18  C25 UNL     1      10.600   4.664  25.464  1.00  0.00     0.162 C 
HETATM   19  C24 UNL     1      11.196   5.984  25.722  1.00  0.00     0.243 C 
HETATM   20  O3  UNL     1      10.384   6.781  26.254  1.00  0.00    -0.271 OA
BRANCH  15  21
HETATM   21  O1  UNL     1      10.595   0.686  28.124  1.00  0.00    -0.346 OA
ATOM     22  H1  UNL     1      10.776  -0.236  27.981  1.00  0.00     0.219 HD
ENDBRANCH  15  21
ENDBRANCH   1   5
BRANCH   3  23
HETATM   23  C10 UNL     1      12.243  10.032  23.952  1.00  0.00     0.162 C 
BRANCH  23  24
HETATM   24  N4  UNL     1      13.522  10.599  23.787  1.00  0.00    -0.382 N 
HETATM   25  C11 UNL     1      14.648   9.929  24.316  1.00  0.00     0.152 C 
HETATM   26  C12 UNL     1      14.990  10.397  25.712  1.00  0.00     0.292 C 
HETATM   27  N5  UNL     1      15.151  11.823  25.710  1.00  0.00     0.091 N 
HETATM   28  C22 UNL     1      13.864  12.419  25.383  1.00  0.00     0.292 C 
HETATM   29  C23 UNL     1      13.568  12.034  23.947  1.00  0.00     0.152 C 
BRANCH  27  30
HETATM   30  C13 UNL     1      15.558  12.341  26.998  1.00  0.00     0.274 C 
BRANCH  30  31
HETATM   31  C14 UNL     1      16.756  11.708  27.599  1.00  0.00     0.050 C 
BRANCH  31  32
HETATM   32  C15 UNL     1      16.894  11.903  29.093  1.00  0.00     0.119 C 
BRANCH  32  33
HETATM   33  N6  UNL     1      16.934  10.630  29.727  1.00  0.00    -0.408 N 
HETATM   34  C16 UNL     1      16.953   9.533  28.832  1.00  0.00     0.117 C 
HETATM   35  C17 UNL     1      17.955   8.463  29.220  1.00  0.00     0.019 C 
HETATM   36  C18 UNL     1      17.812   8.036  30.645  1.00  0.00     0.004 C 
HETATM   37  C19 UNL     1      17.319   9.134  31.526  1.00  0.00     0.024 C 
HETATM   38  C20 UNL     1      17.649  10.514  30.940  1.00  0.00     0.075 C 
HETATM   39  C21 UNL     1      17.079  11.506  31.956  1.00  0.00     0.032 C 
ENDBRANCH  32  33
ENDBRANCH  31  32
ENDBRANCH  30  31
ENDBRANCH  27  30
ENDBRANCH  23  24
ENDBRANCH   3  23
TORSDOF 8
ENDMDL
MODEL 3
REMARK VINA RESULT: -8.671253823      3.951      9.262
REMARK  8 active torsions:
REMARK  status: ('A' for Active; 'I' for Inactive)
REMARK    1  A    between atoms: C3_3  and  O1_4 
REMARK    2  A    between atoms: N2_15  and  N3_16 
REMARK       I    between atoms: N3_16  and  C9_18 
REMARK    3  A    between atoms: C9_18  and  C10_20 
REMARK    4  A    between atoms: C10_20  and  N4_21 
REMARK    5  A    between atoms: N5_24  and  C13_25 
REMARK    6  A    between atoms: C13_25  and  C14_26 
REMARK    7  A    between atoms: C14_26  and  C15_27 
REMARK    8  A    between atoms: C15_27  and  N6_28 
ROOT
HETATM    1  N3  UNL     1      16.976   6.630  27.283  1.00  0.00    -0.261 N 
ATOM      2  H3  UNL     1      16.098   6.269  26.910  1.00  0.00     0.190 HD
HETATM    3  C9  UNL     1      18.173   6.096  26.812  1.00  0.00     0.275 C 
HETATM    4  O2  UNL     1      19.278   6.513  27.226  1.00  0.00    -0.265 OA
ENDROOT
BRANCH   1   5
HETATM    5  N2  UNL     1      16.931   7.650  28.254  1.00  0.00    -0.258 N 
HETATM    6  C8  UNL     1      17.004   7.104  29.591  1.00  0.00     0.158 C 
HETATM    7  C7  UNL     1      17.834   7.974  30.464  1.00  0.00     0.106 C 
HETATM    8  C6  UNL     1      17.026   8.972  31.280  1.00  0.00     0.275 C 
HETATM    9  C5  UNL     1      17.154  10.314  30.678  1.00  0.00     0.046 A 
HETATM   10  F1  UNL     1      17.422   8.871  32.566  1.00  0.00    -0.201 F 
HETATM   11  F2  UNL     1      15.694   8.528  31.240  1.00  0.00    -0.201 F 
HETATM   12  C2  UNL     1      17.672  11.358  31.370  1.00  0.00     0.003 A 
HETATM   13  C4  UNL     1      16.816  10.765  29.429  1.00  0.00     0.033 A 
HETATM   14  C1  UNL     1      18.165  11.319  32.752  1.00  0.00     0.054 C 
HETATM   15  C3  UNL     1      17.645  12.459  30.513  1.00  0.00     0.147 A 
HETATM   16  N1  UNL     1      17.128  12.077  29.358  1.00  0.00    -0.339 N 
ATOM     17  H1  UNL     1      16.986  12.676  28.545  1.00  0.00     0.168 HD
HETATM   18  C25 UNL     1      16.218  10.228  28.174  1.00  0.00     0.162 C 
HETATM   19  C24 UNL     1      16.803   8.954  27.726  1.00  0.00     0.243 C 
HETATM   20  O3  UNL     1      17.322   9.041  26.586  1.00  0.00    -0.271 OA
BRANCH  15  21
HETATM   21  O1  UNL     1      18.091  13.743  30.827  1.00  0.00    -0.346 OA
ATOM     22  H1  UNL     1      18.355  14.405  30.199  1.00  0.00     0.219 HD
ENDBRANCH  15  21
ENDBRANCH   1   5
BRANCH   3  23
HETATM   23  C10 UNL     1      18.118   5.011  25.807  1.00  0.00     0.162 C 
BRANCH  23  24
HETATM   24  N4  UNL     1      17.129   5.255  24.834  1.00  0.00    -0.382 N 
HETATM   25  C11 UNL     1      15.896   5.820  25.228  1.00  0.00     0.152 C 
HETATM   26  C12 UNL     1      14.855   4.768  25.537  1.00  0.00     0.292 C 
HETATM   27  N5  UNL     1      14.720   3.887  24.412  1.00  0.00     0.091 N 
HETATM   28  C22 UNL     1      15.980   3.178  24.244  1.00  0.00     0.292 C 
HETATM   29  C23 UNL     1      17.003   4.218  23.834  1.00  0.00     0.152 C 
BRANCH  27  30
HETATM   30  C13 UNL     1      13.682   2.897  24.601  1.00  0.00     0.274 C 
BRANCH  30  31
HETATM   31  C14 UNL     1      13.679   2.206  25.912  1.00  0.00     0.050 C 
BRANCH  31  32
HETATM   32  C15 UNL     1      12.444   2.449  26.753  1.00  0.00     0.119 C 
BRANCH  32  33
HETATM   33  N6  UNL     1      12.290   1.374  27.672  1.00  0.00    -0.408 N 
HETATM   34  C16 UNL     1      13.276   0.364  27.562  1.00  0.00     0.117 C 
HETATM   35  C17 UNL     1      13.810  -0.098  28.904  1.00  0.00     0.019 C 
HETATM   36  C18 UNL     1      12.719  -0.467  29.856  1.00  0.00     0.004 C 
HETATM   37  C19 UNL     1      11.473   0.323  29.636  1.00  0.00     0.024 C 
HETATM   38  C20 UNL     1      11.775   1.666  28.955  1.00  0.00     0.075 C 
HETATM   39  C21 UNL     1      10.406   2.334  28.807  1.00  0.00     0.032 C 
ENDBRANCH  32  33
ENDBRANCH  31  32
ENDBRANCH  30  31
ENDBRANCH  27  30
ENDBRANCH  23  24
ENDBRANCH   3  23
TORSDOF 8
ENDMDL
MODEL 4
REMARK VINA RESULT: -8.534919009      3.931      8.599
REMARK  8 active torsions:
REMARK  status: ('A' for Active; 'I' for Inactive)
REMARK    1  A    between atoms: C3_3  and  O1_4 
REMARK    2  A    between atoms: N2_15  and  N3_16 
REMARK       I    between atoms: N3_16  and  C9_18 
REMARK    3  A    between atoms: C9_18  and  C10_20 
REMARK    4  A    between atoms: C10_20  and  N4_21 
REMARK    5  A    between atoms: N5_24  and  C13_25 
REMARK    6  A    between atoms: C13_25  and  C14_26 
REMARK    7  A    between atoms: C14_26  and  C15_27 
REMARK    8  A    between atoms: C15_27  and  N6_28 
ROOT
HETATM    1  N3  UNL     1      17.379   6.381  27.105  1.00  0.00    -0.261 N 
ATOM      2  H3  UNL     1      16.555   5.906  26.736  1.00  0.00     0.190 HD
HETATM    3  C9  UNL     1      18.637   5.989  26.653  1.00  0.00     0.275 C 
HETATM    4  O2  UNL     1      19.678   6.549  27.063  1.00  0.00    -0.265 OA
ENDROOT
BRANCH   1   5
HETATM    5  N2  UNL     1      17.200   7.409  28.053  1.00  0.00    -0.258 N 
HETATM    6  C8  UNL     1      17.197   6.883  29.401  1.00  0.00     0.158 C 
HETATM    7  C7  UNL     1      17.905   7.809  30.322  1.00  0.00     0.106 C 
HETATM    8  C6  UNL     1      16.981   8.769  31.055  1.00  0.00     0.275 C 
HETATM    9  C5  UNL     1      17.082  10.109  30.444  1.00  0.00     0.046 A 
HETATM   10  F1  UNL     1      17.278   8.706  32.370  1.00  0.00    -0.201 F 
HETATM   11  F2  UNL     1      15.683   8.251  30.917  1.00  0.00    -0.201 F 
HETATM   12  C2  UNL     1      17.485  11.189  31.157  1.00  0.00     0.003 A 
HETATM   13  C4  UNL     1      16.821  10.525  29.165  1.00  0.00     0.033 A 
HETATM   14  C1  UNL     1      17.868  11.193  32.575  1.00  0.00     0.054 C 
HETATM   15  C3  UNL     1      17.466  12.276  30.284  1.00  0.00     0.147 A 
HETATM   16  N1  UNL     1      17.064  11.852  29.098  1.00  0.00    -0.339 N 
ATOM     17  H1  UNL     1      16.956  12.433  28.266  1.00  0.00     0.168 HD
HETATM   18  C25 UNL     1      16.356   9.942  27.876  1.00  0.00     0.162 C 
HETATM   19  C24 UNL     1      17.044   8.697  27.496  1.00  0.00     0.243 C 
HETATM   20  O3  UNL     1      17.646   8.799  26.399  1.00  0.00    -0.271 OA
BRANCH  15  21
HETATM   21  O1  UNL     1      17.814  13.586  30.611  1.00  0.00    -0.346 OA
ATOM     22  H1  UNL     1      17.225  14.242  30.966  1.00  0.00     0.219 HD
ENDBRANCH  15  21
ENDBRANCH   1   5
BRANCH   3  23
HETATM   23  C10 UNL     1      18.724   4.885  25.672  1.00  0.00     0.162 C 
BRANCH  23  24
HETATM   24  N4  UNL     1      18.012   5.180  24.493  1.00  0.00    -0.382 N 
HETATM   25  C11 UNL     1      16.858   5.992  24.567  1.00  0.00     0.152 C 
HETATM   26  C12 UNL     1      15.594   5.180  24.728  1.00  0.00     0.292 C 
HETATM   27  N5  UNL     1      15.514   4.210  23.674  1.00  0.00     0.091 N 
HETATM   28  C22 UNL     1      16.620   3.279  23.837  1.00  0.00     0.292 C 
HETATM   29  C23 UNL     1      17.886   4.070  23.575  1.00  0.00     0.152 C 
BRANCH  27  30
HETATM   30  C13 UNL     1      14.287   3.443  23.713  1.00  0.00     0.274 C 
BRANCH  30  31
HETATM   31  C14 UNL     1      13.779   3.106  25.063  1.00  0.00     0.050 C 
BRANCH  31  32
HETATM   32  C15 UNL     1      12.336   3.486  25.310  1.00  0.00     0.119 C 
BRANCH  32  33
HETATM   33  N6  UNL     1      12.291   4.565  26.236  1.00  0.00    -0.408 N 
HETATM   34  C16 UNL     1      13.105   4.387  27.381  1.00  0.00     0.117 C 
HETATM   35  C17 UNL     1      13.893   5.628  27.752  1.00  0.00     0.019 C 
HETATM   36  C18 UNL     1      13.031   6.844  27.848  1.00  0.00     0.004 C 
HETATM   37  C19 UNL     1      11.863   6.795  26.922  1.00  0.00     0.024 C 
HETATM   38  C20 UNL     1      12.136   5.873  25.725  1.00  0.00     0.075 C 
HETATM   39  C21 UNL     1      10.853   5.939  24.893  1.00  0.00     0.032 C 
ENDBRANCH  32  33
ENDBRANCH  31  32
ENDBRANCH  30  31
ENDBRANCH  27  30
ENDBRANCH  23  24
ENDBRANCH   3  23
TORSDOF 8
ENDMDL
MODEL 5
REMARK VINA RESULT: -8.455350082      1.494      1.752
REMARK  8 active torsions:
REMARK  status: ('A' for Active; 'I' for Inactive)
REMARK    1  A    between atoms: C3_3  and  O1_4 
REMARK    2  A    between atoms: N2_15  and  N3_16 
REMARK       I    between atoms: N3_16  and  C9_18 
REMARK    3  A    between atoms: C9_18  and  C10_20 
REMARK    4  A    between atoms: C10_20  and  N4_21 
REMARK    5  A    between atoms: N5_24  and  C13_25 
REMARK    6  A    between atoms: C13_25  and  C14_26 
REMARK    7  A    between atoms: C14_26  and  C15_27 
REMARK    8  A    between atoms: C15_27  and  N6_28 
ROOT
HETATM    1  N3  UNL     1      15.343   7.834  25.173  1.00  0.00    -0.261 N 
ATOM      2  H3  UNL     1      16.168   8.039  25.737  1.00  0.00     0.190 HD
HETATM    3  C9  UNL     1      14.985   8.725  24.164  1.00  0.00     0.275 C 
HETATM    4  O2  UNL     1      13.990   8.515  23.435  1.00  0.00    -0.265 OA
ENDROOT
BRANCH   1   5
HETATM    5  N2  UNL     1      14.610   6.662  25.445  1.00  0.00    -0.258 N 
HETATM    6  C8  UNL     1      15.191   5.515  24.782  1.00  0.00     0.158 C 
HETATM    7  C7  UNL     1      15.119   4.316  25.656  1.00  0.00     0.106 C 
HETATM    8  C6  UNL     1      13.908   3.434  25.387  1.00  0.00     0.275 C 
HETATM    9  C5  UNL     1      12.904   3.644  26.448  1.00  0.00     0.046 A 
HETATM   10  F1  UNL     1      14.345   2.166  25.243  1.00  0.00    -0.201 F 
HETATM   11  F2  UNL     1      13.406   3.825  24.135  1.00  0.00    -0.201 F 
HETATM   12  C2  UNL     1      12.486   2.630  27.244  1.00  0.00     0.003 A 
HETATM   13  C4  UNL     1      12.238   4.779  26.831  1.00  0.00     0.033 A 
HETATM   14  C1  UNL     1      12.945   1.237  27.180  1.00  0.00     0.054 C 
HETATM   15  C3  UNL     1      11.548   3.171  28.124  1.00  0.00     0.147 A 
HETATM   16  N1  UNL     1      11.417   4.459  27.855  1.00  0.00    -0.339 N 
ATOM     17  H1  UNL     1      10.798   5.106  28.342  1.00  0.00     0.168 HD
HETATM   18  C25 UNL     1      12.167   6.215  26.441  1.00  0.00     0.162 C 
HETATM   19  C24 UNL     1      13.481   6.857  26.270  1.00  0.00     0.243 C 
HETATM   20  O3  UNL     1      13.645   7.826  27.052  1.00  0.00    -0.271 OA
BRANCH  15  21
HETATM   21  O1  UNL     1      10.867   2.468  29.117  1.00  0.00    -0.346 OA
ATOM     22  H1  UNL     1      10.925   2.634  30.051  1.00  0.00     0.219 HD
ENDBRANCH  15  21
ENDBRANCH   1   5
BRANCH   3  23
HETATM   23  C10 UNL     1      15.805   9.941  23.969  1.00  0.00     0.162 C 
BRANCH  23  24
HETATM   24  N4  UNL     1      15.203  11.073  24.553  1.00  0.00    -0.382 N 
HETATM   25  C11 UNL     1      15.764  12.350  24.321  1.00  0.00     0.152 C 
HETATM   26  C12 UNL     1      16.756  12.743  25.391  1.00  0.00     0.292 C 
HETATM   27  N5  UNL     1      16.132  12.642  26.680  1.00  0.00     0.091 N 
HETATM   28  C22 UNL     1      15.812  11.243  26.915  1.00  0.00     0.292 C 
HETATM   29  C23 UNL     1      14.741  10.875  25.907  1.00  0.00     0.152 C 
BRANCH  27  30
HETATM   30  C13 UNL     1      16.997  13.080  27.754  1.00  0.00     0.274 C 
BRANCH  30  31
HETATM   31  C14 UNL     1      16.951  12.267  28.992  1.00  0.00     0.050 C 
BRANCH  31  32
HETATM   32  C15 UNL     1      18.263  11.617  29.374  1.00  0.00     0.119 C 
BRANCH  32  33
HETATM   33  N6  UNL     1      18.055  10.776  30.501  1.00  0.00    -0.408 N 
HETATM   34  C16 UNL     1      17.980  11.463  31.737  1.00  0.00     0.117 C 
HETATM   35  C17 UNL     1      16.852  10.975  32.625  1.00  0.00     0.019 C 
HETATM   36  C18 UNL     1      16.863   9.490  32.797  1.00  0.00     0.004 C 
HETATM   37  C19 UNL     1      17.409   8.778  31.605  1.00  0.00     0.024 C 
HETATM   38  C20 UNL     1      17.258   9.621  30.331  1.00  0.00     0.075 C 
HETATM   39  C21 UNL     1      17.861   8.753  29.226  1.00  0.00     0.032 C 
ENDBRANCH  32  33
ENDBRANCH  31  32
ENDBRANCH  30  31
ENDBRANCH  27  30
ENDBRANCH  23  24
ENDBRANCH   3  23
TORSDOF 8
ENDMDL
