MODEL 1
REMARK VINA RESULT: -8.437136013      0.000      0.000
REMARK  11 active torsions:
REMARK  status: ('A' for Active; 'I' for Inactive)
REMARK    1  A    between atoms: C2_2  and  C3_3 
REMARK    2  A    between atoms: C3_3  and  C4_4 
REMARK    3  A    between atoms: C4_4  and  S1_5 
REMARK    4  A    between atoms: S1_5  and  N1_8 
REMARK    5  A    between atoms: C7_11  and  C8_12 
REMARK    6  A    between atoms: C7_11  and  C20_31 
REMARK    7  A    between atoms: C8_12  and  N2_13 
REMARK    8  A    between atoms: C12_20  and  C14_23 
REMARK    9  A    between atoms: C15_24  and  C16_25 
REMARK   10  A    between atoms: C20_31  and  O4_32 
REMARK   11  A    between atoms: N5_34  and  O5_36 
ROOT
HETATM    1  N2  UNL     1      15.563   5.613  24.688  1.00  0.00    -0.313 N 
HETATM    2  C9  UNL     1      15.889   4.812  23.514  1.00  0.00     0.294 C 
HETATM    3  O3  UNL     1      15.192   4.662  22.476  1.00  0.00    -0.266 OA
HETATM    4  C10 UNL     1      17.206   4.179  23.731  1.00  0.00     0.326 C 
HETATM    5  F1  UNL     1      17.099   2.819  23.690  1.00  0.00    -0.195 F 
HETATM    6  F2  UNL     1      18.182   4.635  22.852  1.00  0.00    -0.195 F 
HETATM    7  C11 UNL     1      17.564   4.555  25.181  1.00  0.00     0.150 C 
HETATM    8  C12 UNL     1      16.848   5.879  25.272  1.00  0.00     0.195 C 
HETATM    9  C13 UNL     1      17.550   6.787  24.316  1.00  0.00     0.105 C 
HETATM   10  N3  UNL     1      18.093   7.519  23.583  1.00  0.00    -0.193 NA
ENDROOT
BRANCH   8  11
HETATM   11  C14 UNL     1      16.791   6.468  26.566  1.00  0.00    -0.052 C 
HETATM   12  C15 UNL     1      16.762   7.006  27.668  1.00  0.00    -0.045 C 
BRANCH  12  13
HETATM   13  C16 UNL     1      16.741   7.656  28.950  1.00  0.00     0.086 A 
HETATM   14  C17 UNL     1      17.801   7.973  29.775  1.00  0.00     0.040 A 
HETATM   15  C18 UNL     1      17.339   8.597  30.919  1.00  0.00     0.020 A 
HETATM   16  C19 UNL     1      15.966   8.649  30.763  1.00  0.00     0.089 A 
HETATM   17  N4  UNL     1      15.645   8.085  29.587  1.00  0.00    -0.359 N 
ATOM     18  H4  UNL     1      14.694   7.995  29.228  1.00  0.00     0.166 HD
ENDBRANCH  12  13
ENDBRANCH   8  11
BRANCH   1  19
HETATM   19  C8  UNL     1      14.237   6.012  24.955  1.00  0.00     0.147 C 
BRANCH  19  20
HETATM   20  C7  UNL     1      13.352   5.171  25.822  1.00  0.00     0.045 C 
HETATM   21  C6  UNL     1      13.955   3.765  25.836  1.00  0.00     0.035 C 
HETATM   22  C5  UNL     1      13.028   2.738  26.429  1.00  0.00     0.108 C 
HETATM   23  N1  UNL     1      11.852   3.337  26.961  1.00  0.00    -0.211 NA
HETATM   24  C22 UNL     1      11.104   4.048  25.980  1.00  0.00     0.108 C 
HETATM   25  C21 UNL     1      11.976   5.057  25.248  1.00  0.00     0.035 C 
BRANCH  23  26
HETATM   26  S1  UNL     1      10.896   2.270  27.914  1.00  0.00     0.211 S 
HETATM   27  O1  UNL     1      10.570   2.924  29.206  1.00  0.00    -0.211 OA
HETATM   28  O2  UNL     1       9.639   1.999  27.113  1.00  0.00    -0.211 OA
BRANCH  26  29
HETATM   29  C4  UNL     1      11.827   0.804  28.172  1.00  0.00     0.157 C 
BRANCH  29  30
HETATM   30  C3  UNL     1      11.842   0.282  29.563  1.00  0.00     0.016 C 
BRANCH  30  31
HETATM   31  C2  UNL     1      13.038  -0.508  29.962  1.00  0.00    -0.004 C 
HETATM   32  C1  UNL     1      14.015  -0.469  28.794  1.00  0.00     0.005 C 
ENDBRANCH  30  31
ENDBRANCH  29  30
ENDBRANCH  26  29
ENDBRANCH  23  26
BRANCH  20  33
HETATM   33  C20 UNL     1      13.243   5.709  27.205  1.00  0.00     0.145 C 
HETATM   34  N5  UNL     1      12.517   6.626  27.641  1.00  0.00    -0.250 N 
ATOM     35  H5  UNL     1      12.644   6.793  28.639  1.00  0.00     0.196 HD
BRANCH  33  36
HETATM   36  O4  UNL     1      14.074   5.088  28.138  1.00  0.00    -0.347 OA
ATOM     37  H4  UNL     1      14.271   5.613  28.905  1.00  0.00     0.219 HD
ENDBRANCH  33  36
BRANCH  34  38
HETATM   38  O5  UNL     1      11.614   7.437  27.091  1.00  0.00    -0.288 OA
ATOM     39  H5  UNL     1      11.664   8.194  26.520  1.00  0.00     0.244 HD
ENDBRANCH  34  38
ENDBRANCH  20  33
ENDBRANCH  19  20
ENDBRANCH   1  19
TORSDOF 11
ENDMDL
MODEL 2
REMARK VINA RESULT: -7.976447408      3.399      7.241
REMARK  11 active torsions:
REMARK  status: ('A' for Active; 'I' for Inactive)
REMARK    1  A    between atoms: C2_2  and  C3_3 
REMARK    2  A    between atoms: C3_3  and  C4_4 
REMARK    3  A    between atoms: C4_4  and  S1_5 
REMARK    4  A    between atoms: S1_5  and  N1_8 
REMARK    5  A    between atoms: C7_11  and  C8_12 
REMARK    6  A    between atoms: C7_11  and  C20_31 
REMARK    7  A    between atoms: C8_12  and  N2_13 
REMARK    8  A    between atoms: C12_20  and  C14_23 
REMARK    9  A    between atoms: C15_24  and  C16_25 
REMARK   10  A    between atoms: C20_31  and  O4_32 
REMARK   11  A    between atoms: N5_34  and  O5_36 
ROOT
HETATM    1  N2  UNL     1      12.503   5.268  24.971  1.00  0.00    -0.313 N 
HETATM    2  C9  UNL     1      12.049   6.602  24.600  1.00  0.00     0.294 C 
HETATM    3  O3  UNL     1      12.271   7.209  23.519  1.00  0.00    -0.266 OA
HETATM    4  C10 UNL     1      11.262   7.157  25.720  1.00  0.00     0.326 C 
HETATM    5  F1  UNL     1      11.832   8.306  26.186  1.00  0.00    -0.195 F 
HETATM    6  F2  UNL     1       9.923   7.350  25.402  1.00  0.00    -0.195 F 
HETATM    7  C11 UNL     1      11.409   6.103  26.834  1.00  0.00     0.150 C 
HETATM    8  C12 UNL     1      11.562   4.869  25.981  1.00  0.00     0.195 C 
HETATM    9  C13 UNL     1      10.257   4.697  25.277  1.00  0.00     0.105 C 
HETATM   10  N3  UNL     1       9.239   4.534  24.724  1.00  0.00    -0.193 NA
ENDROOT
BRANCH   8  11
HETATM   11  C14 UNL     1      11.916   3.676  26.671  1.00  0.00    -0.052 C 
HETATM   12  C15 UNL     1      12.203   2.661  27.298  1.00  0.00    -0.045 C 
BRANCH  12  13
HETATM   13  C16 UNL     1      12.526   1.481  28.053  1.00  0.00     0.086 A 
HETATM   14  C17 UNL     1      11.822   0.898  29.087  1.00  0.00     0.040 A 
HETATM   15  C18 UNL     1      12.487  -0.229  29.534  1.00  0.00     0.020 A 
HETATM   16  C19 UNL     1      13.616  -0.311  28.740  1.00  0.00     0.089 A 
HETATM   17  N4  UNL     1      13.609   0.715  27.874  1.00  0.00    -0.359 N 
ATOM     18  H4  UNL     1      14.331   0.888  27.175  1.00  0.00     0.166 HD
ENDBRANCH  12  13
ENDBRANCH   8  11
BRANCH   1  19
HETATM   19  C8  UNL     1      13.578   4.648  24.301  1.00  0.00     0.147 C 
BRANCH  19  20
HETATM   20  C7  UNL     1      14.986   4.867  24.761  1.00  0.00     0.045 C 
HETATM   21  C6  UNL     1      14.906   5.392  26.195  1.00  0.00     0.035 C 
HETATM   22  C5  UNL     1      16.220   5.928  26.695  1.00  0.00     0.108 C 
HETATM   23  N1  UNL     1      17.270   5.702  25.761  1.00  0.00    -0.211 NA
HETATM   24  C22 UNL     1      17.027   6.318  24.501  1.00  0.00     0.108 C 
HETATM   25  C21 UNL     1      15.671   5.914  23.942  1.00  0.00     0.035 C 
BRANCH  23  26
HETATM   26  S1  UNL     1      18.841   6.014  26.388  1.00  0.00     0.211 S 
HETATM   27  O1  UNL     1      19.736   4.876  26.059  1.00  0.00    -0.211 OA
HETATM   28  O2  UNL     1      19.317   7.288  25.721  1.00  0.00    -0.211 OA
BRANCH  26  29
HETATM   29  C4  UNL     1      18.693   6.211  28.127  1.00  0.00     0.157 C 
BRANCH  29  30
HETATM   30  C3  UNL     1      18.452   7.598  28.603  1.00  0.00     0.016 C 
BRANCH  30  31
HETATM   31  C2  UNL     1      17.871   7.740  29.965  1.00  0.00    -0.004 C 
HETATM   32  C1  UNL     1      16.404   8.113  29.795  1.00  0.00     0.005 C 
ENDBRANCH  30  31
ENDBRANCH  29  30
ENDBRANCH  26  29
ENDBRANCH  23  26
BRANCH  20  33
HETATM   33  C20 UNL     1      15.796   3.619  24.704  1.00  0.00     0.145 C 
HETATM   34  N5  UNL     1      16.442   3.141  23.749  1.00  0.00    -0.250 N 
ATOM     35  H5  UNL     1      16.911   2.266  23.986  1.00  0.00     0.196 HD
BRANCH  33  36
HETATM   36  O4  UNL     1      15.833   2.894  25.895  1.00  0.00    -0.347 OA
ATOM     37  H4  UNL     1      16.689   2.553  26.126  1.00  0.00     0.219 HD
ENDBRANCH  33  36
BRANCH  34  38
HETATM   38  O5  UNL     1      16.655   3.517  22.489  1.00  0.00    -0.288 OA
ATOM     39  H5  UNL     1      17.433   3.663  21.963  1.00  0.00     0.244 HD
ENDBRANCH  34  38
ENDBRANCH  20  33
ENDBRANCH  19  20
ENDBRANCH   1  19
TORSDOF 11
ENDMDL
MODEL 3
REMARK VINA RESULT: -7.946604530      1.335      1.962
REMARK  11 active torsions:
REMARK  status: ('A' for Active; 'I' for Inactive)
REMARK    1  A    between atoms: C2_2  and  C3_3 
REMARK    2  A    between atoms: C3_3  and  C4_4 
REMARK    3  A    between atoms: C4_4  and  S1_5 
REMARK    4  A    between atoms: S1_5  and  N1_8 
REMARK    5  A    between atoms: C7_11  and  C8_12 
REMARK    6  A    between atoms: C7_11  and  C20_31 
REMARK    7  A    between atoms: C8_12  and  N2_13 
REMARK    8  A    between atoms: C12_20  and  C14_23 
REMARK    9  A    between atoms: C15_24  and  C16_25 
REMARK   10  A    between atoms: C20_31  and  O4_32 
REMARK   11  A    between atoms: N5_34  and  O5_36 
ROOT
HETATM    1  N2  UNL     1      15.777   5.592  24.523  1.00  0.00    -0.313 N 
HETATM    2  C9  UNL     1      16.197   4.867  23.330  1.00  0.00     0.294 C 
HETATM    3  O3  UNL     1      15.516   4.642  22.295  1.00  0.00    -0.266 OA
HETATM    4  C10 UNL     1      17.591   4.418  23.522  1.00  0.00     0.326 C 
HETATM    5  F1  UNL     1      17.672   3.057  23.455  1.00  0.00    -0.195 F 
HETATM    6  F2  UNL     1      18.484   5.021  22.644  1.00  0.00    -0.195 F 
HETATM    7  C11 UNL     1      17.910   4.812  24.977  1.00  0.00     0.150 C 
HETATM    8  C12 UNL     1      17.020   6.023  25.101  1.00  0.00     0.195 C 
HETATM    9  C13 UNL     1      17.579   7.036  24.158  1.00  0.00     0.105 C 
HETATM   10  N3  UNL     1      18.007   7.851  23.435  1.00  0.00    -0.193 NA
ENDROOT
BRANCH   8  11
HETATM   11  C14 UNL     1      16.897   6.573  26.408  1.00  0.00    -0.052 C 
HETATM   12  C15 UNL     1      16.820   7.073  27.525  1.00  0.00    -0.045 C 
BRANCH  12  13
HETATM   13  C16 UNL     1      16.748   7.675  28.828  1.00  0.00     0.086 A 
HETATM   14  C17 UNL     1      15.631   8.054  29.545  1.00  0.00     0.040 A 
HETATM   15  C18 UNL     1      16.009   8.595  30.760  1.00  0.00     0.020 A 
HETATM   16  C19 UNL     1      17.391   8.533  30.758  1.00  0.00     0.089 A 
HETATM   17  N4  UNL     1      17.796   7.983  29.602  1.00  0.00    -0.359 N 
ATOM     18  H4  UNL     1      18.771   7.822  29.347  1.00  0.00     0.166 HD
ENDBRANCH  12  13
ENDBRANCH   8  11
BRANCH   1  19
HETATM   19  C8  UNL     1      14.412   5.799  24.810  1.00  0.00     0.147 C 
BRANCH  19  20
HETATM   20  C7  UNL     1      13.639   4.784  25.594  1.00  0.00     0.045 C 
HETATM   21  C6  UNL     1      12.210   4.802  25.050  1.00  0.00     0.035 C 
HETATM   22  C5  UNL     1      11.244   4.045  25.921  1.00  0.00     0.108 C 
HETATM   23  N1  UNL     1      11.910   3.375  26.985  1.00  0.00    -0.211 NA
HETATM   24  C22 UNL     1      12.621   4.267  27.837  1.00  0.00     0.108 C 
HETATM   25  C21 UNL     1      13.568   5.153  27.041  1.00  0.00     0.035 C 
BRANCH  23  26
HETATM   26  S1  UNL     1      10.917   2.256  27.835  1.00  0.00     0.211 S 
HETATM   27  O1  UNL     1      10.669   2.764  29.208  1.00  0.00    -0.211 OA
HETATM   28  O2  UNL     1       9.623   2.160  27.052  1.00  0.00    -0.211 OA
BRANCH  26  29
HETATM   29  C4  UNL     1      11.762   0.718  27.879  1.00  0.00     0.157 C 
BRANCH  29  30
HETATM   30  C3  UNL     1      12.921   0.642  28.807  1.00  0.00     0.016 C 
BRANCH  30  31
HETATM   31  C2  UNL     1      12.896  -0.457  29.810  1.00  0.00    -0.004 C 
HETATM   32  C1  UNL     1      11.788  -0.137  30.804  1.00  0.00     0.005 C 
ENDBRANCH  30  31
ENDBRANCH  29  30
ENDBRANCH  26  29
ENDBRANCH  23  26
BRANCH  20  33
HETATM   33  C20 UNL     1      14.226   3.421  25.482  1.00  0.00     0.145 C 
HETATM   34  N5  UNL     1      14.192   2.624  24.522  1.00  0.00    -0.250 N 
ATOM     35  H5  UNL     1      14.680   1.749  24.716  1.00  0.00     0.196 HD
BRANCH  33  36
HETATM   36  O4  UNL     1      14.910   2.986  26.617  1.00  0.00    -0.347 OA
ATOM     37  H4  UNL     1      14.378   2.512  27.245  1.00  0.00     0.219 HD
ENDBRANCH  33  36
BRANCH  34  38
HETATM   38  O5  UNL     1      13.660   2.661  23.302  1.00  0.00    -0.288 OA
ATOM     39  H5  UNL     1      12.846   2.348  22.923  1.00  0.00     0.244 HD
ENDBRANCH  34  38
ENDBRANCH  20  33
ENDBRANCH  19  20
ENDBRANCH   1  19
TORSDOF 11
ENDMDL
MODEL 4
REMARK VINA RESULT: -7.938163629      2.753      6.451
REMARK  11 active torsions:
REMARK  status: ('A' for Active; 'I' for Inactive)
REMARK    1  A    between atoms: C2_2  and  C3_3 
REMARK    2  A    between atoms: C3_3  and  C4_4 
REMARK    3  A    between atoms: C4_4  and  S1_5 
REMARK    4  A    between atoms: S1_5  and  N1_8 
REMARK    5  A    between atoms: C7_11  and  C8_12 
REMARK    6  A    between atoms: C7_11  and  C20_31 
REMARK    7  A    between atoms: C8_12  and  N2_13 
REMARK    8  A    between atoms: C12_20  and  C14_23 
REMARK    9  A    between atoms: C15_24  and  C16_25 
REMARK   10  A    between atoms: C20_31  and  O4_32 
REMARK   11  A    between atoms: N5_34  and  O5_36 
ROOT
HETATM    1  N2  UNL     1      15.202   5.514  23.988  1.00  0.00    -0.313 N 
HETATM    2  C9  UNL     1      15.932   5.888  22.783  1.00  0.00     0.294 C 
HETATM    3  O3  UNL     1      16.268   7.047  22.425  1.00  0.00    -0.266 OA
HETATM    4  C10 UNL     1      16.231   4.661  22.018  1.00  0.00     0.326 C 
HETATM    5  F1  UNL     1      15.665   4.717  20.777  1.00  0.00    -0.195 F 
HETATM    6  F2  UNL     1      17.591   4.384  21.939  1.00  0.00    -0.195 F 
HETATM    7  C11 UNL     1      15.496   3.552  22.794  1.00  0.00     0.150 C 
HETATM    8  C12 UNL     1      15.567   4.138  24.181  1.00  0.00     0.195 C 
HETATM    9  C13 UNL     1      17.015   4.148  24.544  1.00  0.00     0.105 C 
HETATM   10  N3  UNL     1      18.143   4.153  24.855  1.00  0.00    -0.193 NA
ENDROOT
BRANCH   8  11
HETATM   11  C14 UNL     1      14.808   3.466  25.180  1.00  0.00    -0.052 C 
HETATM   12  C15 UNL     1      14.159   2.854  26.021  1.00  0.00    -0.045 C 
BRANCH  12  13
HETATM   13  C16 UNL     1      13.403   2.114  26.994  1.00  0.00     0.086 A 
HETATM   14  C17 UNL     1      12.143   2.377  27.491  1.00  0.00     0.040 A 
HETATM   15  C18 UNL     1      11.786   1.409  28.412  1.00  0.00     0.020 A 
HETATM   16  C19 UNL     1      12.869   0.551  28.460  1.00  0.00     0.089 A 
HETATM   17  N4  UNL     1      13.808   0.995  27.608  1.00  0.00    -0.359 N 
ATOM     18  H4  UNL     1      14.709   0.543  27.451  1.00  0.00     0.166 HD
ENDBRANCH  12  13
ENDBRANCH   8  11
BRANCH   1  19
HETATM   19  C8  UNL     1      14.446   6.462  24.708  1.00  0.00     0.147 C 
BRANCH  19  20
HETATM   20  C7  UNL     1      15.025   7.139  25.912  1.00  0.00     0.045 C 
HETATM   21  C6  UNL     1      14.685   8.625  25.788  1.00  0.00     0.035 C 
HETATM   22  C5  UNL     1      15.439   9.481  26.770  1.00  0.00     0.108 C 
HETATM   23  N1  UNL     1      16.200   8.692  27.678  1.00  0.00    -0.211 NA
HETATM   24  C22 UNL     1      17.162   7.873  27.022  1.00  0.00     0.108 C 
HETATM   25  C21 UNL     1      16.516   7.026  25.936  1.00  0.00     0.035 C 
BRANCH  23  26
HETATM   26  S1  UNL     1      16.842   9.579  29.004  1.00  0.00     0.211 S 
HETATM   27  O1  UNL     1      18.325   9.529  28.957  1.00  0.00    -0.211 OA
HETATM   28  O2  UNL     1      16.343  11.001  28.842  1.00  0.00    -0.211 OA
BRANCH  26  29
HETATM   29  C4  UNL     1      16.238   8.847  30.481  1.00  0.00     0.157 C 
BRANCH  29  30
HETATM   30  C3  UNL     1      17.199   8.779  31.611  1.00  0.00     0.016 C 
BRANCH  30  31
HETATM   31  C2  UNL     1      16.788   9.450  32.874  1.00  0.00    -0.004 C 
HETATM   32  C1  UNL     1      17.129  10.927  32.732  1.00  0.00     0.005 C 
ENDBRANCH  30  31
ENDBRANCH  29  30
ENDBRANCH  26  29
ENDBRANCH  23  26
BRANCH  20  33
HETATM   33  C20 UNL     1      14.489   6.582  27.183  1.00  0.00     0.145 C 
HETATM   34  N5  UNL     1      13.366   6.744  27.704  1.00  0.00    -0.250 N 
ATOM     35  H5  UNL     1      13.262   6.241  28.586  1.00  0.00     0.196 HD
BRANCH  33  36
HETATM   36  O4  UNL     1      15.377   5.762  27.880  1.00  0.00    -0.347 OA
ATOM     37  H4  UNL     1      15.025   4.914  28.125  1.00  0.00     0.219 HD
ENDBRANCH  33  36
BRANCH  34  38
HETATM   38  O5  UNL     1      12.274   7.427  27.365  1.00  0.00    -0.288 OA
ATOM     39  H5  UNL     1      11.342   7.288  27.484  1.00  0.00     0.244 HD
ENDBRANCH  34  38
ENDBRANCH  20  33
ENDBRANCH  19  20
ENDBRANCH   1  19
TORSDOF 11
ENDMDL
MODEL 5
REMARK VINA RESULT: -7.779562295      1.381      1.859
REMARK  11 active torsions:
REMARK  status: ('A' for Active; 'I' for Inactive)
REMARK    1  A    between atoms: C2_2  and  C3_3 
REMARK    2  A    between atoms: C3_3  and  C4_4 
REMARK    3  A    between atoms: C4_4  and  S1_5 
REMARK    4  A    between atoms: S1_5  and  N1_8 
REMARK    5  A    between atoms: C7_11  and  C8_12 
REMARK    6  A    between atoms: C7_11  and  C20_31 
REMARK    7  A    between atoms: C8_12  and  N2_13 
REMARK    8  A    between atoms: C12_20  and  C14_23 
REMARK    9  A    between atoms: C15_24  and  C16_25 
REMARK   10  A    between atoms: C20_31  and  O4_32 
REMARK   11  A    between atoms: N5_34  and  O5_36 
ROOT
HETATM    1  N2  UNL     1      15.466   6.321  25.337  1.00  0.00    -0.313 N 
HETATM    2  C9  UNL     1      15.781   5.652  24.081  1.00  0.00     0.294 C 
HETATM    3  O3  UNL     1      15.027   5.513  23.082  1.00  0.00    -0.266 OA
HETATM    4  C10 UNL     1      17.166   5.145  24.156  1.00  0.00     0.326 C 
HETATM    5  F1  UNL     1      17.190   3.788  24.007  1.00  0.00    -0.195 F 
HETATM    6  F2  UNL     1      18.025   5.766  23.257  1.00  0.00    -0.195 F 
HETATM    7  C11 UNL     1      17.592   5.442  25.607  1.00  0.00     0.150 C 
HETATM    8  C12 UNL     1      16.759   6.673  25.856  1.00  0.00     0.195 C 
HETATM    9  C13 UNL     1      17.296   7.720  24.937  1.00  0.00     0.105 C 
HETATM   10  N3  UNL     1      17.708   8.560  24.234  1.00  0.00    -0.193 NA
ENDROOT
BRANCH   8  11
HETATM   11  C14 UNL     1      16.740   7.150  27.197  1.00  0.00    -0.052 C 
HETATM   12  C15 UNL     1      16.756   7.582  28.345  1.00  0.00    -0.045 C 
BRANCH  12  13
HETATM   13  C16 UNL     1      16.797   8.103  29.684  1.00  0.00     0.086 A 
HETATM   14  C17 UNL     1      15.746   8.393  30.530  1.00  0.00     0.040 A 
HETATM   15  C18 UNL     1      16.227   8.875  31.733  1.00  0.00     0.020 A 
HETATM   16  C19 UNL     1      17.603   8.869  31.591  1.00  0.00     0.089 A 
HETATM   17  N4  UNL     1      17.907   8.406  30.368  1.00  0.00    -0.359 N 
ATOM     18  H4  UNL     1      18.855   8.300  30.007  1.00  0.00     0.166 HD
ENDBRANCH  12  13
ENDBRANCH   8  11
BRANCH   1  19
HETATM   19  C8  UNL     1      14.131   6.558  25.724  1.00  0.00     0.147 C 
BRANCH  19  20
HETATM   20  C7  UNL     1      13.259   5.428  26.176  1.00  0.00     0.045 C 
HETATM   21  C6  UNL     1      12.550   5.899  27.447  1.00  0.00     0.035 C 
HETATM   22  C5  UNL     1      11.860   4.779  28.180  1.00  0.00     0.108 C 
HETATM   23  N1  UNL     1      11.916   3.560  27.448  1.00  0.00    -0.211 NA
HETATM   24  C22 UNL     1      13.249   3.128  27.200  1.00  0.00     0.108 C 
HETATM   25  C21 UNL     1      14.070   4.226  26.540  1.00  0.00     0.035 C 
BRANCH  23  26
HETATM   26  S1  UNL     1      10.898   2.323  28.075  1.00  0.00     0.211 S 
HETATM   27  O1  UNL     1      10.374   2.743  29.399  1.00  0.00    -0.211 OA
HETATM   28  O2  UNL     1       9.771   2.156  27.076  1.00  0.00    -0.211 OA
BRANCH  26  29
HETATM   29  C4  UNL     1      11.859   0.860  28.216  1.00  0.00     0.157 C 
BRANCH  29  30
HETATM   30  C3  UNL     1      12.356   0.541  29.580  1.00  0.00     0.016 C 
BRANCH  30  31
HETATM   31  C2  UNL     1      11.712  -0.610  30.268  1.00  0.00    -0.004 C 
HETATM   32  C1  UNL     1      11.194  -0.104  31.607  1.00  0.00     0.005 C 
ENDBRANCH  30  31
ENDBRANCH  29  30
ENDBRANCH  26  29
ENDBRANCH  23  26
BRANCH  20  33
HETATM   33  C20 UNL     1      12.268   5.032  25.139  1.00  0.00     0.145 C 
HETATM   34  N5  UNL     1      11.093   5.422  24.981  1.00  0.00    -0.250 N 
ATOM     35  H5  UNL     1      10.633   4.985  24.182  1.00  0.00     0.196 HD
BRANCH  33  36
HETATM   36  O4  UNL     1      12.732   4.094  24.217  1.00  0.00    -0.347 OA
ATOM     37  H4  UNL     1      12.399   3.214  24.344  1.00  0.00     0.219 HD
ENDBRANCH  33  36
BRANCH  34  38
HETATM   38  O5  UNL     1      10.305   6.283  25.624  1.00  0.00    -0.288 OA
ATOM     39  H5  UNL     1       9.368   6.439  25.641  1.00  0.00     0.244 HD
ENDBRANCH  34  38
ENDBRANCH  20  33
ENDBRANCH  19  20
ENDBRANCH   1  19
TORSDOF 11
ENDMDL
