MODEL 1
REMARK VINA RESULT: -7.960608055      0.000      0.000
REMARK  3 active torsions:
REMARK  status: ('A' for Active; 'I' for Inactive)
REMARK    1  A    between atoms: N1_1  and  C1_4 
REMARK    2  A    between atoms: C4_16  and  C5_17 
REMARK    3  A    between atoms: C8_20  and  C9_21 
ROOT
HETATM    1  C1  UNL     1       5.046 -12.019   1.933  1.00  0.00     0.145 A 
HETATM    2  N2  UNL     1       5.082 -11.077   2.927  1.00  0.00    -0.247 N 
ATOM      3  H2  UNL     1       4.417 -10.304   2.920  1.00  0.00     0.191 HD
HETATM    4  N3  UNL     1       5.974 -11.171   3.892  1.00  0.00    -0.018 N 
HETATM    5  N4  UNL     1       6.223 -10.407   4.962  1.00  0.00    -0.260 N 
ATOM      6  H4  UNL     1       5.713  -9.561   5.213  1.00  0.00     0.190 HD
HETATM    7  C2  UNL     1       7.252 -10.929   5.654  1.00  0.00     0.217 A 
HETATM    8  N5  UNL     1       7.628 -12.031   4.986  1.00  0.00    -0.183 N 
ATOM      9  H5  UNL     1       8.389 -12.653   5.260  1.00  0.00     0.185 HD
HETATM   10  C3  UNL     1       6.842 -12.196   3.886  1.00  0.00     0.720 A 
HETATM   11  N6  UNL     1       6.815 -13.121   2.917  1.00  0.00    -0.182 N 
ATOM     12  H6  UNL     1       7.491 -13.884   2.946  1.00  0.00     0.184 HD
HETATM   13  C4  UNL     1       5.915 -13.077   1.892  1.00  0.00     0.120 A 
ENDROOT
BRANCH  13  14
HETATM   14  C5  UNL     1       5.938 -14.102   0.883  1.00  0.00     0.064 A 
HETATM   15  C6  UNL     1       5.390 -15.373   1.099  1.00  0.00     0.034 A 
HETATM   16  C7  UNL     1       5.571 -16.117  -0.046  1.00  0.00     0.037 A 
HETATM   17  C8  UNL     1       6.217 -15.326  -0.951  1.00  0.00     0.098 A 
HETATM   18  N8  UNL     1       6.418 -14.129  -0.355  1.00  0.00    -0.350 N 
ATOM     19  H8  UNL     1       6.883 -13.340  -0.803  1.00  0.00     0.166 HD
BRANCH  17  20
HETATM   20  C9  UNL     1       6.610 -15.709  -2.302  1.00  0.00     0.281 C 
HETATM   21  N7  UNL     1       6.066 -16.834  -2.966  1.00  0.00    -0.056 NA
HETATM   22  O1  UNL     1       7.471 -15.035  -2.941  1.00  0.00    -0.269 OA
ENDBRANCH  17  20
ENDBRANCH  13  14
BRANCH   1  23
HETATM   23  N1  UNL     1       4.154 -11.886   1.009  1.00  0.00    -0.382 N 
ATOM     24  H12 UNL     1       4.196 -11.086   0.377  1.00  0.00     0.157 HD
ATOM     25  H11 UNL     1       3.427 -12.597   0.944  1.00  0.00     0.157 HD
ENDBRANCH   1  23
TORSDOF 3
ENDMDL
MODEL 2
REMARK VINA RESULT: -7.538468886      2.394      6.615
REMARK  3 active torsions:
REMARK  status: ('A' for Active; 'I' for Inactive)
REMARK    1  A    between atoms: N1_1  and  C1_4 
REMARK    2  A    between atoms: C4_16  and  C5_17 
REMARK    3  A    between atoms: C8_20  and  C9_21 
ROOT
HETATM    1  C1  UNL     1       6.115 -15.917   1.180  1.00  0.00     0.145 A 
HETATM    2  N2  UNL     1       6.392 -17.011   0.403  1.00  0.00    -0.247 N 
ATOM      3  H2  UNL     1       6.565 -17.916   0.841  1.00  0.00     0.191 HD
HETATM    4  N3  UNL     1       6.435 -16.894  -0.909  1.00  0.00    -0.018 N 
HETATM    5  N4  UNL     1       6.677 -17.780  -1.882  1.00  0.00    -0.260 N 
ATOM      6  H4  UNL     1       6.883 -18.768  -1.741  1.00  0.00     0.190 HD
HETATM    7  C2  UNL     1       6.607 -17.164  -3.075  1.00  0.00     0.217 A 
HETATM    8  N5  UNL     1       6.315 -15.879  -2.814  1.00  0.00    -0.183 N 
ATOM      9  H5  UNL     1       6.195 -15.150  -3.517  1.00  0.00     0.185 HD
HETATM   10  C3  UNL     1       6.205 -15.695  -1.469  1.00  0.00     0.720 A 
HETATM   11  N6  UNL     1       5.934 -14.620  -0.717  1.00  0.00    -0.182 N 
ATOM     12  H6  UNL     1       5.766 -13.726  -1.179  1.00  0.00     0.184 HD
HETATM   13  C4  UNL     1       5.876 -14.678   0.646  1.00  0.00     0.120 A 
ENDROOT
BRANCH  13  14
HETATM   14  C5  UNL     1       5.579 -13.487   1.394  1.00  0.00     0.064 A 
HETATM   15  C6  UNL     1       4.267 -13.035   1.586  1.00  0.00     0.034 A 
HETATM   16  C7  UNL     1       4.318 -11.881   2.337  1.00  0.00     0.037 A 
HETATM   17  C8  UNL     1       5.631 -11.623   2.604  1.00  0.00     0.098 A 
HETATM   18  N8  UNL     1       6.352 -12.608   2.022  1.00  0.00    -0.350 N 
ATOM     19  H8  UNL     1       7.369 -12.669   2.061  1.00  0.00     0.166 HD
BRANCH  17  20
HETATM   20  C9  UNL     1       6.147 -10.497   3.373  1.00  0.00     0.281 C 
HETATM   21  N7  UNL     1       5.896 -10.336   4.756  1.00  0.00    -0.056 NA
HETATM   22  O1  UNL     1       6.853  -9.603   2.818  1.00  0.00    -0.269 OA
ENDBRANCH  17  20
ENDBRANCH  13  14
BRANCH   1  23
HETATM   23  N1  UNL     1       6.083 -16.080   2.460  1.00  0.00    -0.382 N 
ATOM     24  H12 UNL     1       5.422 -15.544   3.022  1.00  0.00     0.157 HD
ATOM     25  H11 UNL     1       6.733 -16.751   2.870  1.00  0.00     0.157 HD
ENDBRANCH   1  23
TORSDOF 3
ENDMDL
MODEL 3
REMARK VINA RESULT: -7.448438731      2.633      6.712
REMARK  3 active torsions:
REMARK  status: ('A' for Active; 'I' for Inactive)
REMARK    1  A    between atoms: N1_1  and  C1_4 
REMARK    2  A    between atoms: C4_16  and  C5_17 
REMARK    3  A    between atoms: C8_20  and  C9_21 
ROOT
HETATM    1  C1  UNL     1       7.030 -15.684   1.642  1.00  0.00     0.145 A 
HETATM    2  N2  UNL     1       7.282 -16.615   0.669  1.00  0.00    -0.247 N 
ATOM      3  H2  UNL     1       7.722 -17.502   0.915  1.00  0.00     0.191 HD
HETATM    4  N3  UNL     1       6.955 -16.365  -0.583  1.00  0.00    -0.018 N 
HETATM    5  N4  UNL     1       7.085 -17.083  -1.704  1.00  0.00    -0.260 N 
ATOM      6  H4  UNL     1       7.493 -18.016  -1.764  1.00  0.00     0.190 HD
HETATM    7  C2  UNL     1       6.595 -16.383  -2.743  1.00  0.00     0.217 A 
HETATM    8  N5  UNL     1       6.160 -15.219  -2.233  1.00  0.00    -0.183 N 
ATOM      9  H5  UNL     1       5.731 -14.466  -2.772  1.00  0.00     0.185 HD
HETATM   10  C3  UNL     1       6.378 -15.193  -0.889  1.00  0.00     0.720 A 
HETATM   11  N6  UNL     1       6.128 -14.275   0.055  1.00  0.00    -0.182 N 
ATOM     12  H6  UNL     1       5.688 -13.397  -0.217  1.00  0.00     0.184 HD
HETATM   13  C4  UNL     1       6.442 -14.476   1.368  1.00  0.00     0.120 A 
ENDROOT
BRANCH  13  14
HETATM   14  C5  UNL     1       6.147 -13.452   2.333  1.00  0.00     0.064 A 
HETATM   15  C6  UNL     1       4.927 -12.763   2.339  1.00  0.00     0.034 A 
HETATM   16  C7  UNL     1       4.954 -11.855   3.375  1.00  0.00     0.037 A 
HETATM   17  C8  UNL     1       6.163 -11.977   3.996  1.00  0.00     0.098 A 
HETATM   18  N8  UNL     1       6.846 -12.943   3.342  1.00  0.00    -0.350 N 
ATOM     19  H8  UNL     1       7.787 -13.246   3.593  1.00  0.00     0.166 HD
BRANCH  17  20
HETATM   20  C9  UNL     1       6.620 -11.207   5.147  1.00  0.00     0.281 C 
HETATM   21  N7  UNL     1       5.825 -10.216   5.768  1.00  0.00    -0.056 NA
HETATM   22  O1  UNL     1       7.770 -11.403   5.641  1.00  0.00    -0.269 OA
ENDBRANCH  17  20
ENDBRANCH  13  14
BRANCH   1  23
HETATM   23  N1  UNL     1       7.366 -15.973   2.854  1.00  0.00    -0.382 N 
ATOM     24  H12 UNL     1       7.609 -16.933   3.097  1.00  0.00     0.157 HD
ATOM     25  H11 UNL     1       7.377 -15.216   3.538  1.00  0.00     0.157 HD
ENDBRANCH   1  23
TORSDOF 3
ENDMDL
MODEL 4
REMARK VINA RESULT: -7.411211902      3.061      6.591
REMARK  3 active torsions:
REMARK  status: ('A' for Active; 'I' for Inactive)
REMARK    1  A    between atoms: N1_1  and  C1_4 
REMARK    2  A    between atoms: C4_16  and  C5_17 
REMARK    3  A    between atoms: C8_20  and  C9_21 
ROOT
HETATM    1  C1  UNL     1       5.573 -13.162   1.183  1.00  0.00     0.145 A 
HETATM    2  N2  UNL     1       5.284 -14.180   0.314  1.00  0.00    -0.247 N 
ATOM      3  H2  UNL     1       4.643 -14.019  -0.464  1.00  0.00     0.191 HD
HETATM    4  N3  UNL     1       5.832 -15.367   0.482  1.00  0.00    -0.018 N 
HETATM    5  N4  UNL     1       5.725 -16.511  -0.204  1.00  0.00    -0.260 N 
ATOM      6  H4  UNL     1       5.151 -16.648  -1.036  1.00  0.00     0.190 HD
HETATM    7  C2  UNL     1       6.491 -17.452   0.374  1.00  0.00     0.217 A 
HETATM    8  N5  UNL     1       7.072 -16.861   1.431  1.00  0.00    -0.183 N 
ATOM      9  H5  UNL     1       7.718 -17.316   2.076  1.00  0.00     0.185 HD
HETATM   10  C3  UNL     1       6.671 -15.562   1.511  1.00  0.00     0.720 A 
HETATM   11  N6  UNL     1       6.960 -14.572   2.367  1.00  0.00    -0.182 N 
ATOM     12  H6  UNL     1       7.602 -14.759   3.137  1.00  0.00     0.184 HD
HETATM   13  C4  UNL     1       6.424 -13.322   2.245  1.00  0.00     0.120 A 
ENDROOT
BRANCH  13  14
HETATM   14  C5  UNL     1       6.776 -12.304   3.196  1.00  0.00     0.064 A 
HETATM   15  C6  UNL     1       7.835 -11.413   2.978  1.00  0.00     0.034 A 
HETATM   16  C7  UNL     1       7.915 -10.569   4.064  1.00  0.00     0.037 A 
HETATM   17  C8  UNL     1       6.928 -10.928   4.936  1.00  0.00     0.098 A 
HETATM   18  N8  UNL     1       6.270 -11.970   4.378  1.00  0.00    -0.350 N 
ATOM     19  H8  UNL     1       5.479 -12.444   4.814  1.00  0.00     0.166 HD
BRANCH  17  20
HETATM   20  C9  UNL     1       6.646 -10.300   6.221  1.00  0.00     0.281 C 
HETATM   21  N7  UNL     1       7.631 -10.132   7.223  1.00  0.00    -0.056 NA
HETATM   22  O1  UNL     1       5.484  -9.875   6.492  1.00  0.00    -0.269 OA
ENDBRANCH  17  20
ENDBRANCH  13  14
BRANCH   1  23
HETATM   23  N1  UNL     1       5.013 -12.017   0.978  1.00  0.00    -0.382 N 
ATOM     24  H12 UNL     1       4.184 -11.958   0.387  1.00  0.00     0.157 HD
ATOM     25  H11 UNL     1       5.428 -11.198   1.421  1.00  0.00     0.157 HD
ENDBRANCH   1  23
TORSDOF 3
ENDMDL
MODEL 5
REMARK VINA RESULT: -7.295493626      1.707      1.925
REMARK  3 active torsions:
REMARK  status: ('A' for Active; 'I' for Inactive)
REMARK    1  A    between atoms: N1_1  and  C1_4 
REMARK    2  A    between atoms: C4_16  and  C5_17 
REMARK    3  A    between atoms: C8_20  and  C9_21 
ROOT
HETATM    1  C1  UNL     1       4.960 -12.354   1.996  1.00  0.00     0.145 A 
HETATM    2  N2  UNL     1       5.030 -11.310   2.880  1.00  0.00    -0.247 N 
ATOM      3  H2  UNL     1       4.375 -10.532   2.803  1.00  0.00     0.191 HD
HETATM    4  N3  UNL     1       5.944 -11.311   3.831  1.00  0.00    -0.018 N 
HETATM    5  N4  UNL     1       6.228 -10.439   4.804  1.00  0.00    -0.260 N 
ATOM      6  H4  UNL     1       5.734  -9.563   4.972  1.00  0.00     0.190 HD
HETATM    7  C2  UNL     1       7.265 -10.897   5.527  1.00  0.00     0.217 A 
HETATM    8  N5  UNL     1       7.612 -12.072   4.975  1.00  0.00    -0.183 N 
ATOM      9  H5  UNL     1       8.371 -12.671   5.299  1.00  0.00     0.185 HD
HETATM   10  C3  UNL     1       6.798 -12.343   3.917  1.00  0.00     0.720 A 
HETATM   11  N6  UNL     1       6.737 -13.368   3.056  1.00  0.00    -0.182 N 
ATOM     12  H6  UNL     1       7.404 -14.134   3.155  1.00  0.00     0.184 HD
HETATM   13  C4  UNL     1       5.814 -13.424   2.052  1.00  0.00     0.120 A 
ENDROOT
BRANCH  13  14
HETATM   14  C5  UNL     1       5.801 -14.553   1.162  1.00  0.00     0.064 A 
HETATM   15  C6  UNL     1       6.275 -14.470  -0.153  1.00  0.00     0.034 A 
HETATM   16  C7  UNL     1       6.126 -15.708  -0.740  1.00  0.00     0.037 A 
HETATM   17  C8  UNL     1       5.573 -16.539   0.191  1.00  0.00     0.098 A 
HETATM   18  N8  UNL     1       5.394 -15.808   1.314  1.00  0.00    -0.350 N 
ATOM     19  H8  UNL     1       4.994 -16.177   2.177  1.00  0.00     0.166 HD
BRANCH  17  20
HETATM   20  C9  UNL     1       5.242 -17.946  -0.002  1.00  0.00     0.281 C 
HETATM   21  N7  UNL     1       3.915 -18.433   0.049  1.00  0.00    -0.056 NA
HETATM   22  O1  UNL     1       6.151 -18.799  -0.225  1.00  0.00    -0.269 OA
ENDBRANCH  17  20
ENDBRANCH  13  14
BRANCH   1  23
HETATM   23  N1  UNL     1       4.048 -12.309   1.083  1.00  0.00    -0.382 N 
ATOM     24  H12 UNL     1       3.125 -11.938   1.307  1.00  0.00     0.157 HD
ATOM     25  H11 UNL     1       4.289 -12.653   0.153  1.00  0.00     0.157 HD
ENDBRANCH   1  23
TORSDOF 3
ENDMDL
