MODEL 1
REMARK VINA RESULT: -7.835532858      0.000      0.000
REMARK  4 active torsions:
REMARK  status: ('A' for Active; 'I' for Inactive)
REMARK    1  A    between atoms: N1_1  and  C1_4 
REMARK    2  A    between atoms: C4_8  and  C5_9 
REMARK    3  A    between atoms: C5_9  and  O1_10 
REMARK    4  A    between atoms: C5_9  and  N3_12 
ROOT
HETATM    1  C1  UNL     1       7.324 -10.406   5.907  1.00  0.00     0.116 A 
HETATM    2  C2  UNL     1       6.142 -11.094   5.709  1.00  0.00     0.067 A 
HETATM    3  C3  UNL     1       5.753 -11.402   4.426  1.00  0.00     0.120 A 
HETATM    4  N2  UNL     1       6.522 -11.030   3.399  1.00  0.00    -0.140 N 
HETATM    5  C4  UNL     1       6.343 -11.221   2.065  1.00  0.00     0.168 A 
HETATM    6  N5  UNL     1       7.409 -10.650   1.480  1.00  0.00    -0.270 N 
ATOM      7  H5  UNL     1       7.572 -10.623   0.473  1.00  0.00     0.189 HD
HETATM    8  N6  UNL     1       8.218 -10.128   2.387  1.00  0.00    -0.130 N 
ATOM      9  H6  UNL     1       9.095  -9.640   2.202  1.00  0.00     0.205 HD
HETATM   10  C10 UNL     1       7.668 -10.361   3.614  1.00  0.00     0.706 A 
HETATM   11  N7  UNL     1       8.071 -10.046   4.868  1.00  0.00    -0.175 N 
ATOM     12  H7  UNL     1       8.943  -9.538   5.014  1.00  0.00     0.186 HD
ENDROOT
BRANCH   5  13
HETATM   13  C5  UNL     1       5.183 -11.928   1.442  1.00  0.00     0.291 C 
BRANCH  13  14
HETATM   14  O1  UNL     1       4.032 -11.297   1.953  1.00  0.00    -0.369 OA
ATOM     15  H1  UNL     1       3.328 -11.524   1.356  1.00  0.00     0.212 HD
ENDBRANCH  13  14
BRANCH  13  16
HETATM   16  N3  UNL     1       5.212 -13.328   1.647  1.00  0.00    -0.358 N 
HETATM   17  C6  UNL     1       4.291 -14.128   0.947  1.00  0.00     0.152 C 
HETATM   18  C7  UNL     1       5.100 -15.102   0.079  1.00  0.00     0.252 C 
HETATM   19  N4  UNL     1       5.740 -15.997   1.009  1.00  0.00    -0.069 N 
HETATM   20  C8  UNL     1       6.630 -15.333   1.920  1.00  0.00     0.276 C 
ATOM     21  H42 UNL     1       5.047 -16.547   1.517  1.00  0.00     0.277 HD
ATOM     22  H41 UNL     1       6.223 -16.748   0.515  1.00  0.00     0.277 HD
HETATM   23  C9  UNL     1       6.404 -13.897   2.122  1.00  0.00     0.088 C 
ENDBRANCH  13  16
ENDBRANCH   5  13
BRANCH   1  24
HETATM   24  N1  UNL     1       7.638 -10.143   7.138  1.00  0.00    -0.385 N 
ATOM     25  H12 UNL     1       7.103  -9.509   7.731  1.00  0.00     0.157 HD
ATOM     26  H11 UNL     1       8.468 -10.611   7.503  1.00  0.00     0.157 HD
ENDBRANCH   1  24
TORSDOF 4
ENDMDL
MODEL 2
REMARK VINA RESULT: -7.525771262      1.478      5.158
REMARK  4 active torsions:
REMARK  status: ('A' for Active; 'I' for Inactive)
REMARK    1  A    between atoms: N1_1  and  C1_4 
REMARK    2  A    between atoms: C4_8  and  C5_9 
REMARK    3  A    between atoms: C5_9  and  O1_10 
REMARK    4  A    between atoms: C5_9  and  N3_12 
ROOT
HETATM    1  C1  UNL     1       6.496 -16.910   2.627  1.00  0.00     0.116 A 
HETATM    2  C2  UNL     1       6.298 -16.100   3.729  1.00  0.00     0.067 A 
HETATM    3  C3  UNL     1       5.823 -14.822   3.544  1.00  0.00     0.120 A 
HETATM    4  N2  UNL     1       5.565 -14.389   2.308  1.00  0.00    -0.140 N 
HETATM    5  C4  UNL     1       5.097 -13.183   1.889  1.00  0.00     0.168 A 
HETATM    6  N5  UNL     1       5.019 -13.279   0.551  1.00  0.00    -0.270 N 
ATOM      7  H5  UNL     1       4.700 -12.532  -0.066  1.00  0.00     0.189 HD
HETATM    8  N6  UNL     1       5.414 -14.474   0.143  1.00  0.00    -0.130 N 
ATOM      9  H6  UNL     1       5.448 -14.799  -0.823  1.00  0.00     0.205 HD
HETATM   10  C10 UNL     1       5.764 -15.193   1.249  1.00  0.00     0.706 A 
HETATM   11  N7  UNL     1       6.231 -16.455   1.406  1.00  0.00    -0.175 N 
ATOM     12  H7  UNL     1       6.377 -17.053   0.592  1.00  0.00     0.186 HD
ENDROOT
BRANCH   5  13
HETATM   13  C5  UNL     1       4.756 -12.033   2.779  1.00  0.00     0.291 C 
BRANCH  13  14
HETATM   14  O1  UNL     1       3.827 -11.255   2.060  1.00  0.00    -0.369 OA
ATOM     15  H1  UNL     1       4.298 -10.475   1.791  1.00  0.00     0.212 HD
ENDBRANCH  13  14
BRANCH  13  16
HETATM   16  N3  UNL     1       5.894 -11.312   3.215  1.00  0.00    -0.358 N 
HETATM   17  C6  UNL     1       6.133 -11.208   4.597  1.00  0.00     0.152 C 
HETATM   18  C7  UNL     1       7.498 -11.854   4.874  1.00  0.00     0.252 C 
HETATM   19  N4  UNL     1       8.464 -10.978   4.260  1.00  0.00    -0.069 N 
HETATM   20  C8  UNL     1       8.290 -10.841   2.842  1.00  0.00     0.276 C 
ATOM     21  H42 UNL     1       8.463 -10.065   4.715  1.00  0.00     0.277 HD
ATOM     22  H41 UNL     1       9.414 -11.276   4.481  1.00  0.00     0.277 HD
HETATM   23  C9  UNL     1       6.959 -11.161   2.313  1.00  0.00     0.088 C 
ENDBRANCH  13  16
ENDBRANCH   5  13
BRANCH   1  24
HETATM   24  N1  UNL     1       6.945 -18.104   2.862  1.00  0.00    -0.385 N 
ATOM     25  H12 UNL     1       6.839 -18.882   2.211  1.00  0.00     0.157 HD
ATOM     26  H11 UNL     1       7.425 -18.240   3.752  1.00  0.00     0.157 HD
ENDBRANCH   1  24
TORSDOF 4
ENDMDL
MODEL 3
REMARK VINA RESULT: -7.515285121      1.456      5.491
REMARK  4 active torsions:
REMARK  status: ('A' for Active; 'I' for Inactive)
REMARK    1  A    between atoms: N1_1  and  C1_4 
REMARK    2  A    between atoms: C4_8  and  C5_9 
REMARK    3  A    between atoms: C5_9  and  O1_10 
REMARK    4  A    between atoms: C5_9  and  N3_12 
ROOT
HETATM    1  C1  UNL     1       6.460 -17.229   2.068  1.00  0.00     0.116 A 
HETATM    2  C2  UNL     1       6.149 -16.631   3.274  1.00  0.00     0.067 A 
HETATM    3  C3  UNL     1       5.806 -15.300   3.293  1.00  0.00     0.120 A 
HETATM    4  N2  UNL     1       5.781 -14.611   2.149  1.00  0.00    -0.140 N 
HETATM    5  C4  UNL     1       5.476 -13.305   1.926  1.00  0.00     0.168 A 
HETATM    6  N5  UNL     1       5.607 -13.132   0.601  1.00  0.00    -0.270 N 
ATOM      7  H5  UNL     1       5.447 -12.250   0.113  1.00  0.00     0.189 HD
HETATM    8  N6  UNL     1       5.973 -14.260   0.014  1.00  0.00    -0.130 N 
ATOM      9  H6  UNL     1       6.138 -14.394  -0.983  1.00  0.00     0.205 HD
HETATM   10  C10 UNL     1       6.088 -15.211   0.986  1.00  0.00     0.706 A 
HETATM   11  N7  UNL     1       6.429 -16.522   0.942  1.00  0.00    -0.175 N 
ATOM     12  H7  UNL     1       6.659 -16.963   0.052  1.00  0.00     0.186 HD
ENDROOT
BRANCH   5  13
HETATM   13  C5  UNL     1       5.083 -12.319   2.978  1.00  0.00     0.291 C 
BRANCH  13  14
HETATM   14  O1  UNL     1       4.532 -11.222   2.287  1.00  0.00    -0.369 OA
ATOM     15  H1  UNL     1       3.692 -11.520   1.960  1.00  0.00     0.212 HD
ENDBRANCH  13  14
BRANCH  13  16
HETATM   16  N3  UNL     1       6.149 -11.976   3.844  1.00  0.00    -0.358 N 
HETATM   17  C6  UNL     1       7.415 -11.725   3.285  1.00  0.00     0.152 C 
HETATM   18  C7  UNL     1       7.793 -10.281   3.644  1.00  0.00     0.252 C 
HETATM   19  N4  UNL     1       8.010 -10.289   5.068  1.00  0.00    -0.069 N 
HETATM   20  C8  UNL     1       6.847 -10.668   5.820  1.00  0.00     0.276 C 
ATOM     21  H42 UNL     1       8.805 -10.880   5.310  1.00  0.00     0.277 HD
ATOM     22  H41 UNL     1       8.367  -9.387   5.385  1.00  0.00     0.277 HD
HETATM   23  C9  UNL     1       5.826 -11.437   5.100  1.00  0.00     0.088 C 
ENDBRANCH  13  16
ENDBRANCH   5  13
BRANCH   1  24
HETATM   24  N1  UNL     1       6.777 -18.486   2.112  1.00  0.00    -0.385 N 
ATOM     25  H12 UNL     1       7.475 -18.868   2.750  1.00  0.00     0.157 HD
ATOM     26  H11 UNL     1       6.284 -19.101   1.465  1.00  0.00     0.157 HD
ENDBRANCH   1  24
TORSDOF 4
ENDMDL
MODEL 4
REMARK VINA RESULT: -7.318968417      0.658      1.298
REMARK  4 active torsions:
REMARK  status: ('A' for Active; 'I' for Inactive)
REMARK    1  A    between atoms: N1_1  and  C1_4 
REMARK    2  A    between atoms: C4_8  and  C5_9 
REMARK    3  A    between atoms: C5_9  and  O1_10 
REMARK    4  A    between atoms: C5_9  and  N3_12 
ROOT
HETATM    1  C1  UNL     1       7.258 -10.434   5.726  1.00  0.00     0.116 A 
HETATM    2  C2  UNL     1       6.222 -11.342   5.618  1.00  0.00     0.067 A 
HETATM    3  C3  UNL     1       5.851 -11.791   4.372  1.00  0.00     0.120 A 
HETATM    4  N2  UNL     1       6.497 -11.340   3.292  1.00  0.00    -0.140 N 
HETATM    5  C4  UNL     1       6.308 -11.638   1.979  1.00  0.00     0.168 A 
HETATM    6  N5  UNL     1       7.223 -10.912   1.317  1.00  0.00    -0.270 N 
ATOM      7  H5  UNL     1       7.340 -10.912   0.303  1.00  0.00     0.189 HD
HETATM    8  N6  UNL     1       7.951 -10.195   2.157  1.00  0.00    -0.130 N 
ATOM      9  H6  UNL     1       8.712  -9.563   1.908  1.00  0.00     0.205 HD
HETATM   10  C10 UNL     1       7.501 -10.457   3.419  1.00  0.00     0.706 A 
HETATM   11  N7  UNL     1       7.884 -10.001   4.636  1.00  0.00    -0.175 N 
ATOM     12  H7  UNL     1       8.649  -9.330   4.716  1.00  0.00     0.186 HD
ENDROOT
BRANCH   5  13
HETATM   13  C5  UNL     1       5.281 -12.585   1.448  1.00  0.00     0.291 C 
BRANCH  13  14
HETATM   14  O1  UNL     1       4.240 -12.592   2.396  1.00  0.00    -0.369 OA
ATOM     15  H1  UNL     1       4.293 -13.434   2.831  1.00  0.00     0.212 HD
ENDBRANCH  13  14
BRANCH  13  16
HETATM   16  N3  UNL     1       5.806 -13.868   1.159  1.00  0.00    -0.358 N 
HETATM   17  C6  UNL     1       6.678 -14.460   2.090  1.00  0.00     0.152 C 
HETATM   18  C7  UNL     1       6.028 -15.772   2.552  1.00  0.00     0.252 C 
HETATM   19  N4  UNL     1       6.064 -16.639   1.402  1.00  0.00    -0.069 N 
HETATM   20  C8  UNL     1       5.332 -16.126   0.277  1.00  0.00     0.276 C 
ATOM     21  H42 UNL     1       7.026 -16.853   1.140  1.00  0.00     0.277 HD
ATOM     22  H41 UNL     1       5.742 -17.577   1.645  1.00  0.00     0.277 HD
HETATM   23  C9  UNL     1       5.097 -14.678   0.258  1.00  0.00     0.088 C 
ENDBRANCH  13  16
ENDBRANCH   5  13
BRANCH   1  24
HETATM   24  N1  UNL     1       7.563 -10.047   6.926  1.00  0.00    -0.385 N 
ATOM     25  H12 UNL     1       8.000 -10.655   7.618  1.00  0.00     0.157 HD
ATOM     26  H11 UNL     1       7.342  -9.079   7.160  1.00  0.00     0.157 HD
ENDBRANCH   1  24
TORSDOF 4
ENDMDL
MODEL 5
REMARK VINA RESULT: -7.313284135      2.674      4.187
REMARK  4 active torsions:
REMARK  status: ('A' for Active; 'I' for Inactive)
REMARK    1  A    between atoms: N1_1  and  C1_4 
REMARK    2  A    between atoms: C4_8  and  C5_9 
REMARK    3  A    between atoms: C5_9  and  O1_10 
REMARK    4  A    between atoms: C5_9  and  N3_12 
ROOT
HETATM    1  C1  UNL     1       5.962 -11.400   3.274  1.00  0.00     0.116 A 
HETATM    2  C2  UNL     1       5.571 -11.584   1.962  1.00  0.00     0.067 A 
HETATM    3  C3  UNL     1       5.593 -12.852   1.428  1.00  0.00     0.120 A 
HETATM    4  N2  UNL     1       5.992 -13.877   2.185  1.00  0.00    -0.140 N 
HETATM    5  C4  UNL     1       6.093 -15.197   1.878  1.00  0.00     0.168 A 
HETATM    6  N5  UNL     1       6.542 -15.788   2.997  1.00  0.00    -0.270 N 
ATOM      7  H5  UNL     1       6.725 -16.787   3.092  1.00  0.00     0.189 HD
HETATM    8  N6  UNL     1       6.714 -14.898   3.961  1.00  0.00    -0.130 N 
ATOM      9  H6  UNL     1       7.045 -15.090   4.906  1.00  0.00     0.205 HD
HETATM   10  C10 UNL     1       6.368 -13.676   3.460  1.00  0.00     0.706 A 
HETATM   11  N7  UNL     1       6.355 -12.437   4.007  1.00  0.00    -0.175 N 
ATOM     12  H7  UNL     1       6.644 -12.301   4.976  1.00  0.00     0.186 HD
ENDROOT
BRANCH   5  13
HETATM   13  C5  UNL     1       5.760 -15.803   0.553  1.00  0.00     0.291 C 
BRANCH  13  14
HETATM   14  O1  UNL     1       5.322 -17.113   0.831  1.00  0.00    -0.369 OA
ATOM     15  H1  UNL     1       4.681 -17.028   1.527  1.00  0.00     0.212 HD
ENDBRANCH  13  14
BRANCH  13  16
HETATM   16  N3  UNL     1       6.829 -15.739  -0.372  1.00  0.00    -0.358 N 
HETATM   17  C6  UNL     1       7.900 -16.638  -0.224  1.00  0.00     0.152 C 
HETATM   18  C7  UNL     1       7.971 -17.478  -1.508  1.00  0.00     0.252 C 
HETATM   19  N4  UNL     1       8.392 -16.562  -2.538  1.00  0.00    -0.069 N 
HETATM   20  C8  UNL     1       7.478 -15.473  -2.741  1.00  0.00     0.276 C 
ATOM     21  H42 UNL     1       9.332 -16.214  -2.350  1.00  0.00     0.277 HD
ATOM     22  H41 UNL     1       8.565 -17.057  -3.413  1.00  0.00     0.277 HD
HETATM   23  C9  UNL     1       6.576 -15.161  -1.627  1.00  0.00     0.088 C 
ENDBRANCH  13  16
ENDBRANCH   5  13
BRANCH   1  24
HETATM   24  N1  UNL     1       5.921 -10.183   3.723  1.00  0.00    -0.385 N 
ATOM     25  H12 UNL     1       5.287  -9.472   3.360  1.00  0.00     0.157 HD
ATOM     26  H11 UNL     1       6.568  -9.957   4.478  1.00  0.00     0.157 HD
ENDBRANCH   1  24
TORSDOF 4
ENDMDL
