MODEL 1
REMARK VINA RESULT: -6.997882572      0.000      0.000
REMARK  4 active torsions:
REMARK  status: ('A' for Active; 'I' for Inactive)
REMARK    1  A    between atoms: N1_1  and  C1_4 
REMARK    2  A    between atoms: C2_7  and  N3_8 
REMARK    3  A    between atoms: C4_10  and  S1_11 
REMARK    4  A    between atoms: S1_11  and  N4_12 
ROOT
HETATM    1  N3  UNL     1       5.465 -13.755   1.050  1.00  0.00    -0.249 N 
HETATM    2  C3  UNL     1       6.257 -13.277   2.013  1.00  0.00     0.145 A 
HETATM    3  C4  UNL     1       5.591 -12.216   2.631  1.00  0.00     0.113 A 
HETATM    4  C5  UNL     1       4.387 -12.100   1.990  1.00  0.00     0.134 A 
HETATM    5  N5  UNL     1       4.343 -13.033   1.051  1.00  0.00    -0.302 N 
ATOM      6  H5  UNL     1       3.559 -13.179   0.416  1.00  0.00     0.186 HD
ENDROOT
BRANCH   1   7
HETATM    7  C2  UNL     1       5.723 -14.839   0.153  1.00  0.00     0.143 A 
HETATM    8  N2  UNL     1       6.258 -14.614  -1.074  1.00  0.00    -0.175 N 
HETATM    9  C1  UNL     1       6.517 -15.601  -1.946  1.00  0.00     0.677 A 
ATOM     10  H2  UNL     1       6.473 -13.654  -1.345  1.00  0.00     0.186 HD
HETATM   11  N6  UNL     1       6.244 -16.880  -1.620  1.00  0.00    -0.202 N 
HETATM   12  C7  UNL     1       5.710 -17.151  -0.406  1.00  0.00     0.110 A 
ATOM     13  H6  UNL     1       6.437 -17.634  -2.279  1.00  0.00     0.183 HD
HETATM   14  C6  UNL     1       5.448 -16.132   0.482  1.00  0.00     0.068 A 
BRANCH   9  15
HETATM   15  N1  UNL     1       7.032 -15.367  -3.122  1.00  0.00    -0.234 N 
ATOM     16  H12 UNL     1       7.023 -14.406  -3.464  1.00  0.00     0.174 HD
ATOM     17  H11 UNL     1       7.435 -16.110  -3.692  1.00  0.00     0.174 HD
ENDBRANCH   9  15
ENDBRANCH   1   7
BRANCH   3  18
HETATM   18  S1  UNL     1       6.185 -11.248   3.950  1.00  0.00     0.259 S 
HETATM   19  O1  UNL     1       6.209  -9.817   3.549  1.00  0.00    -0.201 OA
HETATM   20  O2  UNL     1       5.254 -11.469   5.135  1.00  0.00    -0.201 OA
BRANCH  18  21
HETATM   21  N4  UNL     1       7.736 -11.837   4.424  1.00  0.00    -0.324 N 
ATOM     22  H42 UNL     1       8.366 -12.367   3.821  1.00  0.00     0.169 HD
ATOM     23  H41 UNL     1       7.910 -11.570   5.393  1.00  0.00     0.169 HD
ENDBRANCH  18  21
ENDBRANCH   3  18
TORSDOF 4
ENDMDL
MODEL 2
REMARK VINA RESULT: -6.648867540      4.071      6.599
REMARK  4 active torsions:
REMARK  status: ('A' for Active; 'I' for Inactive)
REMARK    1  A    between atoms: N1_1  and  C1_4 
REMARK    2  A    between atoms: C2_7  and  N3_8 
REMARK    3  A    between atoms: C4_10  and  S1_11 
REMARK    4  A    between atoms: S1_11  and  N4_12 
ROOT
HETATM    1  N3  UNL     1       6.426 -14.524   3.183  1.00  0.00    -0.249 N 
HETATM    2  C3  UNL     1       5.981 -15.129   2.078  1.00  0.00     0.145 A 
HETATM    3  C4  UNL     1       6.208 -16.500   2.217  1.00  0.00     0.113 A 
HETATM    4  C5  UNL     1       6.799 -16.664   3.441  1.00  0.00     0.134 A 
HETATM    5  N5  UNL     1       6.916 -15.465   3.992  1.00  0.00    -0.302 N 
ATOM      6  H5  UNL     1       7.324 -15.287   4.909  1.00  0.00     0.186 HD
ENDROOT
BRANCH   1   7
HETATM    7  C2  UNL     1       6.407 -13.128   3.492  1.00  0.00     0.143 A 
HETATM    8  N2  UNL     1       7.078 -12.645   4.568  1.00  0.00    -0.175 N 
HETATM    9  C1  UNL     1       7.087 -11.343   4.894  1.00  0.00     0.677 A 
ATOM     10  H2  UNL     1       7.598 -13.299   5.153  1.00  0.00     0.186 HD
HETATM   11  N6  UNL     1       6.409 -10.453   4.143  1.00  0.00    -0.202 N 
HETATM   12  C7  UNL     1       5.725 -10.890   3.060  1.00  0.00     0.110 A 
ATOM     13  H6  UNL     1       6.411  -9.463   4.387  1.00  0.00     0.183 HD
HETATM   14  C6  UNL     1       5.722 -12.228   2.733  1.00  0.00     0.068 A 
BRANCH   9  15
HETATM   15  N1  UNL     1       7.738 -10.895   5.933  1.00  0.00    -0.234 N 
ATOM     16  H12 UNL     1       7.804 -11.499   6.752  1.00  0.00     0.174 HD
ATOM     17  H11 UNL     1       8.175  -9.973   5.940  1.00  0.00     0.174 HD
ENDBRANCH   9  15
ENDBRANCH   1   7
BRANCH   3  18
HETATM   18  S1  UNL     1       5.812 -17.739   1.059  1.00  0.00     0.259 S 
HETATM   19  O1  UNL     1       5.433 -18.987   1.772  1.00  0.00    -0.201 OA
HETATM   20  O2  UNL     1       4.658 -17.220   0.212  1.00  0.00    -0.201 OA
BRANCH  18  21
HETATM   21  N4  UNL     1       7.150 -17.955  -0.008  1.00  0.00    -0.324 N 
ATOM     22  H42 UNL     1       7.935 -18.583   0.163  1.00  0.00     0.169 HD
ATOM     23  H41 UNL     1       7.022 -17.357  -0.825  1.00  0.00     0.169 HD
ENDBRANCH  18  21
ENDBRANCH   3  18
TORSDOF 4
ENDMDL
MODEL 3
REMARK VINA RESULT: -6.632312033      4.366      6.594
REMARK  4 active torsions:
REMARK  status: ('A' for Active; 'I' for Inactive)
REMARK    1  A    between atoms: N1_1  and  C1_4 
REMARK    2  A    between atoms: C2_7  and  N3_8 
REMARK    3  A    between atoms: C4_10  and  S1_11 
REMARK    4  A    between atoms: S1_11  and  N4_12 
ROOT
HETATM    1  N3  UNL     1       6.437 -14.470   3.129  1.00  0.00    -0.249 N 
HETATM    2  C3  UNL     1       5.975 -15.065   2.027  1.00  0.00     0.145 A 
HETATM    3  C4  UNL     1       6.190 -16.439   2.157  1.00  0.00     0.113 A 
HETATM    4  C5  UNL     1       6.792 -16.614   3.374  1.00  0.00     0.134 A 
HETATM    5  N5  UNL     1       6.925 -15.420   3.929  1.00  0.00    -0.302 N 
ATOM      6  H5  UNL     1       7.345 -15.249   4.843  1.00  0.00     0.186 HD
ENDROOT
BRANCH   1   7
HETATM    7  C2  UNL     1       6.434 -13.075   3.445  1.00  0.00     0.143 A 
HETATM    8  N2  UNL     1       7.082 -12.610   4.542  1.00  0.00    -0.175 N 
HETATM    9  C1  UNL     1       7.106 -11.310   4.875  1.00  0.00     0.677 A 
ATOM     10  H2  UNL     1       7.572 -13.276   5.140  1.00  0.00     0.186 HD
HETATM   11  N6  UNL     1       6.467 -10.404   4.108  1.00  0.00    -0.202 N 
HETATM   12  C7  UNL     1       5.808 -10.823   3.004  1.00  0.00     0.110 A 
ATOM     13  H6  UNL     1       6.480  -9.415   4.358  1.00  0.00     0.183 HD
HETATM   14  C6  UNL     1       5.790 -12.159   2.669  1.00  0.00     0.068 A 
BRANCH   9  15
HETATM   15  N1  UNL     1       7.734 -10.879   5.935  1.00  0.00    -0.234 N 
ATOM     16  H12 UNL     1       7.894 -11.538   6.696  1.00  0.00     0.174 HD
ATOM     17  H11 UNL     1       8.062  -9.916   6.014  1.00  0.00     0.174 HD
ENDBRANCH   9  15
ENDBRANCH   1   7
BRANCH   3  18
HETATM   18  S1  UNL     1       5.770 -17.669   0.998  1.00  0.00     0.259 S 
HETATM   19  O1  UNL     1       4.633 -17.201   0.163  1.00  0.00    -0.201 OA
HETATM   20  O2  UNL     1       7.003 -17.933   0.145  1.00  0.00    -0.201 OA
BRANCH  18  21
HETATM   21  N4  UNL     1       5.426 -19.136   1.838  1.00  0.00    -0.324 N 
ATOM     22  H42 UNL     1       5.744 -19.354   2.782  1.00  0.00     0.169 HD
ATOM     23  H41 UNL     1       4.861 -19.737   1.238  1.00  0.00     0.169 HD
ENDBRANCH  18  21
ENDBRANCH   3  18
TORSDOF 4
ENDMDL
MODEL 4
REMARK VINA RESULT: -6.617100838      2.426      3.035
REMARK  4 active torsions:
REMARK  status: ('A' for Active; 'I' for Inactive)
REMARK    1  A    between atoms: N1_1  and  C1_4 
REMARK    2  A    between atoms: C2_7  and  N3_8 
REMARK    3  A    between atoms: C4_10  and  S1_11 
REMARK    4  A    between atoms: S1_11  and  N4_12 
ROOT
HETATM    1  N3  UNL     1       6.237 -14.511   2.839  1.00  0.00    -0.249 N 
HETATM    2  C3  UNL     1       6.024 -13.483   2.014  1.00  0.00     0.145 A 
HETATM    3  C4  UNL     1       6.264 -12.305   2.724  1.00  0.00     0.113 A 
HETATM    4  C5  UNL     1       6.625 -12.691   3.987  1.00  0.00     0.134 A 
HETATM    5  N5  UNL     1       6.599 -14.014   4.023  1.00  0.00    -0.302 N 
ATOM      6  H5  UNL     1       6.824 -14.576   4.844  1.00  0.00     0.186 HD
ENDROOT
BRANCH   1   7
HETATM    7  C2  UNL     1       6.116 -15.908   2.556  1.00  0.00     0.143 A 
HETATM    8  N2  UNL     1       5.921 -16.346   1.287  1.00  0.00    -0.175 N 
HETATM    9  C1  UNL     1       5.802 -17.647   0.977  1.00  0.00     0.677 A 
ATOM     10  H2  UNL     1       5.862 -15.658   0.536  1.00  0.00     0.186 HD
HETATM   11  N6  UNL     1       5.873 -18.582   1.945  1.00  0.00    -0.202 N 
HETATM   12  C7  UNL     1       6.067 -18.190   3.226  1.00  0.00     0.110 A 
ATOM     13  H6  UNL     1       5.782 -19.571   1.716  1.00  0.00     0.183 HD
HETATM   14  C6  UNL     1       6.188 -16.853   3.535  1.00  0.00     0.068 A 
BRANCH   9  15
HETATM   15  N1  UNL     1       5.614 -18.051  -0.250  1.00  0.00    -0.234 N 
ATOM     16  H12 UNL     1       5.258 -18.996  -0.391  1.00  0.00     0.174 HD
ATOM     17  H11 UNL     1       5.812 -17.453  -1.052  1.00  0.00     0.174 HD
ENDBRANCH   9  15
ENDBRANCH   1   7
BRANCH   3  18
HETATM   18  S1  UNL     1       6.130 -10.680   2.112  1.00  0.00     0.259 S 
HETATM   19  O1  UNL     1       4.839 -10.522   1.394  1.00  0.00    -0.201 OA
HETATM   20  O2  UNL     1       6.213  -9.735   3.303  1.00  0.00    -0.201 OA
BRANCH  18  21
HETATM   21  N4  UNL     1       7.498 -10.342   1.116  1.00  0.00    -0.324 N 
ATOM     22  H42 UNL     1       7.998  -9.453   1.096  1.00  0.00     0.169 HD
ATOM     23  H41 UNL     1       7.715 -11.170   0.561  1.00  0.00     0.169 HD
ENDBRANCH  18  21
ENDBRANCH   3  18
TORSDOF 4
ENDMDL
MODEL 5
REMARK VINA RESULT: -6.466332730      1.212      1.461
REMARK  4 active torsions:
REMARK  status: ('A' for Active; 'I' for Inactive)
REMARK    1  A    between atoms: N1_1  and  C1_4 
REMARK    2  A    between atoms: C2_7  and  N3_8 
REMARK    3  A    between atoms: C4_10  and  S1_11 
REMARK    4  A    between atoms: S1_11  and  N4_12 
ROOT
HETATM    1  N3  UNL     1       6.330 -14.018   2.005  1.00  0.00    -0.249 N 
HETATM    2  C3  UNL     1       6.462 -12.690   1.954  1.00  0.00     0.145 A 
HETATM    3  C4  UNL     1       6.568 -12.217   3.264  1.00  0.00     0.113 A 
HETATM    4  C5  UNL     1       6.493 -13.320   4.072  1.00  0.00     0.134 A 
HETATM    5  N5  UNL     1       6.351 -14.379   3.289  1.00  0.00    -0.302 N 
ATOM      6  H5  UNL     1       6.268 -15.339   3.623  1.00  0.00     0.186 HD
ENDROOT
BRANCH   1   7
HETATM    7  C2  UNL     1       6.188 -14.932   0.914  1.00  0.00     0.143 A 
HETATM    8  N2  UNL     1       6.427 -14.535  -0.361  1.00  0.00    -0.175 N 
HETATM    9  C1  UNL     1       6.307 -15.359  -1.413  1.00  0.00     0.677 A 
ATOM     10  H2  UNL     1       6.710 -13.569  -0.527  1.00  0.00     0.186 HD
HETATM   11  N6  UNL     1       5.934 -16.641  -1.229  1.00  0.00    -0.202 N 
HETATM   12  C7  UNL     1       5.686 -17.081   0.027  1.00  0.00     0.110 A 
ATOM     13  H6  UNL     1       5.840 -17.272  -2.025  1.00  0.00     0.183 HD
HETATM   14  C6  UNL     1       5.812 -16.228   1.101  1.00  0.00     0.068 A 
BRANCH   9  15
HETATM   15  N1  UNL     1       6.541 -14.961  -2.634  1.00  0.00    -0.234 N 
ATOM     16  H12 UNL     1       6.040 -15.426  -3.391  1.00  0.00     0.174 HD
ATOM     17  H11 UNL     1       7.198 -14.209  -2.840  1.00  0.00     0.174 HD
ENDBRANCH   9  15
ENDBRANCH   1   7
BRANCH   3  18
HETATM   18  S1  UNL     1       6.759 -10.558   3.755  1.00  0.00     0.259 S 
HETATM   19  O1  UNL     1       6.569  -9.664   2.583  1.00  0.00    -0.201 OA
HETATM   20  O2  UNL     1       5.718 -10.277   4.831  1.00  0.00    -0.201 OA
BRANCH  18  21
HETATM   21  N4  UNL     1       8.303 -10.368   4.500  1.00  0.00    -0.324 N 
ATOM     22  H42 UNL     1       8.962 -11.127   4.676  1.00  0.00     0.169 HD
ATOM     23  H41 UNL     1       8.441  -9.384   4.730  1.00  0.00     0.169 HD
ENDBRANCH  18  21
ENDBRANCH   3  18
TORSDOF 4
ENDMDL
