MODEL 1
REMARK VINA RESULT: -7.274621934      0.000      0.000
REMARK  3 active torsions:
REMARK  status: ('A' for Active; 'I' for Inactive)
REMARK    1  A    between atoms: C3_4  and  N2_5 
REMARK    2  A    between atoms: C5_9  and  C6_10 
REMARK    3  A    between atoms: C9_20  and  N6_21 
ROOT
HETATM    1  N1  UNL     1       6.396 -15.721   4.121  1.00  0.00    -0.191 NA
HETATM    2  C1  UNL     1       6.352 -15.744   2.951  1.00  0.00     0.107 C 
HETATM    3  C2  UNL     1       6.317 -15.762   1.519  1.00  0.00     0.132 A 
HETATM    4  C3  UNL     1       5.937 -14.604   0.842  1.00  0.00     0.141 A 
HETATM    5  N4  UNL     1       5.904 -14.620  -0.498  1.00  0.00    -0.293 N 
ATOM      6  H4  UNL     1       5.630 -13.786  -1.017  1.00  0.00     0.172 HD
HETATM    7  C8  UNL     1       6.236 -15.741  -1.146  1.00  0.00     0.327 A 
HETATM    8  O3  UNL     1       6.202 -15.746  -2.418  1.00  0.00    -0.247 OA
HETATM    9  N5  UNL     1       6.606 -16.873  -0.530  1.00  0.00    -0.293 N 
ATOM     10  H5  UNL     1       6.849 -17.701  -1.075  1.00  0.00     0.172 HD
HETATM   11  C9  UNL     1       6.655 -16.909   0.826  1.00  0.00     0.127 A 
ENDROOT
BRANCH   4  12
HETATM   12  N2  UNL     1       5.602 -13.457   1.619  1.00  0.00    -0.300 N 
HETATM   13  C4  UNL     1       4.369 -13.078   2.000  1.00  0.00     0.190 A 
HETATM   14  N3  UNL     1       4.394 -11.951   2.724  1.00  0.00    -0.345 N 
HETATM   15  C5  UNL     1       5.680 -11.579   2.820  1.00  0.00     0.126 A 
ATOM     16  H3  UNL     1       3.589 -11.468   3.126  1.00  0.00     0.167 HD
HETATM   17  C7  UNL     1       6.424 -12.529   2.126  1.00  0.00     0.136 A 
BRANCH  15  18
HETATM   18  C6  UNL     1       6.148 -10.408   3.524  1.00  0.00     0.228 C 
HETATM   19  O1  UNL     1       6.850  -9.568   2.924  1.00  0.00    -0.643 OA
HETATM   20  O2  UNL     1       5.837 -10.197   4.847  1.00  0.00    -0.643 OA
ENDBRANCH  15  18
ENDBRANCH   4  12
BRANCH  11  21
HETATM   21  N6  UNL     1       7.011 -17.997   1.423  1.00  0.00    -0.384 N 
ATOM     22  H62 UNL     1       7.032 -18.028   2.442  1.00  0.00     0.157 HD
ATOM     23  H61 UNL     1       7.275 -18.839   0.910  1.00  0.00     0.157 HD
ENDBRANCH  11  21
TORSDOF 3
ENDMDL
MODEL 2
REMARK VINA RESULT: -7.274324790      2.576      3.923
REMARK  3 active torsions:
REMARK  status: ('A' for Active; 'I' for Inactive)
REMARK    1  A    between atoms: C3_4  and  N2_5 
REMARK    2  A    between atoms: C5_9  and  C6_10 
REMARK    3  A    between atoms: C9_20  and  N6_21 
ROOT
HETATM    1  N1  UNL     1       5.132 -10.754   1.476  1.00  0.00    -0.191 NA
HETATM    2  C1  UNL     1       5.445 -11.851   1.742  1.00  0.00     0.107 C 
HETATM    3  C2  UNL     1       5.812 -13.193   2.083  1.00  0.00     0.132 A 
HETATM    4  C3  UNL     1       6.604 -13.406   3.212  1.00  0.00     0.141 A 
HETATM    5  N4  UNL     1       6.948 -14.662   3.532  1.00  0.00    -0.293 N 
ATOM      6  H4  UNL     1       7.526 -14.844   4.352  1.00  0.00     0.172 HD
HETATM    7  C8  UNL     1       6.526 -15.671   2.764  1.00  0.00     0.327 A 
HETATM    8  O3  UNL     1       6.858 -16.857   3.076  1.00  0.00    -0.247 OA
HETATM    9  N5  UNL     1       5.764 -15.504   1.672  1.00  0.00    -0.293 N 
ATOM     10  H5  UNL     1       5.470 -16.311   1.122  1.00  0.00     0.172 HD
HETATM   11  C9  UNL     1       5.389 -14.253   1.306  1.00  0.00     0.127 A 
ENDROOT
BRANCH   4  12
HETATM   12  N2  UNL     1       7.005 -12.267   3.969  1.00  0.00    -0.300 N 
HETATM   13  C4  UNL     1       7.990 -11.405   3.660  1.00  0.00     0.190 A 
HETATM   14  N3  UNL     1       8.116 -10.439   4.581  1.00  0.00    -0.345 N 
HETATM   15  C5  UNL     1       7.188 -10.675   5.521  1.00  0.00     0.126 A 
ATOM     16  H3  UNL     1       8.788  -9.671   4.569  1.00  0.00     0.167 HD
HETATM   17  C7  UNL     1       6.501 -11.821   5.127  1.00  0.00     0.136 A 
BRANCH  15  18
HETATM   18  C6  UNL     1       6.983  -9.864   6.699  1.00  0.00     0.228 C 
HETATM   19  O1  UNL     1       5.822  -9.608   7.077  1.00  0.00    -0.643 OA
HETATM   20  O2  UNL     1       8.045  -9.366   7.416  1.00  0.00    -0.643 OA
ENDBRANCH  15  18
ENDBRANCH   4  12
BRANCH  11  21
HETATM   21  N6  UNL     1       4.656 -14.090   0.255  1.00  0.00    -0.384 N 
ATOM     22  H62 UNL     1       4.201 -13.190   0.093  1.00  0.00     0.157 HD
ATOM     23  H61 UNL     1       4.511 -14.832  -0.430  1.00  0.00     0.157 HD
ENDBRANCH  11  21
TORSDOF 3
ENDMDL
MODEL 3
REMARK VINA RESULT: -6.759831340      2.857      6.264
REMARK  3 active torsions:
REMARK  status: ('A' for Active; 'I' for Inactive)
REMARK    1  A    between atoms: C3_4  and  N2_5 
REMARK    2  A    between atoms: C5_9  and  C6_10 
REMARK    3  A    between atoms: C9_20  and  N6_21 
ROOT
HETATM    1  N1  UNL     1       4.259 -14.487   0.570  1.00  0.00    -0.191 NA
HETATM    2  C1  UNL     1       4.729 -13.887   1.459  1.00  0.00     0.107 C 
HETATM    3  C2  UNL     1       5.322 -13.149   2.534  1.00  0.00     0.132 A 
HETATM    4  C3  UNL     1       6.253 -13.789   3.353  1.00  0.00     0.141 A 
HETATM    5  N4  UNL     1       6.808 -13.099   4.360  1.00  0.00    -0.293 N 
ATOM      6  H4  UNL     1       7.492 -13.543   4.973  1.00  0.00     0.172 HD
HETATM    7  C8  UNL     1       6.457 -11.823   4.550  1.00  0.00     0.327 A 
HETATM    8  O3  UNL     1       6.991 -11.178   5.507  1.00  0.00    -0.247 OA
HETATM    9  N5  UNL     1       5.567 -11.176   3.783  1.00  0.00    -0.293 N 
ATOM     10  H5  UNL     1       5.337 -10.201   3.974  1.00  0.00     0.172 HD
HETATM   11  C9  UNL     1       4.976 -11.830   2.751  1.00  0.00     0.127 A 
ENDROOT
BRANCH   4  12
HETATM   12  N2  UNL     1       6.563 -15.151   3.072  1.00  0.00    -0.300 N 
HETATM   13  C4  UNL     1       7.380 -15.604   2.104  1.00  0.00     0.190 A 
HETATM   14  N3  UNL     1       7.460 -16.942   2.103  1.00  0.00    -0.345 N 
HETATM   15  C5  UNL     1       6.671 -17.379   3.097  1.00  0.00     0.126 A 
ATOM     16  H3  UNL     1       8.014 -17.517   1.469  1.00  0.00     0.167 HD
HETATM   17  C7  UNL     1       6.117 -16.249   3.695  1.00  0.00     0.136 A 
BRANCH  15  18
HETATM   18  C6  UNL     1       6.471 -18.767   3.441  1.00  0.00     0.228 C 
HETATM   19  O1  UNL     1       5.327 -19.261   3.376  1.00  0.00    -0.643 OA
HETATM   20  O2  UNL     1       7.520 -19.562   3.840  1.00  0.00    -0.643 OA
ENDBRANCH  15  18
ENDBRANCH   4  12
BRANCH  11  21
HETATM   21  N6  UNL     1       4.119 -11.209   2.012  1.00  0.00    -0.384 N 
ATOM     22  H62 UNL     1       3.874 -11.591   1.097  1.00  0.00     0.157 HD
ATOM     23  H61 UNL     1       3.669 -10.342   2.307  1.00  0.00     0.157 HD
ENDBRANCH  11  21
TORSDOF 3
ENDMDL
MODEL 4
REMARK VINA RESULT: -6.721520947      2.266      6.167
REMARK  3 active torsions:
REMARK  status: ('A' for Active; 'I' for Inactive)
REMARK    1  A    between atoms: C3_4  and  N2_5 
REMARK    2  A    between atoms: C5_9  and  C6_10 
REMARK    3  A    between atoms: C9_20  and  N6_21 
ROOT
HETATM    1  N1  UNL     1       4.180 -14.430   0.668  1.00  0.00    -0.191 NA
HETATM    2  C1  UNL     1       4.688 -13.812   1.524  1.00  0.00     0.107 C 
HETATM    3  C2  UNL     1       5.328 -13.054   2.557  1.00  0.00     0.132 A 
HETATM    4  C3  UNL     1       6.246 -13.695   3.389  1.00  0.00     0.141 A 
HETATM    5  N4  UNL     1       6.845 -12.986   4.357  1.00  0.00    -0.293 N 
ATOM      6  H4  UNL     1       7.521 -13.431   4.978  1.00  0.00     0.172 HD
HETATM    7  C8  UNL     1       6.548 -11.691   4.497  1.00  0.00     0.327 A 
HETATM    8  O3  UNL     1       7.123 -11.028   5.418  1.00  0.00    -0.247 OA
HETATM    9  N5  UNL     1       5.672 -11.041   3.717  1.00  0.00    -0.293 N 
ATOM     10  H5  UNL     1       5.483 -10.050   3.869  1.00  0.00     0.172 HD
HETATM   11  C9  UNL     1       5.038 -11.714   2.723  1.00  0.00     0.127 A 
ENDROOT
BRANCH   4  12
HETATM   12  N2  UNL     1       6.498 -15.079   3.162  1.00  0.00    -0.300 N 
HETATM   13  C4  UNL     1       5.971 -16.113   3.841  1.00  0.00     0.190 A 
HETATM   14  N3  UNL     1       6.412 -17.292   3.380  1.00  0.00    -0.345 N 
HETATM   15  C5  UNL     1       7.255 -17.023   2.371  1.00  0.00     0.126 A 
ATOM     16  H3  UNL     1       6.156 -18.216   3.729  1.00  0.00     0.167 HD
HETATM   17  C7  UNL     1       7.300 -15.637   2.245  1.00  0.00     0.136 A 
BRANCH  15  18
HETATM   18  C6  UNL     1       7.955 -18.020   1.595  1.00  0.00     0.228 C 
HETATM   19  O1  UNL     1       8.834 -18.720   2.138  1.00  0.00    -0.643 OA
HETATM   20  O2  UNL     1       7.673 -18.216   0.263  1.00  0.00    -0.643 OA
ENDBRANCH  15  18
ENDBRANCH   4  12
BRANCH  11  21
HETATM   21  N6  UNL     1       4.194 -11.092   1.970  1.00  0.00    -0.384 N 
ATOM     22  H62 UNL     1       4.474 -10.800   1.033  1.00  0.00     0.157 HD
ATOM     23  H61 UNL     1       3.244 -10.876   2.277  1.00  0.00     0.157 HD
ENDBRANCH  11  21
TORSDOF 3
ENDMDL
MODEL 5
REMARK VINA RESULT: -6.628678109      2.019      5.830
REMARK  3 active torsions:
REMARK  status: ('A' for Active; 'I' for Inactive)
REMARK    1  A    between atoms: C3_4  and  N2_5 
REMARK    2  A    between atoms: C5_9  and  C6_10 
REMARK    3  A    between atoms: C9_20  and  N6_21 
ROOT
HETATM    1  N1  UNL     1       7.962 -16.596   2.173  1.00  0.00    -0.191 NA
HETATM    2  C1  UNL     1       7.229 -15.688   2.073  1.00  0.00     0.107 C 
HETATM    3  C2  UNL     1       6.315 -14.591   1.957  1.00  0.00     0.132 A 
HETATM    4  C3  UNL     1       5.541 -14.482   0.802  1.00  0.00     0.141 A 
HETATM    5  N4  UNL     1       4.685 -13.455   0.692  1.00  0.00    -0.293 N 
ATOM      6  H4  UNL     1       4.108 -13.353  -0.142  1.00  0.00     0.172 HD
HETATM    7  C8  UNL     1       4.598 -12.569   1.689  1.00  0.00     0.327 A 
HETATM    8  O3  UNL     1       3.783 -11.599   1.574  1.00  0.00    -0.247 OA
HETATM    9  N5  UNL     1       5.325 -12.641   2.813  1.00  0.00    -0.293 N 
ATOM     10  H5  UNL     1       5.218 -11.936   3.542  1.00  0.00     0.172 HD
HETATM   11  C9  UNL     1       6.206 -13.661   2.972  1.00  0.00     0.127 A 
ENDROOT
BRANCH   4  12
HETATM   12  N2  UNL     1       5.704 -15.477  -0.206  1.00  0.00    -0.300 N 
HETATM   13  C4  UNL     1       5.289 -16.755  -0.146  1.00  0.00     0.190 A 
HETATM   14  N3  UNL     1       5.598 -17.433  -1.260  1.00  0.00    -0.345 N 
HETATM   15  C5  UNL     1       6.234 -16.576  -2.073  1.00  0.00     0.126 A 
ATOM     16  H3  UNL     1       5.389 -18.413  -1.453  1.00  0.00     0.167 HD
HETATM   17  C7  UNL     1       6.294 -15.357  -1.402  1.00  0.00     0.136 A 
BRANCH  15  18
HETATM   18  C6  UNL     1       6.740 -16.906  -3.385  1.00  0.00     0.228 C 
HETATM   19  O1  UNL     1       7.939 -16.692  -3.656  1.00  0.00    -0.643 OA
HETATM   20  O2  UNL     1       5.925 -17.454  -4.347  1.00  0.00    -0.643 OA
ENDBRANCH  15  18
ENDBRANCH   4  12
BRANCH  11  21
HETATM   21  N6  UNL     1       6.908 -13.733   4.054  1.00  0.00    -0.384 N 
ATOM     22  H62 UNL     1       7.829 -14.173   4.028  1.00  0.00     0.157 HD
ATOM     23  H61 UNL     1       6.577 -13.364   4.945  1.00  0.00     0.157 HD
ENDBRANCH  11  21
TORSDOF 3
ENDMDL
