MODEL 1
REMARK VINA RESULT: -8.422431073      0.000      0.000
REMARK  6 active torsions:
REMARK  status: ('A' for Active; 'I' for Inactive)
REMARK    1  A    between atoms: N1_2  and  C2_4 
REMARK    2  A    between atoms: C4_12  and  N5_13 
REMARK    3  A    between atoms: N5_13  and  C5_15 
REMARK    4  A    between atoms: C5_15  and  C6_16 
REMARK    5  A    between atoms: C6_16  and  N6_17 
REMARK    6  A    between atoms: C13_34  and  N12_35 
ROOT
HETATM    1  C2  UNL     1      -8.822 -11.541   8.115  1.00  0.00     0.137 A 
HETATM    2  N2  UNL     1      -9.791 -11.579   9.039  1.00  0.00    -0.283 N 
ATOM      3  H2  UNL     1     -10.722 -11.970   8.893  1.00  0.00     0.188 HD
HETATM    4  N3  UNL     1      -9.362 -11.031  10.183  1.00  0.00    -0.283 N 
ATOM      5  H3  UNL     1      -9.919 -10.943  11.034  1.00  0.00     0.188 HD
HETATM    6  C3  UNL     1      -8.088 -10.611  10.047  1.00  0.00     0.153 A 
HETATM    7  N4  UNL     1      -7.194 -10.010  10.852  1.00  0.00    -0.174 N 
ATOM      8  H4  UNL     1      -7.440  -9.772  11.812  1.00  0.00     0.186 HD
HETATM    9  C4  UNL     1      -5.974  -9.729  10.371  1.00  0.00     0.681 A 
HETATM   10  N11 UNL     1      -5.622 -10.038   9.091  1.00  0.00    -0.176 N 
ATOM     11  H11 UNL     1      -4.686  -9.811   8.756  1.00  0.00     0.186 HD
HETATM   12  C13 UNL     1      -6.486 -10.631   8.275  1.00  0.00     0.132 A 
HETATM   13  C14 UNL     1      -7.745 -10.932   8.744  1.00  0.00     0.099 A 
ENDROOT
BRANCH   9  14
HETATM   14  N5  UNL     1      -5.079  -9.155  11.093  1.00  0.00    -0.224 N 
ATOM     15  H5  UNL     1      -5.320  -8.293  11.584  1.00  0.00     0.177 HD
BRANCH  14  16
HETATM   16  C5  UNL     1      -3.738  -9.687  11.235  1.00  0.00     0.157 C 
BRANCH  16  17
HETATM   17  C6  UNL     1      -3.740 -10.679  12.383  1.00  0.00     0.141 C 
BRANCH  17  18
HETATM   18  N6  UNL     1      -3.396 -11.999  11.958  1.00  0.00    -0.373 N 
HETATM   19  C7  UNL     1      -3.125 -12.996  12.712  1.00  0.00     0.133 A 
HETATM   20  N7  UNL     1      -3.159 -12.817  14.055  1.00  0.00    -0.337 N 
HETATM   21  C10 UNL     1      -2.805 -14.229  12.188  1.00  0.00     0.122 A 
HETATM   22  C8  UNL     1      -2.875 -13.866  14.857  1.00  0.00     0.183 A 
ATOM     23  H7  UNL     1      -3.394 -11.907  14.453  1.00  0.00     0.168 HD
HETATM   24  N8  UNL     1      -2.563 -15.069  14.353  1.00  0.00    -0.336 N 
HETATM   25  C9  UNL     1      -2.519 -15.283  13.019  1.00  0.00     0.140 A 
ATOM     26  H8  UNL     1      -2.354 -15.839  14.989  1.00  0.00     0.168 HD
HETATM   27  N10 UNL     1      -2.252 -16.323  12.225  1.00  0.00    -0.332 N 
HETATM   28  C11 UNL     1      -2.364 -15.950  10.932  1.00  0.00     0.184 A 
HETATM   29  C12 UNL     1      -1.899 -17.644  12.717  1.00  0.00     0.158 C 
HETATM   30  N9  UNL     1      -2.709 -14.641  10.928  1.00  0.00    -0.346 N 
ATOM     31  H9  UNL     1      -2.867 -14.069  10.098  1.00  0.00     0.167 HD
ATOM     32  H6  UNL     1      -3.363 -12.162  10.952  1.00  0.00     0.161 HD
ENDBRANCH  17  18
ENDBRANCH  16  17
ENDBRANCH  14  16
ENDBRANCH   9  14
BRANCH  12  33
HETATM   33  N12 UNL     1      -6.210 -10.951   7.047  1.00  0.00    -0.384 N 
ATOM     34 2H12 UNL     1      -6.103 -11.942   6.831  1.00  0.00     0.157 HD
ATOM     35 1H12 UNL     1      -6.094 -10.268   6.299  1.00  0.00     0.157 HD
ENDBRANCH  12  33
BRANCH   1  36
HETATM   36  N1  UNL     1      -8.868 -12.015   6.777  1.00  0.00    -0.360 N 
HETATM   37  C1  UNL     1      -9.672 -11.507   5.911  1.00  0.00     0.120 C 
ATOM     38  H1  UNL     1      -8.249 -12.776   6.497  1.00  0.00     0.165 HD
ENDBRANCH   1  36
TORSDOF 6
ENDMDL
MODEL 2
REMARK VINA RESULT: -8.114417068      0.766      1.777
REMARK  6 active torsions:
REMARK  status: ('A' for Active; 'I' for Inactive)
REMARK    1  A    between atoms: N1_2  and  C2_4 
REMARK    2  A    between atoms: C4_12  and  N5_13 
REMARK    3  A    between atoms: N5_13  and  C5_15 
REMARK    4  A    between atoms: C5_15  and  C6_16 
REMARK    5  A    between atoms: C6_16  and  N6_17 
REMARK    6  A    between atoms: C13_34  and  N12_35 
ROOT
HETATM    1  C2  UNL     1      -8.801 -11.493   8.200  1.00  0.00     0.137 A 
HETATM    2  N2  UNL     1      -9.723 -11.505   9.172  1.00  0.00    -0.283 N 
ATOM      3  H2  UNL     1     -10.676 -11.853   9.068  1.00  0.00     0.188 HD
HETATM    4  N3  UNL     1      -9.213 -10.994  10.301  1.00  0.00    -0.283 N 
ATOM      5  H3  UNL     1      -9.722 -10.897  11.180  1.00  0.00     0.188 HD
HETATM    6  C3  UNL     1      -7.930 -10.627  10.105  1.00  0.00     0.153 A 
HETATM    7  N4  UNL     1      -6.972 -10.078  10.871  1.00  0.00    -0.174 N 
ATOM      8  H4  UNL     1      -7.158  -9.846  11.846  1.00  0.00     0.186 HD
HETATM    9  C4  UNL     1      -5.767  -9.841  10.332  1.00  0.00     0.681 A 
HETATM   10  N11 UNL     1      -5.494 -10.143   9.031  1.00  0.00    -0.176 N 
ATOM     11  H11 UNL     1      -4.567  -9.951   8.652  1.00  0.00     0.186 HD
HETATM   12  C13 UNL     1      -6.423 -10.686   8.253  1.00  0.00     0.132 A 
HETATM   13  C14 UNL     1      -7.669 -10.941   8.781  1.00  0.00     0.099 A 
ENDROOT
BRANCH   9  14
HETATM   14  N5  UNL     1      -4.812  -9.317  11.015  1.00  0.00    -0.224 N 
ATOM     15  H5  UNL     1      -4.441  -8.411  10.729  1.00  0.00     0.177 HD
BRANCH  14  16
HETATM   16  C5  UNL     1      -4.243  -9.969  12.178  1.00  0.00     0.157 C 
BRANCH  16  17
HETATM   17  C6  UNL     1      -3.361 -11.107  11.701  1.00  0.00     0.141 C 
BRANCH  17  18
HETATM   18  N6  UNL     1      -3.243 -12.146  12.675  1.00  0.00    -0.373 N 
HETATM   19  C7  UNL     1      -2.985 -13.378  12.449  1.00  0.00     0.133 A 
HETATM   20  N7  UNL     1      -2.797 -13.772  11.165  1.00  0.00    -0.337 N 
HETATM   21  C10 UNL     1      -2.895 -14.294  13.472  1.00  0.00     0.122 A 
HETATM   22  C8  UNL     1      -2.522 -15.070  10.919  1.00  0.00     0.183 A 
ATOM     23  H7  UNL     1      -2.862 -13.100  10.400  1.00  0.00     0.168 HD
HETATM   24  N8  UNL     1      -2.434 -15.969  11.912  1.00  0.00    -0.336 N 
HETATM   25  C9  UNL     1      -2.616 -15.610  13.202  1.00  0.00     0.140 A 
ATOM     26  H8  UNL     1      -2.224 -16.942  11.688  1.00  0.00     0.168 HD
HETATM   27  N10 UNL     1      -2.596 -16.238  14.381  1.00  0.00    -0.332 N 
HETATM   28  C11 UNL     1      -2.852 -15.356  15.371  1.00  0.00     0.184 A 
HETATM   29  C12 UNL     1      -2.333 -17.659  14.534  1.00  0.00     0.158 C 
HETATM   30  N9  UNL     1      -3.037 -14.150  14.786  1.00  0.00    -0.346 N 
ATOM     31  H9  UNL     1      -3.249 -13.278  15.271  1.00  0.00     0.167 HD
ATOM     32  H6  UNL     1      -3.380 -11.877  13.649  1.00  0.00     0.161 HD
ENDBRANCH  17  18
ENDBRANCH  16  17
ENDBRANCH  14  16
ENDBRANCH   9  14
BRANCH  12  33
HETATM   33  N12 UNL     1      -6.223 -10.998   7.008  1.00  0.00    -0.384 N 
ATOM     34 2H12 UNL     1      -5.939 -10.250   6.375  1.00  0.00     0.157 HD
ATOM     35 1H12 UNL     1      -6.339 -11.941   6.638  1.00  0.00     0.157 HD
ENDBRANCH  12  33
BRANCH   1  36
HETATM   36  N1  UNL     1      -8.935 -11.943   6.860  1.00  0.00    -0.360 N 
HETATM   37  C1  UNL     1      -9.648 -11.300   6.003  1.00  0.00     0.120 C 
ATOM     38  H1  UNL     1      -8.456 -12.795   6.571  1.00  0.00     0.165 HD
ENDBRANCH   1  36
TORSDOF 6
ENDMDL
MODEL 3
REMARK VINA RESULT: -8.111237219      1.764      2.749
REMARK  6 active torsions:
REMARK  status: ('A' for Active; 'I' for Inactive)
REMARK    1  A    between atoms: N1_2  and  C2_4 
REMARK    2  A    between atoms: C4_12  and  N5_13 
REMARK    3  A    between atoms: N5_13  and  C5_15 
REMARK    4  A    between atoms: C5_15  and  C6_16 
REMARK    5  A    between atoms: C6_16  and  N6_17 
REMARK    6  A    between atoms: C13_34  and  N12_35 
ROOT
HETATM    1  C2  UNL     1      -8.977 -11.497   8.172  1.00  0.00     0.137 A 
HETATM    2  N2  UNL     1      -9.897 -11.538   9.145  1.00  0.00    -0.283 N 
ATOM      3  H2  UNL     1     -10.849 -11.889   9.034  1.00  0.00     0.188 HD
HETATM    4  N3  UNL     1      -9.389 -11.052  10.285  1.00  0.00    -0.283 N 
ATOM      5  H3  UNL     1      -9.896 -10.979  11.166  1.00  0.00     0.188 HD
HETATM    6  C3  UNL     1      -8.108 -10.673  10.096  1.00  0.00     0.153 A 
HETATM    7  N4  UNL     1      -7.151 -10.137  10.874  1.00  0.00    -0.174 N 
ATOM      8  H4  UNL     1      -7.337  -9.930  11.855  1.00  0.00     0.186 HD
HETATM    9  C4  UNL     1      -5.948  -9.879  10.339  1.00  0.00     0.681 A 
HETATM   10  N11 UNL     1      -5.676 -10.149   9.031  1.00  0.00    -0.176 N 
ATOM     11  H11 UNL     1      -4.751  -9.942   8.655  1.00  0.00     0.186 HD
HETATM   12  C13 UNL     1      -6.603 -10.678   8.241  1.00  0.00     0.132 A 
HETATM   13  C14 UNL     1      -7.847 -10.953   8.765  1.00  0.00     0.099 A 
ENDROOT
BRANCH   9  14
HETATM   14  N5  UNL     1      -4.996  -9.367  11.033  1.00  0.00    -0.224 N 
ATOM     15  H5  UNL     1      -4.794  -8.372  10.933  1.00  0.00     0.177 HD
BRANCH  14  16
HETATM   16  C5  UNL     1      -4.198 -10.153  11.953  1.00  0.00     0.157 C 
BRANCH  16  17
HETATM   17  C6  UNL     1      -2.922 -10.566  11.243  1.00  0.00     0.141 C 
BRANCH  17  18
HETATM   18  N6  UNL     1      -2.822 -11.982  11.087  1.00  0.00    -0.373 N 
HETATM   19  C7  UNL     1      -2.909 -12.637   9.992  1.00  0.00     0.133 A 
HETATM   20  N7  UNL     1      -3.117 -11.947   8.843  1.00  0.00    -0.337 N 
HETATM   21  C10 UNL     1      -2.797 -14.009   9.963  1.00  0.00     0.122 A 
HETATM   22  C8  UNL     1      -3.209 -12.632   7.683  1.00  0.00     0.183 A 
ATOM     23  H7  UNL     1      -3.202 -10.930   8.855  1.00  0.00     0.168 HD
HETATM   24  N8  UNL     1      -3.100 -13.969   7.648  1.00  0.00    -0.336 N 
HETATM   25  C9  UNL     1      -2.894 -14.687   8.774  1.00  0.00     0.140 A 
ATOM     26  H8  UNL     1      -3.175 -14.452   6.753  1.00  0.00     0.168 HD
HETATM   27  N10 UNL     1      -2.746 -15.981   9.069  1.00  0.00    -0.332 N 
HETATM   28  C11 UNL     1      -2.561 -16.127  10.398  1.00  0.00     0.184 A 
HETATM   29  C12 UNL     1      -2.785 -17.044   8.078  1.00  0.00     0.158 C 
HETATM   30  N9  UNL     1      -2.596 -14.888  10.940  1.00  0.00    -0.346 N 
ATOM     31  H9  UNL     1      -2.487 -14.666  11.929  1.00  0.00     0.167 HD
ATOM     32  H6  UNL     1      -2.666 -12.526  11.936  1.00  0.00     0.161 HD
ENDBRANCH  17  18
ENDBRANCH  16  17
ENDBRANCH  14  16
ENDBRANCH   9  14
BRANCH  12  33
HETATM   33  N12 UNL     1      -6.404 -10.957   6.988  1.00  0.00    -0.384 N 
ATOM     34 2H12 UNL     1      -5.446 -11.144   6.693  1.00  0.00     0.157 HD
ATOM     35 1H12 UNL     1      -7.151 -10.997   6.294  1.00  0.00     0.157 HD
ENDBRANCH  12  33
BRANCH   1  36
HETATM   36  N1  UNL     1      -9.111 -11.914   6.822  1.00  0.00    -0.360 N 
HETATM   37  C1  UNL     1      -9.810 -11.242   5.976  1.00  0.00     0.120 C 
ATOM     38  H1  UNL     1      -8.643 -12.767   6.515  1.00  0.00     0.165 HD
ENDBRANCH   1  36
TORSDOF 6
ENDMDL
MODEL 4
REMARK VINA RESULT: -8.064138892      3.547      5.249
REMARK  6 active torsions:
REMARK  status: ('A' for Active; 'I' for Inactive)
REMARK    1  A    between atoms: N1_2  and  C2_4 
REMARK    2  A    between atoms: C4_12  and  N5_13 
REMARK    3  A    between atoms: N5_13  and  C5_15 
REMARK    4  A    between atoms: C5_15  and  C6_16 
REMARK    5  A    between atoms: C6_16  and  N6_17 
REMARK    6  A    between atoms: C13_34  and  N12_35 
ROOT
HETATM    1  C2  UNL     1      -8.753 -11.463   8.198  1.00  0.00     0.137 A 
HETATM    2  N2  UNL     1      -9.691 -11.463   9.155  1.00  0.00    -0.283 N 
ATOM      3  H2  UNL     1     -10.646 -11.801   9.037  1.00  0.00     0.188 HD
HETATM    4  N3  UNL     1      -9.193 -10.954  10.291  1.00  0.00    -0.283 N 
ATOM      5  H3  UNL     1      -9.714 -10.849  11.161  1.00  0.00     0.188 HD
HETATM    6  C3  UNL     1      -7.903 -10.602  10.115  1.00  0.00     0.153 A 
HETATM    7  N4  UNL     1      -6.951 -10.061  10.894  1.00  0.00    -0.174 N 
ATOM      8  H4  UNL     1      -7.150  -9.824  11.866  1.00  0.00     0.186 HD
HETATM    9  C4  UNL     1      -5.735  -9.838  10.374  1.00  0.00     0.681 A 
HETATM   10  N11 UNL     1      -5.445 -10.147   9.079  1.00  0.00    -0.176 N 
ATOM     11  H11 UNL     1      -4.510  -9.966   8.714  1.00  0.00     0.186 HD
HETATM   12  C13 UNL     1      -6.367 -10.682   8.287  1.00  0.00     0.132 A 
HETATM   13  C14 UNL     1      -7.624 -10.922   8.796  1.00  0.00     0.099 A 
ENDROOT
BRANCH   9  14
HETATM   14  N5  UNL     1      -4.785  -9.324  11.071  1.00  0.00    -0.224 N 
ATOM     15  H5  UNL     1      -4.559  -8.337  10.943  1.00  0.00     0.177 HD
BRANCH  14  16
HETATM   16  C5  UNL     1      -4.024 -10.096  12.033  1.00  0.00     0.157 C 
BRANCH  16  17
HETATM   17  C6  UNL     1      -2.574  -9.654  11.956  1.00  0.00     0.141 C 
BRANCH  17  18
HETATM   18  N6  UNL     1      -2.044  -9.765  10.634  1.00  0.00    -0.373 N 
HETATM   19  C7  UNL     1      -1.314  -8.906  10.031  1.00  0.00     0.133 A 
HETATM   20  N7  UNL     1      -0.991  -7.762  10.684  1.00  0.00    -0.337 N 
HETATM   21  C10 UNL     1      -0.858  -9.121   8.750  1.00  0.00     0.122 A 
HETATM   22  C8  UNL     1      -0.219  -6.851  10.054  1.00  0.00     0.183 A 
ATOM     23  H7  UNL     1      -1.324  -7.594  11.633  1.00  0.00     0.168 HD
HETATM   24  N8  UNL     1       0.229  -7.055   8.805  1.00  0.00    -0.336 N 
HETATM   25  C9  UNL     1      -0.075  -8.183   8.125  1.00  0.00     0.140 A 
ATOM     26  H8  UNL     1       0.810  -6.344   8.360  1.00  0.00     0.168 HD
HETATM   27  N10 UNL     1       0.201  -8.673   6.914  1.00  0.00    -0.332 N 
HETATM   28  C11 UNL     1      -0.382  -9.882   6.768  1.00  0.00     0.184 A 
HETATM   29  C12 UNL     1       1.014  -7.979   5.929  1.00  0.00     0.158 C 
HETATM   30  N9  UNL     1      -1.039 -10.145   7.921  1.00  0.00    -0.346 N 
ATOM     31  H9  UNL     1      -1.581 -10.986   8.121  1.00  0.00     0.167 HD
ATOM     32  H6  UNL     1      -2.272 -10.616  10.120  1.00  0.00     0.161 HD
ENDBRANCH  17  18
ENDBRANCH  16  17
ENDBRANCH  14  16
ENDBRANCH   9  14
BRANCH  12  33
HETATM   33  N12 UNL     1      -6.152 -10.998   7.046  1.00  0.00    -0.384 N 
ATOM     34 2H12 UNL     1      -6.959 -11.047   6.425  1.00  0.00     0.157 HD
ATOM     35 1H12 UNL     1      -5.226 -11.200   6.668  1.00  0.00     0.157 HD
ENDBRANCH  12  33
BRANCH   1  36
HETATM   36  N1  UNL     1      -8.871 -11.914   6.857  1.00  0.00    -0.360 N 
HETATM   37  C1  UNL     1      -9.614 -11.301   6.004  1.00  0.00     0.120 C 
ATOM     38  H1  UNL     1      -8.355 -12.744   6.564  1.00  0.00     0.165 HD
ENDBRANCH   1  36
TORSDOF 6
ENDMDL
MODEL 5
REMARK VINA RESULT: -7.997306764      1.046      1.808
REMARK  6 active torsions:
REMARK  status: ('A' for Active; 'I' for Inactive)
REMARK    1  A    between atoms: N1_2  and  C2_4 
REMARK    2  A    between atoms: C4_12  and  N5_13 
REMARK    3  A    between atoms: N5_13  and  C5_15 
REMARK    4  A    between atoms: C5_15  and  C6_16 
REMARK    5  A    between atoms: C6_16  and  N6_17 
REMARK    6  A    between atoms: C13_34  and  N12_35 
ROOT
HETATM    1  C2  UNL     1      -8.097 -10.361   7.588  1.00  0.00     0.137 A 
HETATM    2  N2  UNL     1      -7.318 -11.169   6.856  1.00  0.00    -0.283 N 
ATOM      3  H2  UNL     1      -7.614 -11.657   6.011  1.00  0.00     0.188 HD
HETATM    4  N3  UNL     1      -6.094 -11.243   7.395  1.00  0.00    -0.283 N 
ATOM      5  H3  UNL     1      -5.323 -11.797   7.019  1.00  0.00     0.188 HD
HETATM    6  C3  UNL     1      -6.028 -10.481   8.505  1.00  0.00     0.153 A 
HETATM    7  N4  UNL     1      -5.073 -10.196   9.408  1.00  0.00    -0.174 N 
ATOM      8  H4  UNL     1      -4.142 -10.602   9.322  1.00  0.00     0.186 HD
HETATM    9  C4  UNL     1      -5.365  -9.369  10.422  1.00  0.00     0.681 A 
HETATM   10  N11 UNL     1      -6.602  -8.813  10.558  1.00  0.00    -0.176 N 
ATOM     11  H11 UNL     1      -6.792  -8.187  11.341  1.00  0.00     0.186 HD
HETATM   12  C13 UNL     1      -7.564  -9.078   9.681  1.00  0.00     0.132 A 
HETATM   13  C14 UNL     1      -7.291  -9.924   8.629  1.00  0.00     0.099 A 
ENDROOT
BRANCH   9  14
HETATM   14  N5  UNL     1      -4.493  -9.060  11.315  1.00  0.00    -0.224 N 
ATOM     15  H5  UNL     1      -4.679  -8.270  11.933  1.00  0.00     0.177 HD
BRANCH  14  16
HETATM   16  C5  UNL     1      -3.254  -9.795  11.474  1.00  0.00     0.157 C 
BRANCH  16  17
HETATM   17  C6  UNL     1      -3.457 -10.842  12.553  1.00  0.00     0.141 C 
BRANCH  17  18
HETATM   18  N6  UNL     1      -3.205 -12.165  12.078  1.00  0.00    -0.373 N 
HETATM   19  C7  UNL     1      -3.008 -13.208  12.793  1.00  0.00     0.133 A 
HETATM   20  N7  UNL     1      -3.035 -13.079  14.142  1.00  0.00    -0.337 N 
HETATM   21  C10 UNL     1      -2.774 -14.438  12.222  1.00  0.00     0.122 A 
HETATM   22  C8  UNL     1      -2.829 -14.175  14.903  1.00  0.00     0.183 A 
ATOM     23  H7  UNL     1      -3.207 -12.171  14.574  1.00  0.00     0.168 HD
HETATM   24  N8  UNL     1      -2.599 -15.377  14.352  1.00  0.00    -0.336 N 
HETATM   25  C9  UNL     1      -2.566 -15.541  13.011  1.00  0.00     0.140 A 
ATOM     26  H8  UNL     1      -2.448 -16.184  14.959  1.00  0.00     0.168 HD
HETATM   27  N10 UNL     1      -2.370 -16.566  12.178  1.00  0.00    -0.332 N 
HETATM   28  C11 UNL     1      -2.450 -16.136  10.900  1.00  0.00     0.184 A 
HETATM   29  C12 UNL     1      -2.112 -17.927  12.618  1.00  0.00     0.158 C 
HETATM   30  N9  UNL     1      -2.702 -14.808  10.946  1.00  0.00    -0.346 N 
ATOM     31  H9  UNL     1      -2.816 -14.194  10.140  1.00  0.00     0.167 HD
ATOM     32  H6  UNL     1      -3.180 -12.291  11.066  1.00  0.00     0.161 HD
ENDBRANCH  17  18
ENDBRANCH  16  17
ENDBRANCH  14  16
ENDBRANCH   9  14
BRANCH  12  33
HETATM   33  N12 UNL     1      -8.760  -8.579   9.755  1.00  0.00    -0.384 N 
ATOM     34 2H12 UNL     1      -8.854  -7.566   9.686  1.00  0.00     0.157 HD
ATOM     35 1H12 UNL     1      -9.600  -9.145   9.880  1.00  0.00     0.157 HD
ENDBRANCH  12  33
BRANCH   1  36
HETATM   36  N1  UNL     1      -9.456 -10.016   7.363  1.00  0.00    -0.360 N 
HETATM   37  C1  UNL     1      -9.974 -10.058   6.186  1.00  0.00     0.120 C 
ATOM     38  H1  UNL     1     -10.034  -9.727   8.152  1.00  0.00     0.165 HD
ENDBRANCH   1  36
TORSDOF 6
ENDMDL
