MODEL 1
REMARK VINA RESULT: -6.618469733      0.000      0.000
REMARK  7 active torsions:
REMARK  status: ('A' for Active; 'I' for Inactive)
REMARK    1  A    between atoms: C2_2  and  C3_3 
REMARK    2  A    between atoms: C3_3  and  C4_4 
REMARK    3  A    between atoms: C3_3  and  N1_6 
REMARK    4  A    between atoms: N1_6  and  C6_7 
REMARK    5  A    between atoms: C7_10  and  N3_11 
REMARK    6  A    between atoms: C10_18  and  N6_19 
REMARK    7  A    between atoms: C11_24  and  N8_25 
ROOT
HETATM    1  C6  UNL     1      -5.187  -9.520  10.512  1.00  0.00     0.217 A 
HETATM    2  N2  UNL     1      -6.347  -9.056  11.021  1.00  0.00    -0.162 N 
ATOM      3  H2  UNL     1      -6.341  -8.610  11.938  1.00  0.00     0.187 HD
HETATM    4  C7  UNL     1      -7.500  -9.163  10.362  1.00  0.00     0.694 A 
HETATM    5  N4  UNL     1      -7.583  -9.743   9.136  1.00  0.00    -0.074 N 
HETATM    6  C8  UNL     1      -8.850  -9.807   8.525  1.00  0.00     0.204 C 
HETATM    7  N5  UNL     1      -9.927  -9.834   8.064  1.00  0.00    -0.171 NA
HETATM    8  C9  UNL     1      -6.504 -10.224   8.562  1.00  0.00     0.143 A 
HETATM    9  C10 UNL     1      -6.580 -10.834   7.294  1.00  0.00     0.146 A 
HETATM   10  N7  UNL     1      -5.351 -11.294   6.835  1.00  0.00    -0.175 N 
ATOM     11  H7  UNL     1      -5.330 -11.748   5.923  1.00  0.00     0.186 HD
HETATM   12  C11 UNL     1      -4.207 -11.188   7.489  1.00  0.00     0.682 A 
HETATM   13  N10 UNL     1      -4.165 -10.602   8.695  1.00  0.00    -0.184 N 
ATOM     14  H10 UNL     1      -3.280 -10.523   9.197  1.00  0.00     0.184 HD
HETATM   15  C16 UNL     1      -5.295 -10.120   9.239  1.00  0.00     0.139 A 
ENDROOT
BRANCH   4  16
HETATM   16  N3  UNL     1      -8.592  -8.702  10.896  1.00  0.00    -0.233 N 
ATOM     17  H32 UNL     1      -8.581  -8.472  11.890  1.00  0.00     0.174 HD
ATOM     18  H31 UNL     1      -9.425  -8.580  10.319  1.00  0.00     0.174 HD
ENDBRANCH   4  16
BRANCH   9  19
HETATM   19  N6  UNL     1      -7.558 -10.966   6.625  1.00  0.00    -0.383 N 
ATOM     20  H62 UNL     1      -8.364 -10.356   6.766  1.00  0.00     0.157 HD
ATOM     21  H61 UNL     1      -7.705 -11.659   5.891  1.00  0.00     0.157 HD
ENDBRANCH   9  19
BRANCH   1  22
HETATM   22  N1  UNL     1      -4.161  -9.439  11.068  1.00  0.00    -0.422 NA
BRANCH  22  23
HETATM   23  C3  UNL     1      -3.032  -9.422  11.812  1.00  0.00     0.164 C 
BRANCH  23  24
HETATM   24  C2  UNL     1      -2.774 -10.612  12.689  1.00  0.00     0.035 C 
HETATM   25  C1  UNL     1      -3.920 -11.223  13.387  1.00  0.00     0.008 C 
ENDBRANCH  23  24
BRANCH  23  26
HETATM   26  C4  UNL     1      -1.842  -9.055  10.957  1.00  0.00     0.035 C 
HETATM   27  C5  UNL     1      -0.987 -10.144  10.467  1.00  0.00     0.008 C 
ENDBRANCH  23  26
ENDBRANCH  22  23
ENDBRANCH   1  22
BRANCH  12  28
HETATM   28  N8  UNL     1      -3.010 -11.728   6.892  1.00  0.00    -0.214 N 
HETATM   29  C12 UNL     1      -1.904 -10.830   6.699  1.00  0.00     0.168 C 
HETATM   30  C13 UNL     1      -0.625 -11.591   6.979  1.00  0.00     0.252 C 
HETATM   31  N9  UNL     1      -0.590 -12.717   6.065  1.00  0.00    -0.072 N 
HETATM   32  C14 UNL     1      -1.617 -13.689   6.371  1.00  0.00     0.252 C 
ATOM     33  H92 UNL     1      -0.648 -12.409   5.094  1.00  0.00     0.277 HD
ATOM     34  H91 UNL     1       0.334 -13.148   6.041  1.00  0.00     0.277 HD
HETATM   35  C15 UNL     1      -2.972 -13.094   6.531  1.00  0.00     0.168 C 
ENDBRANCH  12  28
TORSDOF 7
ENDMDL
MODEL 2
REMARK VINA RESULT: -6.603637636      2.212      6.494
REMARK  7 active torsions:
REMARK  status: ('A' for Active; 'I' for Inactive)
REMARK    1  A    between atoms: C2_2  and  C3_3 
REMARK    2  A    between atoms: C3_3  and  C4_4 
REMARK    3  A    between atoms: C3_3  and  N1_6 
REMARK    4  A    between atoms: N1_6  and  C6_7 
REMARK    5  A    between atoms: C7_10  and  N3_11 
REMARK    6  A    between atoms: C10_18  and  N6_19 
REMARK    7  A    between atoms: C11_24  and  N8_25 
ROOT
HETATM    1  C6  UNL     1      -1.577  -9.794   9.485  1.00  0.00     0.217 A 
HETATM    2  N2  UNL     1      -0.435  -9.773  10.205  1.00  0.00    -0.162 N 
ATOM      3  H2  UNL     1       0.452  -9.641   9.720  1.00  0.00     0.187 HD
HETATM    4  C7  UNL     1      -0.433  -9.919  11.529  1.00  0.00     0.694 A 
HETATM    5  N4  UNL     1      -1.577 -10.097  12.241  1.00  0.00    -0.074 N 
HETATM    6  C8  UNL     1      -1.465 -10.243  13.637  1.00  0.00     0.204 C 
HETATM    7  N5  UNL     1      -1.314 -10.360  14.793  1.00  0.00    -0.171 NA
HETATM    8  C9  UNL     1      -2.736 -10.131  11.624  1.00  0.00     0.143 A 
HETATM    9  C10 UNL     1      -3.927 -10.322  12.352  1.00  0.00     0.146 A 
HETATM   10  N7  UNL     1      -5.061 -10.341  11.547  1.00  0.00    -0.175 N 
ATOM     11  H7  UNL     1      -5.961 -10.476  12.007  1.00  0.00     0.186 HD
HETATM   12  C11 UNL     1      -5.064 -10.196  10.233  1.00  0.00     0.682 A 
HETATM   13  N10 UNL     1      -3.913 -10.015   9.566  1.00  0.00    -0.184 N 
ATOM     14  H10 UNL     1      -3.920  -9.905   8.552  1.00  0.00     0.184 HD
HETATM   15  C16 UNL     1      -2.752  -9.981  10.243  1.00  0.00     0.139 A 
ENDROOT
BRANCH   4  16
HETATM   16  N3  UNL     1       0.694  -9.893  12.178  1.00  0.00    -0.233 N 
ATOM     17  H32 UNL     1       1.552  -9.754  11.644  1.00  0.00     0.174 HD
ATOM     18  H31 UNL     1       0.696 -10.010  13.191  1.00  0.00     0.174 HD
ENDBRANCH   4  16
BRANCH   9  19
HETATM   19  N6  UNL     1      -4.028 -10.451  13.533  1.00  0.00    -0.383 N 
ATOM     20  H62 UNL     1      -3.214 -10.707  14.093  1.00  0.00     0.157 HD
ATOM     21  H61 UNL     1      -4.876 -10.340  14.088  1.00  0.00     0.157 HD
ENDBRANCH   9  19
BRANCH   1  22
HETATM   22  N1  UNL     1      -1.608  -9.668   8.322  1.00  0.00    -0.422 NA
BRANCH  22  23
HETATM   23  C3  UNL     1      -1.595  -9.652   6.971  1.00  0.00     0.164 C 
BRANCH  23  24
HETATM   24  C2  UNL     1      -0.614  -8.730   6.307  1.00  0.00     0.035 C 
HETATM   25  C1  UNL     1      -1.100  -7.864   5.218  1.00  0.00     0.008 C 
ENDBRANCH  23  24
BRANCH  23  26
HETATM   26  C4  UNL     1      -1.539 -11.059   6.427  1.00  0.00     0.035 C 
HETATM   27  C5  UNL     1      -2.671 -11.950   6.711  1.00  0.00     0.008 C 
ENDBRANCH  23  26
ENDBRANCH  22  23
ENDBRANCH   1  22
BRANCH  12  28
HETATM   28  N8  UNL     1      -6.321 -10.253   9.527  1.00  0.00    -0.214 N 
HETATM   29  C12 UNL     1      -7.494  -9.810  10.230  1.00  0.00     0.168 C 
HETATM   30  C13 UNL     1      -8.386  -9.083   9.246  1.00  0.00     0.252 C 
HETATM   31  N9  UNL     1      -8.698 -10.019   8.181  1.00  0.00    -0.072 N 
HETATM   32  C14 UNL     1      -7.532 -10.336   7.387  1.00  0.00     0.252 C 
ATOM     33  H92 UNL     1      -9.139 -10.863   8.547  1.00  0.00     0.277 HD
ATOM     34  H91 UNL     1      -9.463  -9.678   7.599  1.00  0.00     0.277 HD
HETATM   35  C15 UNL     1      -6.347 -10.730   8.197  1.00  0.00     0.168 C 
ENDBRANCH  12  28
TORSDOF 7
ENDMDL
MODEL 3
REMARK VINA RESULT: -6.570071484      1.326      4.795
REMARK  7 active torsions:
REMARK  status: ('A' for Active; 'I' for Inactive)
REMARK    1  A    between atoms: C2_2  and  C3_3 
REMARK    2  A    between atoms: C3_3  and  C4_4 
REMARK    3  A    between atoms: C3_3  and  N1_6 
REMARK    4  A    between atoms: N1_6  and  C6_7 
REMARK    5  A    between atoms: C7_10  and  N3_11 
REMARK    6  A    between atoms: C10_18  and  N6_19 
REMARK    7  A    between atoms: C11_24  and  N8_25 
ROOT
HETATM    1  C6  UNL     1      -5.518 -10.918   7.297  1.00  0.00     0.217 A 
HETATM    2  N2  UNL     1      -6.615 -11.034   6.519  1.00  0.00    -0.162 N 
ATOM      3  H2  UNL     1      -6.499 -11.266   5.532  1.00  0.00     0.187 HD
HETATM    4  C7  UNL     1      -7.844 -10.855   6.999  1.00  0.00     0.694 A 
HETATM    5  N4  UNL     1      -8.075 -10.546   8.303  1.00  0.00    -0.074 N 
HETATM    6  C8  UNL     1      -9.412 -10.376   8.710  1.00  0.00     0.204 C 
HETATM    7  N5  UNL     1     -10.541 -10.245   8.994  1.00  0.00    -0.171 NA
HETATM    8  C9  UNL     1      -7.067 -10.412   9.135  1.00  0.00     0.143 A 
HETATM    9  C10 UNL     1      -7.295 -10.086  10.487  1.00  0.00     0.146 A 
HETATM   10  N7  UNL     1      -6.123  -9.976  11.226  1.00  0.00    -0.175 N 
ATOM     11  H7  UNL     1      -6.211  -9.740  12.214  1.00  0.00     0.186 HD
HETATM   12  C11 UNL     1      -4.903 -10.153  10.749  1.00  0.00     0.682 A 
HETATM   13  N10 UNL     1      -4.716 -10.464   9.457  1.00  0.00    -0.184 N 
ATOM     14  H10 UNL     1      -3.773 -10.599   9.093  1.00  0.00     0.184 HD
HETATM   15  C16 UNL     1      -5.780 -10.596   8.646  1.00  0.00     0.139 A 
ENDROOT
BRANCH   4  16
HETATM   16  N3  UNL     1      -8.869 -10.975   6.208  1.00  0.00    -0.233 N 
ATOM     17  H32 UNL     1      -9.318 -11.889   6.141  1.00  0.00     0.174 HD
ATOM     18  H31 UNL     1      -9.198 -10.167   5.680  1.00  0.00     0.174 HD
ENDBRANCH   4  16
BRANCH   9  19
HETATM   19  N6  UNL     1      -8.353  -9.917  11.010  1.00  0.00    -0.383 N 
ATOM     20  H62 UNL     1      -9.096  -9.420  10.518  1.00  0.00     0.157 HD
ATOM     21  H61 UNL     1      -8.625 -10.218  11.946  1.00  0.00     0.157 HD
ENDBRANCH   9  19
BRANCH   1  22
HETATM   22  N1  UNL     1      -4.428 -11.070   6.901  1.00  0.00    -0.422 NA
BRANCH  22  23
HETATM   23  C3  UNL     1      -3.165 -11.364   6.517  1.00  0.00     0.164 C 
BRANCH  23  24
HETATM   24  C2  UNL     1      -2.111 -10.330   6.786  1.00  0.00     0.035 C 
HETATM   25  C1  UNL     1      -1.273 -10.488   7.988  1.00  0.00     0.008 C 
ENDBRANCH  23  24
BRANCH  23  26
HETATM   26  C4  UNL     1      -2.774 -12.740   7.001  1.00  0.00     0.035 C 
HETATM   27  C5  UNL     1      -2.514 -13.774   5.990  1.00  0.00     0.008 C 
ENDBRANCH  23  26
ENDBRANCH  22  23
ENDBRANCH   1  22
BRANCH  12  28
HETATM   28  N8  UNL     1      -3.776  -9.990  11.636  1.00  0.00    -0.214 N 
HETATM   29  C12 UNL     1      -3.869 -10.588  12.939  1.00  0.00     0.168 C 
HETATM   30  C13 UNL     1      -2.505 -11.131  13.307  1.00  0.00     0.252 C 
HETATM   31  N9  UNL     1      -1.579 -10.014  13.274  1.00  0.00    -0.072 N 
HETATM   32  C14 UNL     1      -1.378  -9.522  11.929  1.00  0.00     0.252 C 
ATOM     33  H92 UNL     1      -1.875  -9.267  13.902  1.00  0.00     0.277 HD
ATOM     34  H91 UNL     1      -0.691 -10.253  13.718  1.00  0.00     0.277 HD
HETATM   35  C15 UNL     1      -2.647  -9.265  11.193  1.00  0.00     0.168 C 
ENDBRANCH  12  28
TORSDOF 7
ENDMDL
MODEL 4
REMARK VINA RESULT: -6.510765690      2.227      6.372
REMARK  7 active torsions:
REMARK  status: ('A' for Active; 'I' for Inactive)
REMARK    1  A    between atoms: C2_2  and  C3_3 
REMARK    2  A    between atoms: C3_3  and  C4_4 
REMARK    3  A    between atoms: C3_3  and  N1_6 
REMARK    4  A    between atoms: N1_6  and  C6_7 
REMARK    5  A    between atoms: C7_10  and  N3_11 
REMARK    6  A    between atoms: C10_18  and  N6_19 
REMARK    7  A    between atoms: C11_24  and  N8_25 
ROOT
HETATM    1  C6  UNL     1      -1.459 -10.946   9.655  1.00  0.00     0.217 A 
HETATM    2  N2  UNL     1      -0.433 -11.266  10.472  1.00  0.00    -0.162 N 
ATOM      3  H2  UNL     1       0.484 -11.451  10.065  1.00  0.00     0.187 HD
HETATM    4  C7  UNL     1      -0.582 -11.347  11.793  1.00  0.00     0.694 A 
HETATM    5  N4  UNL     1      -1.773 -11.112  12.404  1.00  0.00    -0.074 N 
HETATM    6  C8  UNL     1      -1.824 -11.226  13.806  1.00  0.00     0.204 C 
HETATM    7  N5  UNL     1      -1.811 -11.335  14.973  1.00  0.00    -0.171 NA
HETATM    8  C9  UNL     1      -2.828 -10.794  11.688  1.00  0.00     0.143 A 
HETATM    9  C10 UNL     1      -4.068 -10.555  12.312  1.00  0.00     0.146 A 
HETATM   10  N7  UNL     1      -5.079 -10.238  11.411  1.00  0.00    -0.175 N 
ATOM     11  H7  UNL     1      -6.007 -10.054  11.792  1.00  0.00     0.186 HD
HETATM   12  C11 UNL     1      -4.932 -10.158  10.100  1.00  0.00     0.682 A 
HETATM   13  N10 UNL     1      -3.737 -10.390   9.534  1.00  0.00    -0.184 N 
ATOM     14  H10 UNL     1      -3.628 -10.328   8.522  1.00  0.00     0.184 HD
HETATM   15  C16 UNL     1      -2.686 -10.707  10.309  1.00  0.00     0.139 A 
ENDROOT
BRANCH   4  16
HETATM   16  N3  UNL     1       0.437 -11.662  12.538  1.00  0.00    -0.233 N 
ATOM     17  H32 UNL     1       0.894 -12.558  12.371  1.00  0.00     0.174 HD
ATOM     18  H31 UNL     1       0.753 -11.015  13.261  1.00  0.00     0.174 HD
ENDBRANCH   4  16
BRANCH   9  19
HETATM   19  N6  UNL     1      -4.297 -10.593  13.481  1.00  0.00    -0.383 N 
ATOM     20  H62 UNL     1      -5.253 -10.726  13.814  1.00  0.00     0.157 HD
ATOM     21  H61 UNL     1      -3.620 -10.495  14.238  1.00  0.00     0.157 HD
ENDBRANCH   9  19
BRANCH   1  22
HETATM   22  N1  UNL     1      -1.356 -10.867   8.492  1.00  0.00    -0.422 NA
BRANCH  22  23
HETATM   23  C3  UNL     1      -1.242 -10.914   7.146  1.00  0.00     0.164 C 
BRANCH  23  24
HETATM   24  C2  UNL     1      -1.713 -12.166   6.464  1.00  0.00     0.035 C 
HETATM   25  C1  UNL     1      -3.107 -12.594   6.682  1.00  0.00     0.008 C 
ENDBRANCH  23  24
BRANCH  23  26
HETATM   26  C4  UNL     1      -1.807  -9.659   6.524  1.00  0.00     0.035 C 
HETATM   27  C5  UNL     1      -0.867  -8.591   6.160  1.00  0.00     0.008 C 
ENDBRANCH  23  26
ENDBRANCH  22  23
ENDBRANCH   1  22
BRANCH  12  28
HETATM   28  N8  UNL     1      -6.079  -9.833   9.287  1.00  0.00    -0.214 N 
HETATM   29  C12 UNL     1      -6.168 -10.449   7.992  1.00  0.00     0.168 C 
HETATM   30  C13 UNL     1      -7.621 -10.781   7.727  1.00  0.00     0.252 C 
HETATM   31  N9  UNL     1      -8.363  -9.536   7.800  1.00  0.00    -0.072 N 
HETATM   32  C14 UNL     1      -8.393  -9.007   9.146  1.00  0.00     0.252 C 
ATOM     33  H92 UNL     1      -8.000  -8.849   7.139  1.00  0.00     0.277 HD
ATOM     34  H91 UNL     1      -9.304  -9.641   7.421  1.00  0.00     0.277 HD
HETATM   35  C15 UNL     1      -7.053  -8.940   9.791  1.00  0.00     0.168 C 
ENDBRANCH  12  28
TORSDOF 7
ENDMDL
MODEL 5
REMARK VINA RESULT: -6.455209188      2.465      6.465
REMARK  7 active torsions:
REMARK  status: ('A' for Active; 'I' for Inactive)
REMARK    1  A    between atoms: C2_2  and  C3_3 
REMARK    2  A    between atoms: C3_3  and  C4_4 
REMARK    3  A    between atoms: C3_3  and  N1_6 
REMARK    4  A    between atoms: N1_6  and  C6_7 
REMARK    5  A    between atoms: C7_10  and  N3_11 
REMARK    6  A    between atoms: C10_18  and  N6_19 
REMARK    7  A    between atoms: C11_24  and  N8_25 
ROOT
HETATM    1  C6  UNL     1      -1.316  -9.603  10.079  1.00  0.00     0.217 A 
HETATM    2  N2  UNL     1      -0.273  -9.810  10.911  1.00  0.00    -0.162 N 
ATOM      3  H2  UNL     1       0.674  -9.654  10.565  1.00  0.00     0.187 HD
HETATM    4  C7  UNL     1      -0.443 -10.212  12.169  1.00  0.00     0.694 A 
HETATM    5  N4  UNL     1      -1.675 -10.438  12.698  1.00  0.00    -0.074 N 
HETATM    6  C8  UNL     1      -1.745 -10.862  14.039  1.00  0.00     0.204 C 
HETATM    7  N5  UNL     1      -1.745 -11.214  15.156  1.00  0.00    -0.171 NA
HETATM    8  C9  UNL     1      -2.748 -10.262  11.962  1.00  0.00     0.143 A 
HETATM    9  C10 UNL     1      -4.029 -10.500  12.499  1.00  0.00     0.146 A 
HETATM   10  N7  UNL     1      -5.053 -10.274  11.586  1.00  0.00    -0.175 N 
ATOM     11  H7  UNL     1      -6.009 -10.427  11.906  1.00  0.00     0.186 HD
HETATM   12  C11 UNL     1      -4.885  -9.875  10.337  1.00  0.00     0.682 A 
HETATM   13  N10 UNL     1      -3.653  -9.656   9.853  1.00  0.00    -0.184 N 
ATOM     14  H10 UNL     1      -3.527  -9.349   8.889  1.00  0.00     0.184 HD
HETATM   15  C16 UNL     1      -2.584  -9.844  10.647  1.00  0.00     0.139 A 
ENDROOT
BRANCH   4  16
HETATM   16  N3  UNL     1       0.594 -10.400  12.931  1.00  0.00    -0.233 N 
ATOM     17  H32 UNL     1       1.519 -10.249  12.528  1.00  0.00     0.174 HD
ATOM     18  H31 UNL     1       0.463 -10.690  13.900  1.00  0.00     0.174 HD
ENDBRANCH   4  16
BRANCH   9  19
HETATM   19  N6  UNL     1      -4.282 -10.849  13.610  1.00  0.00    -0.383 N 
ATOM     20  H62 UNL     1      -4.429 -10.157  14.346  1.00  0.00     0.157 HD
ATOM     21  H61 UNL     1      -4.368 -11.810  13.943  1.00  0.00     0.157 HD
ENDBRANCH   9  19
BRANCH   1  22
HETATM   22  N1  UNL     1      -1.195  -9.250   8.970  1.00  0.00    -0.422 NA
BRANCH  22  23
HETATM   23  C3  UNL     1      -0.919  -8.859   7.706  1.00  0.00     0.164 C 
BRANCH  23  24
HETATM   24  C2  UNL     1       0.488  -8.423   7.417  1.00  0.00     0.035 C 
HETATM   25  C1  UNL     1       1.001  -7.228   8.110  1.00  0.00     0.008 C 
ENDBRANCH  23  24
BRANCH  23  26
HETATM   26  C4  UNL     1      -1.434  -9.876   6.715  1.00  0.00     0.035 C 
HETATM   27  C5  UNL     1      -2.885  -9.957   6.507  1.00  0.00     0.008 C 
ENDBRANCH  23  26
ENDBRANCH  22  23
ENDBRANCH   1  22
BRANCH  12  28
HETATM   28  N8  UNL     1      -6.046  -9.696   9.499  1.00  0.00    -0.214 N 
HETATM   29  C12 UNL     1      -6.201 -10.591   8.385  1.00  0.00     0.168 C 
HETATM   30  C13 UNL     1      -7.674 -10.911   8.240  1.00  0.00     0.252 C 
HETATM   31  N9  UNL     1      -8.366  -9.651   8.039  1.00  0.00    -0.072 N 
HETATM   32  C14 UNL     1      -8.331  -8.825   9.226  1.00  0.00     0.252 C 
ATOM     33  H92 UNL     1      -8.000  -9.151   7.228  1.00  0.00     0.277 HD
ATOM     34  H91 UNL     1      -9.323  -9.799   7.717  1.00  0.00     0.277 HD
HETATM   35  C15 UNL     1      -6.968  -8.670   9.805  1.00  0.00     0.168 C 
ENDBRANCH  12  28
TORSDOF 7
ENDMDL
