MODEL 1
REMARK VINA RESULT: -7.671346470      0.000      0.000
REMARK  5 active torsions:
REMARK  status: ('A' for Active; 'I' for Inactive)
REMARK    1  A    between atoms: N1_1  and  C1_4 
REMARK    2  A    between atoms: C4_10  and  O2_11 
REMARK    3  A    between atoms: O2_11  and  C5_12 
REMARK    4  A    between atoms: C5_12  and  C6_13 
REMARK    5  A    between atoms: C10_22  and  N5_23 
ROOT
HETATM    1  C1  UNL     1      -3.418 -12.352   6.952  1.00  0.00     0.680 A 
HETATM    2  N2  UNL     1      -4.482 -11.642   6.601  1.00  0.00    -0.155 N 
ATOM      3  H2  UNL     1      -4.814 -11.695   5.638  1.00  0.00     0.187 HD
HETATM    4  C2  UNL     1      -5.139 -10.856   7.473  1.00  0.00     0.278 A 
HETATM    5  O1  UNL     1      -6.157 -10.186   7.110  1.00  0.00    -0.266 OA
HETATM    6  C3  UNL     1      -4.658 -10.814   8.763  1.00  0.00     0.129 A 
HETATM    7  C4  UNL     1      -5.274 -10.036   9.710  1.00  0.00     0.177 A 
HETATM    8  N4  UNL     1      -4.787 -10.013  10.957  1.00  0.00    -0.169 N 
ATOM      9  H4  UNL     1      -5.264  -9.427  11.643  1.00  0.00     0.186 HD
HETATM   10  C10 UNL     1      -3.714 -10.709  11.368  1.00  0.00     0.684 A 
HETATM   11  N7  UNL     1      -3.097 -11.483  10.438  1.00  0.00    -0.175 N 
ATOM     12  H7  UNL     1      -2.278 -12.031  10.702  1.00  0.00     0.186 HD
HETATM   13  C15 UNL     1      -3.555 -11.537   9.168  1.00  0.00     0.156 A 
HETATM   14  N8  UNL     1      -2.956 -12.297   8.234  1.00  0.00    -0.175 N 
ATOM     15  H8  UNL     1      -2.136 -12.847   8.492  1.00  0.00     0.186 HD
ENDROOT
BRANCH   7  16
HETATM   16  O2  UNL     1      -6.389  -9.301   9.317  1.00  0.00    -0.332 OA
BRANCH  16  17
HETATM   17  C5  UNL     1      -7.458  -8.990  10.189  1.00  0.00     0.210 C 
BRANCH  17  18
HETATM   18  C6  UNL     1      -8.713  -9.580   9.581  1.00  0.00     0.210 C 
HETATM   19  C7  UNL     1      -8.780 -11.069   9.706  1.00  0.00     0.037 C 
HETATM   20  C8  UNL     1      -9.302 -11.513   8.350  1.00  0.00     0.029 C 
HETATM   21  C9  UNL     1      -9.721 -10.237   7.683  1.00  0.00     0.233 C 
HETATM   22  N3  UNL     1      -8.696  -9.290   8.148  1.00  0.00    -0.069 N 
ATOM     23  H32 UNL     1      -8.843  -8.314   7.890  1.00  0.00     0.277 HD
ATOM     24  H31 UNL     1      -7.787  -9.359   7.691  1.00  0.00     0.277 HD
ENDBRANCH  17  18
ENDBRANCH  16  17
ENDBRANCH   7  16
BRANCH  10  25
HETATM   25  N5  UNL     1      -3.239 -10.648  12.704  1.00  0.00    -0.208 N 
HETATM   26  C11 UNL     1      -3.745 -11.519  13.733  1.00  0.00     0.186 C 
HETATM   27  C12 UNL     1      -2.679 -12.126  14.584  1.00  0.00     0.080 C 
HETATM   28  N6  UNL     1      -1.481 -11.412  14.716  1.00  0.00    -0.379 N 
HETATM   29  C13 UNL     1      -1.115 -10.474  13.747  1.00  0.00     0.080 C 
ATOM     30  H6  UNL     1      -0.876 -11.576  15.520  1.00  0.00     0.164 HD
HETATM   31  C14 UNL     1      -2.221  -9.706  13.103  1.00  0.00     0.186 C 
ENDBRANCH  10  25
BRANCH   1  32
HETATM   32  N1  UNL     1      -2.837 -13.083   6.066  1.00  0.00    -0.234 N 
ATOM     33  H12 UNL     1      -1.943 -12.808   5.659  1.00  0.00     0.174 HD
ATOM     34  H11 UNL     1      -3.286 -13.949   5.770  1.00  0.00     0.174 HD
ENDBRANCH   1  32
TORSDOF 5
ENDMDL
MODEL 2
REMARK VINA RESULT: -7.104376075      1.366      1.378
REMARK  5 active torsions:
REMARK  status: ('A' for Active; 'I' for Inactive)
REMARK    1  A    between atoms: N1_1  and  C1_4 
REMARK    2  A    between atoms: C4_10  and  O2_11 
REMARK    3  A    between atoms: O2_11  and  C5_12 
REMARK    4  A    between atoms: C5_12  and  C6_13 
REMARK    5  A    between atoms: C10_22  and  N5_23 
ROOT
HETATM    1  C1  UNL     1      -2.227  -9.789   6.868  1.00  0.00     0.680 A 
HETATM    2  N2  UNL     1      -3.500  -9.908   6.513  1.00  0.00    -0.155 N 
ATOM      3  H2  UNL     1      -3.746  -9.821   5.527  1.00  0.00     0.187 HD
HETATM    4  C2  UNL     1      -4.476 -10.139   7.409  1.00  0.00     0.278 A 
HETATM    5  O1  UNL     1      -5.689 -10.249   7.042  1.00  0.00    -0.266 OA
HETATM    6  C3  UNL     1      -4.099 -10.250   8.730  1.00  0.00     0.129 A 
HETATM    7  C4  UNL     1      -5.037 -10.486   9.703  1.00  0.00     0.177 A 
HETATM    8  N4  UNL     1      -4.645 -10.589  10.980  1.00  0.00    -0.169 N 
ATOM      9  H4  UNL     1      -5.362 -10.766  11.684  1.00  0.00     0.186 HD
HETATM   10  C10 UNL     1      -3.373 -10.476  11.396  1.00  0.00     0.684 A 
HETATM   11  N7  UNL     1      -2.437 -10.243  10.440  1.00  0.00    -0.175 N 
ATOM     12  H7  UNL     1      -1.456 -10.150  10.708  1.00  0.00     0.186 HD
HETATM   13  C15 UNL     1      -2.787 -10.133   9.141  1.00  0.00     0.156 A 
HETATM   14  N8  UNL     1      -1.874  -9.901   8.181  1.00  0.00    -0.175 N 
ATOM     15  H8  UNL     1      -0.892  -9.807   8.441  1.00  0.00     0.186 HD
ENDROOT
BRANCH   7  16
HETATM   16  O2  UNL     1      -6.366 -10.607   9.305  1.00  0.00    -0.332 OA
BRANCH  16  17
HETATM   17  C5  UNL     1      -7.454 -10.193  10.107  1.00  0.00     0.210 C 
BRANCH  17  18
HETATM   18  C6  UNL     1      -8.704 -10.323   9.260  1.00  0.00     0.210 C 
HETATM   19  C7  UNL     1      -8.989 -11.733   8.853  1.00  0.00     0.037 C 
HETATM   20  C8  UNL     1      -9.414 -11.600   7.400  1.00  0.00     0.029 C 
HETATM   21  C9  UNL     1      -9.575 -10.123   7.200  1.00  0.00     0.233 C 
HETATM   22  N3  UNL     1      -8.488  -9.575   8.023  1.00  0.00    -0.069 N 
ATOM     23  H32 UNL     1      -8.468  -8.560   8.116  1.00  0.00     0.277 HD
ATOM     24  H31 UNL     1      -7.552  -9.638   7.623  1.00  0.00     0.277 HD
ENDBRANCH  17  18
ENDBRANCH  16  17
ENDBRANCH   7  16
BRANCH  10  25
HETATM   25  N5  UNL     1      -3.012 -10.594  12.763  1.00  0.00    -0.208 N 
HETATM   26  C11 UNL     1      -3.685 -11.505  13.654  1.00  0.00     0.186 C 
HETATM   27  C12 UNL     1      -2.759 -12.298  14.515  1.00  0.00     0.080 C 
HETATM   28  N6  UNL     1      -1.514 -11.726  14.813  1.00  0.00    -0.379 N 
HETATM   29  C13 UNL     1      -0.980 -10.741  13.979  1.00  0.00     0.080 C 
ATOM     30  H6  UNL     1      -0.999 -12.029  15.639  1.00  0.00     0.164 HD
HETATM   31  C14 UNL     1      -1.948  -9.804  13.336  1.00  0.00     0.186 C 
ENDBRANCH  10  25
BRANCH   1  32
HETATM   32  N1  UNL     1      -1.344  -9.567   5.957  1.00  0.00    -0.234 N 
ATOM     33  H12 UNL     1      -1.619  -9.339   5.002  1.00  0.00     0.174 HD
ATOM     34  H11 UNL     1      -0.357  -9.623   6.204  1.00  0.00     0.174 HD
ENDBRANCH   1  32
TORSDOF 5
ENDMDL
MODEL 3
REMARK VINA RESULT: -7.063935476      1.730      5.759
REMARK  5 active torsions:
REMARK  status: ('A' for Active; 'I' for Inactive)
REMARK    1  A    between atoms: N1_1  and  C1_4 
REMARK    2  A    between atoms: C4_10  and  O2_11 
REMARK    3  A    between atoms: O2_11  and  C5_12 
REMARK    4  A    between atoms: C5_12  and  C6_13 
REMARK    5  A    between atoms: C10_22  and  N5_23 
ROOT
HETATM    1  C1  UNL     1      -8.602 -10.124   7.514  1.00  0.00     0.680 A 
HETATM    2  N2  UNL     1      -8.515  -9.697   8.766  1.00  0.00    -0.155 N 
ATOM      3  H2  UNL     1      -9.348  -9.322   9.218  1.00  0.00     0.187 HD
HETATM    4  C2  UNL     1      -7.363  -9.741   9.461  1.00  0.00     0.278 A 
HETATM    5  O1  UNL     1      -7.306  -9.324  10.661  1.00  0.00    -0.266 OA
HETATM    6  C3  UNL     1      -6.261 -10.254   8.813  1.00  0.00     0.129 A 
HETATM    7  C4  UNL     1      -5.051 -10.333   9.454  1.00  0.00     0.177 A 
HETATM    8  N4  UNL     1      -3.995 -10.836   8.802  1.00  0.00    -0.169 N 
ATOM      9  H4  UNL     1      -3.106 -10.884   9.301  1.00  0.00     0.186 HD
HETATM   10  C10 UNL     1      -4.025 -11.282   7.535  1.00  0.00     0.684 A 
HETATM   11  N7  UNL     1      -5.219 -11.209   6.891  1.00  0.00    -0.175 N 
ATOM     12  H7  UNL     1      -5.292 -11.537   5.927  1.00  0.00     0.186 HD
HETATM   13  C15 UNL     1      -6.310 -10.709   7.511  1.00  0.00     0.156 A 
HETATM   14  N8  UNL     1      -7.500 -10.629   6.889  1.00  0.00    -0.175 N 
ATOM     15  H8  UNL     1      -7.580 -10.954   5.925  1.00  0.00     0.186 HD
ENDROOT
BRANCH   7  16
HETATM   16  O2  UNL     1      -4.985  -9.878  10.768  1.00  0.00    -0.332 OA
BRANCH  16  17
HETATM   17  C5  UNL     1      -3.863  -9.198  11.296  1.00  0.00     0.210 C 
BRANCH  17  18
HETATM   18  C6  UNL     1      -3.292 -10.071  12.394  1.00  0.00     0.210 C 
HETATM   19  C7  UNL     1      -2.529 -11.246  11.870  1.00  0.00     0.037 C 
HETATM   20  C8  UNL     1      -2.966 -12.382  12.781  1.00  0.00     0.029 C 
HETATM   21  C9  UNL     1      -3.724 -11.700  13.880  1.00  0.00     0.233 C 
HETATM   22  N3  UNL     1      -4.411 -10.617  13.161  1.00  0.00    -0.069 N 
ATOM     23  H32 UNL     1      -4.919  -9.950  13.741  1.00  0.00     0.277 HD
ATOM     24  H31 UNL     1      -5.229 -10.893  12.618  1.00  0.00     0.277 HD
ENDBRANCH  17  18
ENDBRANCH  16  17
ENDBRANCH   7  16
BRANCH  10  25
HETATM   25  N5  UNL     1      -2.875 -11.806   6.891  1.00  0.00    -0.208 N 
HETATM   26  C11 UNL     1      -1.713 -10.998   6.627  1.00  0.00     0.186 C 
HETATM   27  C12 UNL     1      -0.424 -11.663   6.979  1.00  0.00     0.080 C 
HETATM   28  N6  UNL     1      -0.397 -13.064   6.943  1.00  0.00    -0.379 N 
HETATM   29  C13 UNL     1      -1.584 -13.790   7.065  1.00  0.00     0.080 C 
ATOM     30  H6  UNL     1       0.491 -13.553   6.828  1.00  0.00     0.164 HD
HETATM   31  C14 UNL     1      -2.808 -13.184   6.463  1.00  0.00     0.186 C 
ENDBRANCH  10  25
BRANCH   1  32
HETATM   32  N1  UNL     1      -9.736 -10.052   6.909  1.00  0.00    -0.234 N 
ATOM     33  H12 UNL     1      -9.932  -9.302   6.245  1.00  0.00     0.174 HD
ATOM     34  H11 UNL     1     -10.444 -10.759   7.102  1.00  0.00     0.174 HD
ENDBRANCH   1  32
TORSDOF 5
ENDMDL
MODEL 4
REMARK VINA RESULT: -7.056262304      2.085      6.348
REMARK  5 active torsions:
REMARK  status: ('A' for Active; 'I' for Inactive)
REMARK    1  A    between atoms: N1_1  and  C1_4 
REMARK    2  A    between atoms: C4_10  and  O2_11 
REMARK    3  A    between atoms: O2_11  and  C5_12 
REMARK    4  A    between atoms: C5_12  and  C6_13 
REMARK    5  A    between atoms: C10_22  and  N5_23 
ROOT
HETATM    1  C1  UNL     1      -2.388  -9.979  13.098  1.00  0.00     0.680 A 
HETATM    2  N2  UNL     1      -1.466  -9.879  12.149  1.00  0.00    -0.155 N 
ATOM      3  H2  UNL     1      -0.485  -9.816  12.420  1.00  0.00     0.187 HD
HETATM    4  C2  UNL     1      -1.782  -9.856  10.842  1.00  0.00     0.278 A 
HETATM    5  O1  UNL     1      -0.879  -9.760   9.952  1.00  0.00    -0.266 OA
HETATM    6  C3  UNL     1      -3.119  -9.943  10.520  1.00  0.00     0.129 A 
HETATM    7  C4  UNL     1      -3.521  -9.928   9.208  1.00  0.00     0.177 A 
HETATM    8  N4  UNL     1      -4.826 -10.013   8.921  1.00  0.00    -0.169 N 
ATOM      9  H4  UNL     1      -5.099 -10.000   7.938  1.00  0.00     0.186 HD
HETATM   10  C10 UNL     1      -5.801 -10.115   9.839  1.00  0.00     0.684 A 
HETATM   11  N7  UNL     1      -5.414 -10.132  11.141  1.00  0.00    -0.175 N 
ATOM     12  H7  UNL     1      -6.119 -10.209  11.875  1.00  0.00     0.186 HD
HETATM   13  C15 UNL     1      -4.108 -10.049  11.475  1.00  0.00     0.156 A 
HETATM   14  N8  UNL     1      -3.707 -10.063  12.759  1.00  0.00    -0.175 N 
ATOM     15  H8  UNL     1      -4.406 -10.139  13.498  1.00  0.00     0.186 HD
ENDROOT
BRANCH   7  16
HETATM   16  O2  UNL     1      -2.534  -9.822   8.231  1.00  0.00    -0.332 OA
BRANCH  16  17
HETATM   17  C5  UNL     1      -2.741 -10.186   6.880  1.00  0.00     0.210 C 
BRANCH  17  18
HETATM   18  C6  UNL     1      -2.083 -11.535   6.679  1.00  0.00     0.210 C 
HETATM   19  C7  UNL     1      -3.029 -12.679   6.856  1.00  0.00     0.037 C 
HETATM   20  C8  UNL     1      -2.213 -13.691   7.645  1.00  0.00     0.029 C 
HETATM   21  C9  UNL     1      -0.820 -13.139   7.616  1.00  0.00     0.233 C 
HETATM   22  N3  UNL     1      -1.054 -11.691   7.706  1.00  0.00    -0.069 N 
ATOM     23  H32 UNL     1      -0.230 -11.099   7.603  1.00  0.00     0.277 HD
ATOM     24  H31 UNL     1      -1.294 -11.336   8.632  1.00  0.00     0.277 HD
ENDBRANCH  17  18
ENDBRANCH  16  17
ENDBRANCH   7  16
BRANCH  10  25
HETATM   25  N5  UNL     1      -7.171 -10.203   9.480  1.00  0.00    -0.208 N 
HETATM   26  C11 UNL     1      -7.595 -10.744   8.214  1.00  0.00     0.186 C 
HETATM   27  C12 UNL     1      -8.733 -11.703   8.320  1.00  0.00     0.080 C 
HETATM   28  N6  UNL     1      -9.604 -11.546   9.407  1.00  0.00    -0.379 N 
HETATM   29  C13 UNL     1      -9.172 -10.884  10.559  1.00  0.00     0.080 C 
ATOM     30  H6  UNL     1     -10.553 -11.914   9.356  1.00  0.00     0.164 HD
HETATM   31  C14 UNL     1      -8.217  -9.753  10.368  1.00  0.00     0.186 C 
ENDBRANCH  10  25
BRANCH   1  32
HETATM   32  N1  UNL     1      -2.015  -9.994  14.330  1.00  0.00    -0.234 N 
ATOM     33  H12 UNL     1      -1.196 -10.525  14.626  1.00  0.00     0.174 HD
ATOM     34  H11 UNL     1      -2.552  -9.463  15.014  1.00  0.00     0.174 HD
ENDBRANCH   1  32
TORSDOF 5
ENDMDL
MODEL 5
REMARK VINA RESULT: -6.929826557      1.895      6.384
REMARK  5 active torsions:
REMARK  status: ('A' for Active; 'I' for Inactive)
REMARK    1  A    between atoms: N1_1  and  C1_4 
REMARK    2  A    between atoms: C4_10  and  O2_11 
REMARK    3  A    between atoms: O2_11  and  C5_12 
REMARK    4  A    between atoms: C5_12  and  C6_13 
REMARK    5  A    between atoms: C10_22  and  N5_23 
ROOT
HETATM    1  C1  UNL     1      -2.575  -9.982  12.923  1.00  0.00     0.680 A 
HETATM    2  N2  UNL     1      -1.695  -9.991  11.930  1.00  0.00    -0.155 N 
ATOM      3  H2  UNL     1      -0.701 -10.001  12.152  1.00  0.00     0.187 HD
HETATM    4  C2  UNL     1      -2.073  -9.988  10.638  1.00  0.00     0.278 A 
HETATM    5  O1  UNL     1      -1.210  -9.997   9.704  1.00  0.00    -0.266 OA
HETATM    6  C3  UNL     1      -3.426  -9.975  10.382  1.00  0.00     0.129 A 
HETATM    7  C4  UNL     1      -3.890  -9.971   9.091  1.00  0.00     0.177 A 
HETATM    8  N4  UNL     1      -5.211  -9.958   8.868  1.00  0.00    -0.169 N 
ATOM      9  H4  UNL     1      -5.530  -9.957   7.899  1.00  0.00     0.186 HD
HETATM   10  C10 UNL     1      -6.144  -9.948   9.834  1.00  0.00     0.684 A 
HETATM   11  N7  UNL     1      -5.696  -9.951  11.116  1.00  0.00    -0.175 N 
ATOM     12  H7  UNL     1      -6.368  -9.944  11.884  1.00  0.00     0.186 HD
HETATM   13  C15 UNL     1      -4.373  -9.965  11.386  1.00  0.00     0.156 A 
HETATM   14  N8  UNL     1      -3.911  -9.968  12.650  1.00  0.00    -0.175 N 
ATOM     15  H8  UNL     1      -4.577  -9.961  13.423  1.00  0.00     0.186 HD
ENDROOT
BRANCH   7  16
HETATM   16  O2  UNL     1      -2.948  -9.981   8.066  1.00  0.00    -0.332 OA
BRANCH  16  17
HETATM   17  C5  UNL     1      -3.016 -10.860   6.961  1.00  0.00     0.210 C 
BRANCH  17  18
HETATM   18  C6  UNL     1      -2.460 -12.192   7.419  1.00  0.00     0.210 C 
HETATM   19  C7  UNL     1      -1.791 -12.955   6.320  1.00  0.00     0.037 C 
HETATM   20  C8  UNL     1      -2.263 -14.383   6.547  1.00  0.00     0.029 C 
HETATM   21  C9  UNL     1      -2.936 -14.338   7.886  1.00  0.00     0.233 C 
HETATM   22  N3  UNL     1      -3.581 -13.016   7.867  1.00  0.00    -0.069 N 
ATOM     23  H32 UNL     1      -4.025 -12.726   8.738  1.00  0.00     0.277 HD
ATOM     24  H31 UNL     1      -4.434 -12.946   7.313  1.00  0.00     0.277 HD
ENDBRANCH  17  18
ENDBRANCH  16  17
ENDBRANCH   7  16
BRANCH  10  25
HETATM   25  N5  UNL     1      -7.533  -9.934   9.542  1.00  0.00    -0.208 N 
HETATM   26  C11 UNL     1      -8.081  -9.132   8.479  1.00  0.00     0.186 C 
HETATM   27  C12 UNL     1      -9.065  -9.859   7.623  1.00  0.00     0.080 C 
HETATM   28  N6  UNL     1      -9.767 -10.918   8.214  1.00  0.00    -0.379 N 
HETATM   29  C13 UNL     1      -9.243 -11.566   9.335  1.00  0.00     0.080 C 
ATOM     30  H6  UNL     1     -10.662 -11.215   7.825  1.00  0.00     0.164 HD
HETATM   31  C14 UNL     1      -8.473 -10.726  10.299  1.00  0.00     0.186 C 
ENDBRANCH  10  25
BRANCH   1  32
HETATM   32  N1  UNL     1      -2.143  -9.985  14.136  1.00  0.00    -0.234 N 
ATOM     33  H12 UNL     1      -2.675 -10.431  14.884  1.00  0.00     0.174 HD
ATOM     34  H11 UNL     1      -1.255  -9.530  14.345  1.00  0.00     0.174 HD
ENDBRANCH   1  32
TORSDOF 5
ENDMDL
