MODEL 1
REMARK VINA RESULT: -4.565356461      0.000      0.000
REMARK  4 active torsions:
REMARK  status: ('A' for Active; 'I' for Inactive)
REMARK    1  A    between atoms: C2_2  and  N1_3 
REMARK    2  A    between atoms: N1_3  and  C3_6 
REMARK    3  A    between atoms: C3_6  and  C4_7 
REMARK    4  A    between atoms: C4_7  and  N2_8 
ROOT
HETATM    1  N2  UNL     1      16.827  45.263  75.968  1.00  0.00    -0.361 N 
ATOM      2  H2  UNL     1      15.830  45.472  76.036  1.00  0.00     0.162 HD
HETATM    3  C5  UNL     1      17.230  44.213  75.368  1.00  0.00     0.171 C 
HETATM    4  N3  UNL     1      18.563  43.800  75.198  1.00  0.00    -0.361 N 
ATOM      5  H3  UNL     1      19.354  44.029  75.800  1.00  0.00     0.162 HD
HETATM    6  C6  UNL     1      18.596  42.972  73.982  1.00  0.00     0.142 C 
HETATM    7  C7  UNL     1      17.180  42.558  73.783  1.00  0.00     0.142 C 
HETATM    8  N4  UNL     1      16.397  43.254  74.757  1.00  0.00    -0.361 N 
ATOM      9  H4  UNL     1      15.414  43.086  74.970  1.00  0.00     0.162 HD
ENDROOT
BRANCH   1  10
HETATM   10  C4  UNL     1      17.806  46.151  76.549  1.00  0.00     0.150 C 
BRANCH  10  11
HETATM   11  C3  UNL     1      17.996  47.320  75.602  1.00  0.00     0.251 C 
BRANCH  11  12
HETATM   12  N1  UNL     1      19.384  47.579  75.337  1.00  0.00    -0.074 N 
ATOM     13  H12 UNL     1      19.684  47.115  74.479  1.00  0.00     0.277 HD
ATOM     14  H11 UNL     1      19.979  47.091  76.007  1.00  0.00     0.277 HD
BRANCH  12  15
HETATM   15  C2  UNL     1      19.699  48.986  75.298  1.00  0.00     0.228 C 
HETATM   16  C1  UNL     1      20.879  49.153  74.356  1.00  0.00     0.034 C 
ENDBRANCH  12  15
ENDBRANCH  11  12
ENDBRANCH  10  11
ENDBRANCH   1  10
TORSDOF 4
ENDMDL
MODEL 2
REMARK VINA RESULT: -4.518680219      1.437      2.375
REMARK  4 active torsions:
REMARK  status: ('A' for Active; 'I' for Inactive)
REMARK    1  A    between atoms: C2_2  and  N1_3 
REMARK    2  A    between atoms: N1_3  and  C3_6 
REMARK    3  A    between atoms: C3_6  and  C4_7 
REMARK    4  A    between atoms: C4_7  and  N2_8 
ROOT
HETATM    1  N2  UNL     1      18.239  47.373  75.596  1.00  0.00    -0.361 N 
ATOM      2  H2  UNL     1      17.557  48.131  75.641  1.00  0.00     0.162 HD
HETATM    3  C5  UNL     1      17.861  46.157  75.631  1.00  0.00     0.171 C 
HETATM    4  N3  UNL     1      18.683  45.018  75.579  1.00  0.00    -0.361 N 
ATOM      5  H3  UNL     1      19.658  44.956  75.873  1.00  0.00     0.162 HD
HETATM    6  C6  UNL     1      17.864  43.932  75.018  1.00  0.00     0.142 C 
HETATM    7  C7  UNL     1      16.462  44.387  75.224  1.00  0.00     0.142 C 
HETATM    8  N4  UNL     1      16.524  45.723  75.733  1.00  0.00    -0.361 N 
ATOM      9  H4  UNL     1      15.742  46.262  76.102  1.00  0.00     0.162 HD
ENDROOT
BRANCH   1  10
HETATM   10  C4  UNL     1      19.651  47.660  75.494  1.00  0.00     0.150 C 
BRANCH  10  11
HETATM   11  C3  UNL     1      19.806  49.140  75.203  1.00  0.00     0.251 C 
BRANCH  11  12
HETATM   12  N1  UNL     1      21.164  49.582  75.367  1.00  0.00    -0.074 N 
ATOM     13  H12 UNL     1      21.532  49.299  76.275  1.00  0.00     0.277 HD
ATOM     14  H11 UNL     1      21.206  50.595  75.478  1.00  0.00     0.277 HD
BRANCH  12  15
HETATM   15  C2  UNL     1      22.033  49.144  74.302  1.00  0.00     0.228 C 
HETATM   16  C1  UNL     1      23.445  49.123  74.859  1.00  0.00     0.034 C 
ENDBRANCH  12  15
ENDBRANCH  11  12
ENDBRANCH  10  11
ENDBRANCH   1  10
TORSDOF 4
ENDMDL
MODEL 3
REMARK VINA RESULT: -4.309831929      1.484      2.552
REMARK  4 active torsions:
REMARK  status: ('A' for Active; 'I' for Inactive)
REMARK    1  A    between atoms: C2_2  and  N1_3 
REMARK    2  A    between atoms: N1_3  and  C3_6 
REMARK    3  A    between atoms: C3_6  and  C4_7 
REMARK    4  A    between atoms: C4_7  and  N2_8 
ROOT
HETATM    1  N2  UNL     1      18.360  47.655  75.585  1.00  0.00    -0.361 N 
ATOM      2  H2  UNL     1      17.665  48.393  75.695  1.00  0.00     0.162 HD
HETATM    3  C5  UNL     1      18.020  46.428  75.650  1.00  0.00     0.171 C 
HETATM    4  N3  UNL     1      18.865  45.312  75.518  1.00  0.00    -0.361 N 
ATOM      5  H3  UNL     1      19.863  45.276  75.721  1.00  0.00     0.162 HD
HETATM    6  C6  UNL     1      18.026  44.205  75.031  1.00  0.00     0.142 C 
HETATM    7  C7  UNL     1      16.638  44.622  75.367  1.00  0.00     0.142 C 
HETATM    8  N4  UNL     1      16.710  45.958  75.873  1.00  0.00    -0.361 N 
ATOM      9  H4  UNL     1      15.951  46.476  76.315  1.00  0.00     0.162 HD
ENDROOT
BRANCH   1  10
HETATM   10  C4  UNL     1      19.749  47.980  75.354  1.00  0.00     0.150 C 
BRANCH  10  11
HETATM   11  C3  UNL     1      19.865  49.489  75.266  1.00  0.00     0.251 C 
BRANCH  11  12
HETATM   12  N1  UNL     1      20.535  49.908  74.065  1.00  0.00    -0.074 N 
ATOM     13  H12 UNL     1      20.949  50.833  74.183  1.00  0.00     0.277 HD
ATOM     14  H11 UNL     1      19.862  50.119  73.328  1.00  0.00     0.277 HD
BRANCH  12  15
HETATM   15  C2  UNL     1      21.520  48.959  73.608  1.00  0.00     0.228 C 
HETATM   16  C1  UNL     1      21.247  48.708  72.135  1.00  0.00     0.034 C 
ENDBRANCH  12  15
ENDBRANCH  11  12
ENDBRANCH  10  11
ENDBRANCH   1  10
TORSDOF 4
ENDMDL
MODEL 4
REMARK VINA RESULT: -4.280584128      2.104      6.225
REMARK  4 active torsions:
REMARK  status: ('A' for Active; 'I' for Inactive)
REMARK    1  A    between atoms: C2_2  and  N1_3 
REMARK    2  A    between atoms: N1_3  and  C3_6 
REMARK    3  A    between atoms: C3_6  and  C4_7 
REMARK    4  A    between atoms: C4_7  and  N2_8 
ROOT
HETATM    1  N2  UNL     1      19.713  49.114  75.206  1.00  0.00    -0.361 N 
ATOM      2  H2  UNL     1      18.881  49.701  75.268  1.00  0.00     0.162 HD
HETATM    3  C5  UNL     1      20.860  49.633  75.007  1.00  0.00     0.171 C 
HETATM    4  N3  UNL     1      22.086  48.952  74.899  1.00  0.00    -0.361 N 
ATOM      5  H3  UNL     1      22.222  47.987  74.596  1.00  0.00     0.162 HD
HETATM    6  C6  UNL     1      23.132  49.901  75.309  1.00  0.00     0.142 C 
HETATM    7  C7  UNL     1      22.490  51.236  75.172  1.00  0.00     0.142 C 
HETATM    8  N4  UNL     1      21.114  51.011  74.850  1.00  0.00    -0.361 N 
ATOM      9  H4  UNL     1      20.440  51.718  74.561  1.00  0.00     0.162 HD
ENDROOT
BRANCH   1  10
HETATM   10  C4  UNL     1      19.614  47.679  75.342  1.00  0.00     0.150 C 
BRANCH  10  11
HETATM   11  C3  UNL     1      18.166  47.339  75.637  1.00  0.00     0.251 C 
BRANCH  11  12
HETATM   12  N1  UNL     1      18.045  46.167  76.461  1.00  0.00    -0.074 N 
ATOM     13  H12 UNL     1      17.185  46.195  77.010  1.00  0.00     0.277 HD
ATOM     14  H11 UNL     1      18.728  46.184  77.219  1.00  0.00     0.277 HD
BRANCH  12  15
HETATM   15  C2  UNL     1      18.137  44.939  75.712  1.00  0.00     0.228 C 
HETATM   16  C1  UNL     1      17.105  45.016  74.600  1.00  0.00     0.034 C 
ENDBRANCH  12  15
ENDBRANCH  11  12
ENDBRANCH  10  11
ENDBRANCH   1  10
TORSDOF 4
ENDMDL
MODEL 5
REMARK VINA RESULT: -4.240817213      1.577      2.367
REMARK  4 active torsions:
REMARK  status: ('A' for Active; 'I' for Inactive)
REMARK    1  A    between atoms: C2_2  and  N1_3 
REMARK    2  A    between atoms: N1_3  and  C3_6 
REMARK    3  A    between atoms: C3_6  and  C4_7 
REMARK    4  A    between atoms: C4_7  and  N2_8 
ROOT
HETATM    1  N2  UNL     1      18.186  47.318  75.587  1.00  0.00    -0.361 N 
ATOM      2  H2  UNL     1      17.491  48.061  75.662  1.00  0.00     0.162 HD
HETATM    3  C5  UNL     1      17.832  46.094  75.603  1.00  0.00     0.171 C 
HETATM    4  N3  UNL     1      18.675  44.972  75.510  1.00  0.00    -0.361 N 
ATOM      5  H3  UNL     1      19.657  44.923  75.782  1.00  0.00     0.162 HD
HETATM    6  C6  UNL     1      17.865  43.882  74.943  1.00  0.00     0.142 C 
HETATM    7  C7  UNL     1      16.459  44.305  75.188  1.00  0.00     0.142 C 
HETATM    8  N4  UNL     1      16.506  45.631  75.724  1.00  0.00    -0.361 N 
ATOM      9  H4  UNL     1      15.722  46.147  76.121  1.00  0.00     0.162 HD
ENDROOT
BRANCH   1  10
HETATM   10  C4  UNL     1      19.590  47.634  75.461  1.00  0.00     0.150 C 
BRANCH  10  11
HETATM   11  C3  UNL     1      19.712  49.129  75.240  1.00  0.00     0.251 C 
BRANCH  11  12
HETATM   12  N1  UNL     1      20.963  49.645  75.725  1.00  0.00    -0.074 N 
ATOM     13  H12 UNL     1      21.701  49.525  75.031  1.00  0.00     0.277 HD
ATOM     14  H11 UNL     1      21.336  49.054  76.469  1.00  0.00     0.277 HD
BRANCH  12  15
HETATM   15  C2  UNL     1      20.879  51.019  76.154  1.00  0.00     0.228 C 
HETATM   16  C1  UNL     1      19.514  51.534  75.734  1.00  0.00     0.034 C 
ENDBRANCH  12  15
ENDBRANCH  11  12
ENDBRANCH  10  11
ENDBRANCH   1  10
TORSDOF 4
ENDMDL
