MODEL 1
REMARK VINA RESULT: -4.771374428      0.000      0.000
REMARK  4 active torsions:
REMARK  status: ('A' for Active; 'I' for Inactive)
REMARK    1  A    between atoms: C2_4  and  C3_5 
REMARK    2  A    between atoms: C3_5  and  C4_6 
REMARK    3  A    between atoms: C4_6  and  N2_7 
REMARK    4  A    between atoms: N2_7  and  C5_10 
ROOT
HETATM    1  C4  UNL     1      18.435  47.541  75.595  1.00  0.00     0.241 C 
ENDROOT
BRANCH   1   2
HETATM    2  C3  UNL     1      18.350  46.274  76.385  1.00  0.00     0.086 C 
BRANCH   2   3
HETATM    3  C2  UNL     1      17.960  45.143  75.504  1.00  0.00     0.027 A 
HETATM    4  N1  UNL     1      18.625  44.003  75.259  1.00  0.00    -0.355 N 
HETATM    5  C1  UNL     1      17.937  43.236  74.401  1.00  0.00     0.180 A 
ATOM      6  H1  UNL     1      19.526  43.754  75.668  1.00  0.00     0.166 HD
HETATM    7  N4  UNL     1      16.806  43.893  74.087  1.00  0.00    -0.360 N 
HETATM    8  C7  UNL     1      16.787  45.066  74.746  1.00  0.00     0.114 A 
ATOM      9  H4  UNL     1      16.080  43.556  73.453  1.00  0.00     0.166 HD
ENDBRANCH   2   3
ENDBRANCH   1   2
BRANCH   1  10
HETATM   10  N2  UNL     1      19.777  47.923  75.266  1.00  0.00    -0.044 N 
ATOM     11  H22 UNL     1      20.441  47.487  75.905  1.00  0.00     0.279 HD
ATOM     12  H21 UNL     1      20.070  47.487  74.391  1.00  0.00     0.279 HD
BRANCH  10  13
HETATM   13  C5  UNL     1      19.981  49.353  75.215  1.00  0.00     0.408 A 
HETATM   14  C6  UNL     1      21.423  49.780  75.400  1.00  0.00     0.297 A 
HETATM   15  N3  UNL     1      20.754  49.921  74.137  1.00  0.00    -0.041 N 
ATOM     16  H32 UNL     1      20.973  49.601  73.193  1.00  0.00     0.279 HD
ATOM     17  H31 UNL     1      20.602  50.715  73.515  1.00  0.00     0.279 HD
ENDBRANCH  10  13
ENDBRANCH   1  10
TORSDOF 4
ENDMDL
MODEL 2
REMARK VINA RESULT: -4.604538998      1.347      5.689
REMARK  4 active torsions:
REMARK  status: ('A' for Active; 'I' for Inactive)
REMARK    1  A    between atoms: C2_4  and  C3_5 
REMARK    2  A    between atoms: C3_5  and  C4_6 
REMARK    3  A    between atoms: C4_6  and  N2_7 
REMARK    4  A    between atoms: N2_7  and  C5_10 
ROOT
HETATM    1  C4  UNL     1      17.912  47.398  75.650  1.00  0.00     0.241 C 
ENDROOT
BRANCH   1   2
HETATM    2  C3  UNL     1      19.401  47.433  75.506  1.00  0.00     0.086 C 
BRANCH   2   3
HETATM    3  C2  UNL     1      19.850  48.801  75.140  1.00  0.00     0.027 A 
HETATM    4  N1  UNL     1      19.450  49.979  75.646  1.00  0.00    -0.355 N 
HETATM    5  C1  UNL     1      20.096  50.989  75.045  1.00  0.00     0.180 A 
ATOM      6  H1  UNL     1      18.754  50.089  76.384  1.00  0.00     0.166 HD
HETATM    7  N4  UNL     1      20.929  50.454  74.135  1.00  0.00    -0.360 N 
HETATM    8  C7  UNL     1      20.804  49.114  74.166  1.00  0.00     0.114 A 
ATOM      9  H4  UNL     1      21.553  50.978  73.522  1.00  0.00     0.166 HD
ENDBRANCH   2   3
ENDBRANCH   1   2
BRANCH   1  10
HETATM   10  N2  UNL     1      17.406  46.122  76.064  1.00  0.00    -0.044 N 
ATOM     11  H22 UNL     1      18.104  45.620  76.614  1.00  0.00     0.279 HD
ATOM     12  H21 UNL     1      16.680  46.236  76.772  1.00  0.00     0.279 HD
BRANCH  10  13
HETATM   13  C5  UNL     1      16.930  45.301  74.974  1.00  0.00     0.408 A 
HETATM   14  C6  UNL     1      17.560  43.925  74.914  1.00  0.00     0.297 A 
HETATM   15  N3  UNL     1      16.179  44.104  75.264  1.00  0.00    -0.041 N 
ATOM     16  H32 UNL     1      15.620  43.809  76.065  1.00  0.00     0.279 HD
ATOM     17  H31 UNL     1      15.311  43.718  74.891  1.00  0.00     0.279 HD
ENDBRANCH  10  13
ENDBRANCH   1  10
TORSDOF 4
ENDMDL
MODEL 3
REMARK VINA RESULT: -4.479059967      1.028      1.511
REMARK  4 active torsions:
REMARK  status: ('A' for Active; 'I' for Inactive)
REMARK    1  A    between atoms: C2_4  and  C3_5 
REMARK    2  A    between atoms: C3_5  and  C4_6 
REMARK    3  A    between atoms: C4_6  and  N2_7 
REMARK    4  A    between atoms: N2_7  and  C5_10 
ROOT
HETATM    1  C4  UNL     1      19.441  47.817  75.815  1.00  0.00     0.241 C 
ENDROOT
BRANCH   1   2
HETATM    2  C3  UNL     1      18.021  47.429  75.547  1.00  0.00     0.086 C 
BRANCH   2   3
HETATM    3  C2  UNL     1      17.920  45.963  75.333  1.00  0.00     0.027 A 
HETATM    4  N1  UNL     1      17.241  45.298  74.384  1.00  0.00    -0.355 N 
HETATM    5  C1  UNL     1      17.401  43.975  74.534  1.00  0.00     0.180 A 
ATOM      6  H1  UNL     1      16.682  45.737  73.652  1.00  0.00     0.166 HD
HETATM    7  N4  UNL     1      18.200  43.782  75.599  1.00  0.00    -0.360 N 
HETATM    8  C7  UNL     1      18.536  44.979  76.114  1.00  0.00     0.114 A 
ATOM      9  H4  UNL     1      18.501  42.876  75.958  1.00  0.00     0.166 HD
ENDBRANCH   2   3
ENDBRANCH   1   2
BRANCH   1  10
HETATM   10  N2  UNL     1      19.985  48.711  74.837  1.00  0.00    -0.044 N 
ATOM     11  H22 UNL     1      20.045  48.255  73.926  1.00  0.00     0.279 HD
ATOM     12  H21 UNL     1      19.318  49.450  74.614  1.00  0.00     0.279 HD
BRANCH  10  13
HETATM   13  C5  UNL     1      21.264  49.275  75.209  1.00  0.00     0.408 A 
HETATM   14  C6  UNL     1      22.347  49.094  74.165  1.00  0.00     0.297 A 
HETATM   15  N3  UNL     1      21.794  50.387  74.457  1.00  0.00    -0.041 N 
ATOM     16  H32 UNL     1      21.360  51.105  73.877  1.00  0.00     0.279 HD
ATOM     17  H31 UNL     1      22.211  51.276  74.730  1.00  0.00     0.279 HD
ENDBRANCH  10  13
ENDBRANCH   1  10
TORSDOF 4
ENDMDL
MODEL 4
REMARK VINA RESULT: -4.441396240      1.097      1.175
REMARK  4 active torsions:
REMARK  status: ('A' for Active; 'I' for Inactive)
REMARK    1  A    between atoms: C2_4  and  C3_5 
REMARK    2  A    between atoms: C3_5  and  C4_6 
REMARK    3  A    between atoms: C4_6  and  N2_7 
REMARK    4  A    between atoms: N2_7  and  C5_10 
ROOT
HETATM    1  C4  UNL     1      19.517  47.860  75.086  1.00  0.00     0.241 C 
ENDROOT
BRANCH   1   2
HETATM    2  C3  UNL     1      18.690  47.130  76.097  1.00  0.00     0.086 C 
BRANCH   2   3
HETATM    3  C2  UNL     1      18.140  45.882  75.509  1.00  0.00     0.027 A 
HETATM    4  N1  UNL     1      18.609  44.628  75.612  1.00  0.00    -0.355 N 
HETATM    5  C1  UNL     1      17.826  43.779  74.931  1.00  0.00     0.180 A 
ATOM      6  H1  UNL     1      19.443  44.360  76.136  1.00  0.00     0.166 HD
HETATM    7  N4  UNL     1      16.833  44.498  74.378  1.00  0.00    -0.360 N 
HETATM    8  C7  UNL     1      16.994  45.791  74.712  1.00  0.00     0.114 A 
ATOM      9  H4  UNL     1      16.080  44.123  73.801  1.00  0.00     0.166 HD
ENDBRANCH   2   3
ENDBRANCH   1   2
BRANCH   1  10
HETATM   10  N2  UNL     1      20.432  48.800  75.663  1.00  0.00    -0.044 N 
ATOM     11  H22 UNL     1      19.927  49.534  76.161  1.00  0.00     0.279 HD
ATOM     12  H21 UNL     1      20.934  48.379  76.445  1.00  0.00     0.279 HD
BRANCH  10  13
HETATM   13  C5  UNL     1      21.358  49.373  74.712  1.00  0.00     0.408 A 
HETATM   14  C6  UNL     1      22.554  50.053  75.346  1.00  0.00     0.297 A 
HETATM   15  N3  UNL     1      22.691  48.830  74.605  1.00  0.00    -0.041 N 
ATOM     16  H32 UNL     1      23.092  47.919  74.832  1.00  0.00     0.279 HD
ATOM     17  H31 UNL     1      23.270  48.558  73.811  1.00  0.00     0.279 HD
ENDBRANCH  10  13
ENDBRANCH   1  10
TORSDOF 4
ENDMDL
MODEL 5
REMARK VINA RESULT: -4.413082471      1.368      1.759
REMARK  4 active torsions:
REMARK  status: ('A' for Active; 'I' for Inactive)
REMARK    1  A    between atoms: C2_4  and  C3_5 
REMARK    2  A    between atoms: C3_5  and  C4_6 
REMARK    3  A    between atoms: C4_6  and  N2_7 
REMARK    4  A    between atoms: N2_7  and  C5_10 
ROOT
HETATM    1  C4  UNL     1      19.748  48.025  75.105  1.00  0.00     0.241 C 
ENDROOT
BRANCH   1   2
HETATM    2  C3  UNL     1      18.456  47.635  75.751  1.00  0.00     0.086 C 
BRANCH   2   3
HETATM    3  C2  UNL     1      18.161  46.204  75.487  1.00  0.00     0.027 A 
HETATM    4  N1  UNL     1      17.400  45.669  74.519  1.00  0.00    -0.355 N 
HETATM    5  C1  UNL     1      17.383  44.332  74.623  1.00  0.00     0.180 A 
ATOM      6  H1  UNL     1      16.905  46.204  73.805  1.00  0.00     0.166 HD
HETATM    7  N4  UNL     1      18.148  43.997  75.677  1.00  0.00    -0.360 N 
HETATM    8  C7  UNL     1      18.641  45.120  76.231  1.00  0.00     0.114 A 
ATOM      9  H4  UNL     1      18.326  43.047  76.003  1.00  0.00     0.166 HD
ENDBRANCH   2   3
ENDBRANCH   1   2
BRANCH   1  10
HETATM   10  N2  UNL     1      20.334  49.209  75.663  1.00  0.00    -0.044 N 
ATOM     11  H22 UNL     1      20.048  49.327  76.636  1.00  0.00     0.279 HD
ATOM     12  H21 UNL     1      21.338  49.086  75.793  1.00  0.00     0.279 HD
BRANCH  10  13
HETATM   13  C5  UNL     1      20.062  50.408  74.903  1.00  0.00     0.408 A 
HETATM   14  C6  UNL     1      19.968  51.665  75.744  1.00  0.00     0.297 A 
HETATM   15  N3  UNL     1      21.061  51.448  74.838  1.00  0.00    -0.041 N 
ATOM     16  H32 UNL     1      22.074  51.448  74.958  1.00  0.00     0.279 HD
ATOM     17  H31 UNL     1      21.447  51.995  74.069  1.00  0.00     0.279 HD
ENDBRANCH  10  13
ENDBRANCH   1  10
TORSDOF 4
ENDMDL
