MODEL 1
REMARK VINA RESULT: -4.289231067      0.000      0.000
REMARK  4 active torsions:
REMARK  status: ('A' for Active; 'I' for Inactive)
REMARK    1  A    between atoms: N1_2  and  C2_5 
REMARK    2  A    between atoms: C2_5  and  C3_6 
REMARK    3  A    between atoms: C3_6  and  N2_7 
REMARK    4  A    between atoms: N2_7  and  C4_10 
ROOT
HETATM    1  N2  UNL     1      18.383  47.568  75.645  1.00  0.00    -0.068 N 
ATOM      2  H21 UNL     1      17.638  48.135  75.240  1.00  0.00     0.277 HD
ATOM      3  H22 UNL     1      18.128  47.722  76.620  1.00  0.00     0.277 HD
ENDROOT
BRANCH   1   4
HETATM    4  C3  UNL     1      19.713  48.019  75.308  1.00  0.00     0.260 C 
BRANCH   4   5
HETATM    5  C2  UNL     1      19.905  49.470  75.162  1.00  0.00     0.259 C 
BRANCH   5   6
HETATM    6  N1  UNL     1      20.756  49.939  74.125  1.00  0.00    -0.077 N 
HETATM    7  C1  UNL     1      21.989  49.148  74.054  1.00  0.00     0.267 C 
ATOM      8  H12 UNL     1      20.954  50.935  74.223  1.00  0.00     0.276 HD
ATOM      9  H11 UNL     1      20.274  49.964  73.226  1.00  0.00     0.276 HD
ENDBRANCH   5   6
ENDBRANCH   4   5
ENDBRANCH   1   4
BRANCH   1  10
HETATM   10  C4  UNL     1      18.349  46.172  75.240  1.00  0.00     0.213 C 
HETATM   11  C5  UNL     1      17.100  45.705  74.585  1.00  0.00     0.062 C 
HETATM   12  C6  UNL     1      17.251  44.189  74.818  1.00  0.00     0.234 C 
HETATM   13  N3  UNL     1      17.472  44.195  76.264  1.00  0.00    -0.073 N 
HETATM   14  C7  UNL     1      18.466  45.234  76.421  1.00  0.00     0.265 C 
ATOM     15  H32 UNL     1      16.630  44.316  76.827  1.00  0.00     0.277 HD
ATOM     16  H31 UNL     1      17.728  43.293  76.663  1.00  0.00     0.277 HD
ENDBRANCH   1  10
TORSDOF 4
ENDMDL
MODEL 2
REMARK VINA RESULT: -4.006817397      1.336      5.470
REMARK  4 active torsions:
REMARK  status: ('A' for Active; 'I' for Inactive)
REMARK    1  A    between atoms: N1_2  and  C2_5 
REMARK    2  A    between atoms: C2_5  and  C3_6 
REMARK    3  A    between atoms: C3_6  and  N2_7 
REMARK    4  A    between atoms: N2_7  and  C4_10 
ROOT
HETATM    1  N2  UNL     1      19.682  48.091  74.816  1.00  0.00    -0.068 N 
ATOM      2  H21 UNL     1      19.068  48.395  74.061  1.00  0.00     0.277 HD
ATOM      3  H22 UNL     1      20.254  47.461  74.254  1.00  0.00     0.277 HD
ENDROOT
BRANCH   1   4
HETATM    4  C3  UNL     1      18.994  47.442  75.908  1.00  0.00     0.260 C 
BRANCH   4   5
HETATM    5  C2  UNL     1      17.711  46.795  75.592  1.00  0.00     0.259 C 
BRANCH   5   6
HETATM    6  N1  UNL     1      17.287  45.703  76.398  1.00  0.00    -0.077 N 
HETATM    7  C1  UNL     1      18.331  44.677  76.490  1.00  0.00     0.267 C 
ATOM      8  H12 UNL     1      16.405  45.312  76.067  1.00  0.00     0.276 HD
ATOM      9  H11 UNL     1      16.983  46.013  77.321  1.00  0.00     0.276 HD
ENDBRANCH   5   6
ENDBRANCH   4   5
ENDBRANCH   1   4
BRANCH   1  10
HETATM   10  C4  UNL     1      20.431  49.171  75.439  1.00  0.00     0.213 C 
HETATM   11  C5  UNL     1      19.869  50.537  75.285  1.00  0.00     0.062 C 
HETATM   12  C6  UNL     1      21.141  51.361  75.566  1.00  0.00     0.234 C 
HETATM   13  N3  UNL     1      22.047  50.728  74.607  1.00  0.00    -0.073 N 
HETATM   14  C7  UNL     1      21.814  49.320  74.843  1.00  0.00     0.265 C 
ATOM     15  H32 UNL     1      21.926  51.028  73.639  1.00  0.00     0.277 HD
ATOM     16  H31 UNL     1      23.021  51.020  74.679  1.00  0.00     0.277 HD
ENDBRANCH   1  10
TORSDOF 4
ENDMDL
MODEL 3
REMARK VINA RESULT: -3.985406209      0.899      1.377
REMARK  4 active torsions:
REMARK  status: ('A' for Active; 'I' for Inactive)
REMARK    1  A    between atoms: N1_2  and  C2_5 
REMARK    2  A    between atoms: C2_5  and  C3_6 
REMARK    3  A    between atoms: C3_6  and  N2_7 
REMARK    4  A    between atoms: N2_7  and  C4_10 
ROOT
HETATM    1  N2  UNL     1      17.895  47.608  75.739  1.00  0.00    -0.068 N 
ATOM      2  H21 UNL     1      17.331  48.143  75.079  1.00  0.00     0.277 HD
ATOM      3  H22 UNL     1      17.681  48.174  76.559  1.00  0.00     0.277 HD
ENDROOT
BRANCH   1   4
HETATM    4  C3  UNL     1      19.300  47.563  75.407  1.00  0.00     0.260 C 
BRANCH   4   5
HETATM    5  C2  UNL     1      19.982  48.854  75.228  1.00  0.00     0.259 C 
BRANCH   5   6
HETATM    6  N1  UNL     1      20.743  49.059  74.045  1.00  0.00    -0.077 N 
HETATM    7  C1  UNL     1      22.179  49.100  74.339  1.00  0.00     0.267 C 
ATOM      8  H12 UNL     1      20.439  49.894  73.543  1.00  0.00     0.276 HD
ATOM      9  H11 UNL     1      20.525  48.362  73.333  1.00  0.00     0.276 HD
ENDBRANCH   5   6
ENDBRANCH   4   5
ENDBRANCH   1   4
BRANCH   1  10
HETATM   10  C4  UNL     1      17.496  46.215  75.862  1.00  0.00     0.213 C 
HETATM   11  C5  UNL     1      18.524  45.279  76.385  1.00  0.00     0.062 C 
HETATM   12  C6  UNL     1      17.938  43.952  75.863  1.00  0.00     0.234 C 
HETATM   13  N3  UNL     1      17.785  44.304  74.451  1.00  0.00    -0.073 N 
HETATM   14  C7  UNL     1      17.153  45.602  74.522  1.00  0.00     0.265 C 
ATOM     15  H32 UNL     1      18.647  44.274  73.905  1.00  0.00     0.277 HD
ATOM     16  H31 UNL     1      17.288  43.614  73.888  1.00  0.00     0.277 HD
ENDBRANCH   1  10
TORSDOF 4
ENDMDL
MODEL 4
REMARK VINA RESULT: -3.949666319      0.933      1.147
REMARK  4 active torsions:
REMARK  status: ('A' for Active; 'I' for Inactive)
REMARK    1  A    between atoms: N1_2  and  C2_5 
REMARK    2  A    between atoms: C2_5  and  C3_6 
REMARK    3  A    between atoms: C3_6  and  N2_7 
REMARK    4  A    between atoms: N2_7  and  C4_10 
ROOT
HETATM    1  N2  UNL     1      18.379  47.560  75.634  1.00  0.00    -0.068 N 
ATOM      2  H21 UNL     1      17.629  48.132  75.246  1.00  0.00     0.277 HD
ATOM      3  H22 UNL     1      18.149  47.719  76.615  1.00  0.00     0.277 HD
ENDROOT
BRANCH   1   4
HETATM    4  C3  UNL     1      19.704  47.998  75.264  1.00  0.00     0.260 C 
BRANCH   4   5
HETATM    5  C2  UNL     1      19.953  49.448  75.279  1.00  0.00     0.259 C 
BRANCH   5   6
HETATM    6  N1  UNL     1      21.233  49.910  75.690  1.00  0.00    -0.077 N 
HETATM    7  C1  UNL     1      21.128  51.179  76.419  1.00  0.00     0.267 C 
ATOM      8  H12 UNL     1      21.877  49.983  74.902  1.00  0.00     0.276 HD
ATOM      9  H11 UNL     1      21.730  49.205  76.234  1.00  0.00     0.276 HD
ENDBRANCH   5   6
ENDBRANCH   4   5
ENDBRANCH   1   4
BRANCH   1  10
HETATM   10  C4  UNL     1      18.322  46.163  75.233  1.00  0.00     0.213 C 
HETATM   11  C5  UNL     1      17.050  45.703  74.621  1.00  0.00     0.062 C 
HETATM   12  C6  UNL     1      17.198  44.187  74.852  1.00  0.00     0.234 C 
HETATM   13  N3  UNL     1      17.467  44.195  76.291  1.00  0.00    -0.073 N 
HETATM   14  C7  UNL     1      18.471  45.228  76.413  1.00  0.00     0.265 C 
ATOM     15  H32 UNL     1      16.644  44.323  76.881  1.00  0.00     0.277 HD
ATOM     16  H31 UNL     1      17.729  43.291  76.683  1.00  0.00     0.277 HD
ENDBRANCH   1  10
TORSDOF 4
ENDMDL
MODEL 5
REMARK VINA RESULT: -3.812667502      1.346      5.439
REMARK  4 active torsions:
REMARK  status: ('A' for Active; 'I' for Inactive)
REMARK    1  A    between atoms: N1_2  and  C2_5 
REMARK    2  A    between atoms: C2_5  and  C3_6 
REMARK    3  A    between atoms: C3_6  and  N2_7 
REMARK    4  A    between atoms: N2_7  and  C4_10 
ROOT
HETATM    1  N2  UNL     1      19.092  48.808  75.645  1.00  0.00    -0.068 N 
ATOM      2  H21 UNL     1      19.158  49.105  76.619  1.00  0.00     0.277 HD
ATOM      3  H22 UNL     1      18.222  49.296  75.435  1.00  0.00     0.277 HD
ENDROOT
BRANCH   1   4
HETATM    4  C3  UNL     1      19.019  47.376  75.471  1.00  0.00     0.260 C 
BRANCH   4   5
HETATM    5  C2  UNL     1      17.699  46.752  75.653  1.00  0.00     0.259 C 
BRANCH   5   6
HETATM    6  N1  UNL     1      17.530  45.827  76.719  1.00  0.00    -0.077 N 
HETATM    7  C1  UNL     1      18.349  44.627  76.514  1.00  0.00     0.267 C 
ATOM      8  H12 UNL     1      16.547  45.591  76.859  1.00  0.00     0.276 HD
ATOM      9  H11 UNL     1      17.716  46.258  77.624  1.00  0.00     0.276 HD
ENDBRANCH   5   6
ENDBRANCH   4   5
ENDBRANCH   1   4
BRANCH   1  10
HETATM   10  C4  UNL     1      20.217  49.227  74.824  1.00  0.00     0.213 C 
HETATM   11  C5  UNL     1      21.568  48.860  75.320  1.00  0.00     0.062 C 
HETATM   12  C6  UNL     1      22.406  49.888  74.535  1.00  0.00     0.234 C 
HETATM   13  N3  UNL     1      21.692  51.109  74.912  1.00  0.00    -0.073 N 
HETATM   14  C7  UNL     1      20.310  50.732  74.712  1.00  0.00     0.265 C 
ATOM     15  H32 UNL     1      21.911  51.465  75.842  1.00  0.00     0.277 HD
ATOM     16  H31 UNL     1      21.984  51.948  74.413  1.00  0.00     0.277 HD
ENDBRANCH   1  10
TORSDOF 4
ENDMDL
