MODEL 1
REMARK VINA RESULT: -4.866973920      0.000      0.000
REMARK  4 active torsions:
REMARK  status: ('A' for Active; 'I' for Inactive)
REMARK    1  A    between atoms: N1_2  and  C2_5 
REMARK    2  A    between atoms: C2_5  and  C3_6 
REMARK    3  A    between atoms: C3_6  and  C4_7 
REMARK    4  A    between atoms: C4_7  and  C5_8 
ROOT
HETATM    1  C5  UNL     1      16.834  45.127  75.169  1.00  0.00     0.044 A 
HETATM    2  C6  UNL     1      17.620  44.203  74.512  1.00  0.00     0.135 A 
HETATM    3  N2  UNL     1      16.963  43.035  74.536  1.00  0.00    -0.296 N 
ATOM      4  H2  UNL     1      17.299  42.163  74.127  1.00  0.00     0.187 HD
HETATM    5  N3  UNL     1      15.819  43.185  75.166  1.00  0.00    -0.243 N 
ATOM      6  H3  UNL     1      15.120  42.460  75.328  1.00  0.00     0.208 HD
HETATM    7  N4  UNL     1      15.738  44.443  75.549  1.00  0.00    -0.289 N 
ATOM      8  H4  UNL     1      14.954  44.845  76.062  1.00  0.00     0.188 HD
ENDROOT
BRANCH   1   9
HETATM    9  C4  UNL     1      17.118  46.574  75.415  1.00  0.00     0.062 C 
BRANCH   9  10
HETATM   10  C3  UNL     1      18.617  46.750  75.524  1.00  0.00     0.033 C 
BRANCH  10  11
HETATM   11  C2  UNL     1      18.965  48.215  75.651  1.00  0.00     0.232 C 
BRANCH  11  12
HETATM   12  N1  UNL     1      20.206  48.497  74.937  1.00  0.00    -0.079 N 
HETATM   13  C1  UNL     1      20.433  49.906  74.787  1.00  0.00     0.266 C 
ATOM     14  H12 UNL     1      20.231  48.020  74.035  1.00  0.00     0.276 HD
ATOM     15  H11 UNL     1      21.001  48.039  75.383  1.00  0.00     0.276 HD
ENDBRANCH  11  12
ENDBRANCH  10  11
ENDBRANCH   9  10
ENDBRANCH   1   9
TORSDOF 4
ENDMDL
MODEL 2
REMARK VINA RESULT: -4.641139378      1.185      1.499
REMARK  4 active torsions:
REMARK  status: ('A' for Active; 'I' for Inactive)
REMARK    1  A    between atoms: N1_2  and  C2_5 
REMARK    2  A    between atoms: C2_5  and  C3_6 
REMARK    3  A    between atoms: C3_6  and  C4_7 
REMARK    4  A    between atoms: C4_7  and  C5_8 
ROOT
HETATM    1  C5  UNL     1      17.699  44.986  75.607  1.00  0.00     0.044 A 
HETATM    2  C6  UNL     1      16.683  44.644  74.739  1.00  0.00     0.135 A 
HETATM    3  N2  UNL     1      17.073  43.538  74.089  1.00  0.00    -0.296 N 
ATOM      4  H2  UNL     1      16.526  43.050  73.379  1.00  0.00     0.187 HD
HETATM    5  N3  UNL     1      18.267  43.179  74.506  1.00  0.00    -0.243 N 
ATOM      6  H3  UNL     1      18.801  42.373  74.181  1.00  0.00     0.208 HD
HETATM    7  N4  UNL     1      18.647  44.049  75.419  1.00  0.00    -0.289 N 
ATOM      8  H4  UNL     1      19.537  44.017  75.916  1.00  0.00     0.188 HD
ENDROOT
BRANCH   1   9
HETATM    9  C4  UNL     1      17.756  46.141  76.556  1.00  0.00     0.062 C 
BRANCH   9  10
HETATM   10  C3  UNL     1      17.932  47.408  75.747  1.00  0.00     0.033 C 
BRANCH  10  11
HETATM   11  C2  UNL     1      19.391  47.612  75.406  1.00  0.00     0.232 C 
BRANCH  11  12
HETATM   12  N1  UNL     1      19.664  49.032  75.213  1.00  0.00    -0.079 N 
HETATM   13  C1  UNL     1      20.796  49.251  74.359  1.00  0.00     0.266 C 
ATOM     14  H12 UNL     1      19.776  49.513  76.106  1.00  0.00     0.276 HD
ATOM     15  H11 UNL     1      18.840  49.523  74.868  1.00  0.00     0.276 HD
ENDBRANCH  11  12
ENDBRANCH  10  11
ENDBRANCH   9  10
ENDBRANCH   1   9
TORSDOF 4
ENDMDL
MODEL 3
REMARK VINA RESULT: -4.622023899      1.587      1.951
REMARK  4 active torsions:
REMARK  status: ('A' for Active; 'I' for Inactive)
REMARK    1  A    between atoms: N1_2  and  C2_5 
REMARK    2  A    between atoms: C2_5  and  C3_6 
REMARK    3  A    between atoms: C3_6  and  C4_7 
REMARK    4  A    between atoms: C4_7  and  C5_8 
ROOT
HETATM    1  C5  UNL     1      18.160  46.114  75.457  1.00  0.00     0.044 A 
HETATM    2  C6  UNL     1      17.266  45.531  74.583  1.00  0.00     0.135 A 
HETATM    3  N2  UNL     1      17.447  44.205  74.657  1.00  0.00    -0.296 N 
ATOM      4  H2  UNL     1      16.926  43.510  74.122  1.00  0.00     0.187 HD
HETATM    5  N3  UNL     1      18.398  43.937  75.525  1.00  0.00    -0.243 N 
ATOM      6  H3  UNL     1      18.739  43.010  75.778  1.00  0.00     0.208 HD
HETATM    7  N4  UNL     1      18.830  45.084  76.008  1.00  0.00    -0.289 N 
ATOM      8  H4  UNL     1      19.569  45.180  76.703  1.00  0.00     0.188 HD
ENDROOT
BRANCH   1   9
HETATM    9  C4  UNL     1      18.359  47.568  75.744  1.00  0.00     0.062 C 
BRANCH   9  10
HETATM   10  C3  UNL     1      19.734  47.963  75.249  1.00  0.00     0.033 C 
BRANCH  10  11
HETATM   11  C2  UNL     1      19.879  49.468  75.254  1.00  0.00     0.232 C 
BRANCH  11  12
HETATM   12  N1  UNL     1      20.718  49.891  74.138  1.00  0.00    -0.079 N 
HETATM   13  C1  UNL     1      21.935  49.134  74.063  1.00  0.00     0.266 C 
ATOM     14  H12 UNL     1      20.908  50.893  74.177  1.00  0.00     0.276 HD
ATOM     15  H11 UNL     1      20.207  49.858  73.257  1.00  0.00     0.276 HD
ENDBRANCH  11  12
ENDBRANCH  10  11
ENDBRANCH   9  10
ENDBRANCH   1   9
TORSDOF 4
ENDMDL
MODEL 4
REMARK VINA RESULT: -4.615514529      1.071      1.217
REMARK  4 active torsions:
REMARK  status: ('A' for Active; 'I' for Inactive)
REMARK    1  A    between atoms: N1_2  and  C2_5 
REMARK    2  A    between atoms: C2_5  and  C3_6 
REMARK    3  A    between atoms: C3_6  and  C4_7 
REMARK    4  A    between atoms: C4_7  and  C5_8 
ROOT
HETATM    1  C5  UNL     1      17.685  44.161  75.346  1.00  0.00     0.044 A 
HETATM    2  C6  UNL     1      17.997  43.341  74.282  1.00  0.00     0.135 A 
HETATM    3  N2  UNL     1      16.923  42.574  74.043  1.00  0.00    -0.296 N 
ATOM      4  H2  UNL     1      16.858  41.866  73.312  1.00  0.00     0.187 HD
HETATM    5  N3  UNL     1      15.969  42.875  74.896  1.00  0.00    -0.243 N 
ATOM      6  H3  UNL     1      15.044  42.448  74.940  1.00  0.00     0.208 HD
HETATM    7  N4  UNL     1      16.424  43.830  75.682  1.00  0.00    -0.289 N 
ATOM      8  H4  UNL     1      15.895  44.259  76.441  1.00  0.00     0.188 HD
ENDROOT
BRANCH   1   9
HETATM    9  C4  UNL     1      18.543  45.197  75.999  1.00  0.00     0.062 C 
BRANCH   9  10
HETATM   10  C3  UNL     1      17.648  46.324  76.469  1.00  0.00     0.033 C 
BRANCH  10  11
HETATM   11  C2  UNL     1      17.987  47.602  75.737  1.00  0.00     0.232 C 
BRANCH  11  12
HETATM   12  N1  UNL     1      19.396  47.600  75.359  1.00  0.00    -0.079 N 
HETATM   13  C1  UNL     1      19.924  48.929  75.241  1.00  0.00     0.266 C 
ATOM     14  H12 UNL     1      19.550  47.064  74.504  1.00  0.00     0.276 HD
ATOM     15  H11 UNL     1      19.952  47.038  76.003  1.00  0.00     0.276 HD
ENDBRANCH  11  12
ENDBRANCH  10  11
ENDBRANCH   9  10
ENDBRANCH   1   9
TORSDOF 4
ENDMDL
MODEL 5
REMARK VINA RESULT: -4.496125058      1.557      1.906
REMARK  4 active torsions:
REMARK  status: ('A' for Active; 'I' for Inactive)
REMARK    1  A    between atoms: N1_2  and  C2_5 
REMARK    2  A    between atoms: C2_5  and  C3_6 
REMARK    3  A    between atoms: C3_6  and  C4_7 
REMARK    4  A    between atoms: C4_7  and  C5_8 
ROOT
HETATM    1  C5  UNL     1      18.151  46.177  75.480  1.00  0.00     0.044 A 
HETATM    2  C6  UNL     1      18.617  45.139  76.259  1.00  0.00     0.135 A 
HETATM    3  N2  UNL     1      18.207  43.998  75.687  1.00  0.00    -0.296 N 
ATOM      4  H2  UNL     1      18.400  43.061  76.040  1.00  0.00     0.187 HD
HETATM    5  N3  UNL     1      17.518  44.273  74.601  1.00  0.00    -0.243 N 
ATOM      6  H3  UNL     1      17.090  43.594  73.971  1.00  0.00     0.208 HD
HETATM    7  N4  UNL     1      17.482  45.584  74.474  1.00  0.00    -0.289 N 
ATOM      8  H4  UNL     1      17.013  46.081  73.717  1.00  0.00     0.188 HD
ENDROOT
BRANCH   1   9
HETATM    9  C4  UNL     1      18.337  47.646  75.689  1.00  0.00     0.062 C 
BRANCH   9  10
HETATM   10  C3  UNL     1      19.747  48.007  75.274  1.00  0.00     0.033 C 
BRANCH  10  11
HETATM   11  C2  UNL     1      19.906  49.510  75.211  1.00  0.00     0.232 C 
BRANCH  11  12
HETATM   12  N1  UNL     1      20.750  49.874  74.079  1.00  0.00    -0.079 N 
HETATM   13  C1  UNL     1      22.007  49.181  74.099  1.00  0.00     0.266 C 
ATOM     14  H12 UNL     1      20.886  50.885  74.028  1.00  0.00     0.276 HD
ATOM     15  H11 UNL     1      20.264  49.733  73.194  1.00  0.00     0.276 HD
ENDBRANCH  11  12
ENDBRANCH  10  11
ENDBRANCH   9  10
ENDBRANCH   1   9
TORSDOF 4
ENDMDL
