MODEL 1
REMARK VINA RESULT: -5.302741167      0.000      0.000
REMARK  4 active torsions:
REMARK  status: ('A' for Active; 'I' for Inactive)
REMARK    1  A    between atoms: N1_1  and  C1_4 
REMARK    2  A    between atoms: C4_11  and  C5_12 
REMARK    3  A    between atoms: C5_12  and  N4_13 
REMARK    4  A    between atoms: N4_13  and  C6_15 
ROOT
HETATM    1  C1  UNL     1      16.106  44.585  75.442  1.00  0.00     0.108 A 
HETATM    2  N2  UNL     1      15.880  45.733  76.091  1.00  0.00    -0.338 N 
ATOM      3  H2  UNL     1      15.015  45.860  76.616  1.00  0.00     0.168 HD
HETATM    4  C2  UNL     1      16.790  46.719  76.052  1.00  0.00     0.181 A 
HETATM    5  N3  UNL     1      17.928  46.562  75.365  1.00  0.00    -0.361 N 
ATOM      6  H3  UNL     1      18.614  47.316  75.339  1.00  0.00     0.166 HD
HETATM    7  C3  UNL     1      18.169  45.411  74.708  1.00  0.00     0.101 A 
HETATM    8  C4  UNL     1      17.288  44.378  74.710  1.00  0.00     0.018 A 
ENDROOT
BRANCH   8   9
HETATM    9  C5  UNL     1      17.413  43.091  74.027  1.00  0.00     0.165 C 
BRANCH   9  10
HETATM   10  N4  UNL     1      18.718  42.534  73.941  1.00  0.00    -0.364 N 
ATOM     11  H4  UNL     1      19.139  42.165  74.794  1.00  0.00     0.162 HD
BRANCH  10  12
HETATM   12  C6  UNL     1      19.471  42.460  72.739  1.00  0.00     0.348 C 
HETATM   13  O1  UNL     1      20.727  42.414  72.831  1.00  0.00    -0.284 OA
ENDBRANCH  10  12
ENDBRANCH   9  10
ENDBRANCH   8   9
BRANCH   1  14
HETATM   14  N1  UNL     1      15.218  43.662  75.500  1.00  0.00    -0.385 N 
ATOM     15  H12 UNL     1      15.218  43.002  76.278  1.00  0.00     0.157 HD
ATOM     16  H11 UNL     1      14.520  43.609  74.758  1.00  0.00     0.157 HD
ENDBRANCH   1  14
TORSDOF 4
ENDMDL
MODEL 2
REMARK VINA RESULT: -4.781246255      1.472      1.501
REMARK  4 active torsions:
REMARK  status: ('A' for Active; 'I' for Inactive)
REMARK    1  A    between atoms: N1_1  and  C1_4 
REMARK    2  A    between atoms: C4_11  and  C5_12 
REMARK    3  A    between atoms: C5_12  and  N4_13 
REMARK    4  A    between atoms: N4_13  and  C6_15 
ROOT
HETATM    1  C1  UNL     1      16.426  44.999  75.581  1.00  0.00     0.108 A 
HETATM    2  N2  UNL     1      15.795  46.164  75.766  1.00  0.00    -0.338 N 
ATOM      3  H2  UNL     1      14.775  46.197  75.768  1.00  0.00     0.168 HD
HETATM    4  C2  UNL     1      16.500  47.290  75.951  1.00  0.00     0.181 A 
HETATM    5  N3  UNL     1      17.838  47.258  75.950  1.00  0.00    -0.361 N 
ATOM      6  H3  UNL     1      18.368  48.118  76.090  1.00  0.00     0.166 HD
HETATM    7  C3  UNL     1      18.487  46.091  75.765  1.00  0.00     0.101 A 
HETATM    8  C4  UNL     1      17.829  44.919  75.574  1.00  0.00     0.018 A 
ENDROOT
BRANCH   8   9
HETATM    9  C5  UNL     1      18.404  43.595  75.342  1.00  0.00     0.165 C 
BRANCH   9  10
HETATM   10  N4  UNL     1      18.796  43.290  74.010  1.00  0.00    -0.364 N 
ATOM     11  H4  UNL     1      19.525  43.861  73.582  1.00  0.00     0.162 HD
BRANCH  10  12
HETATM   12  C6  UNL     1      18.233  42.238  73.238  1.00  0.00     0.348 C 
HETATM   13  O1  UNL     1      17.065  41.859  73.520  1.00  0.00    -0.284 OA
ENDBRANCH  10  12
ENDBRANCH   9  10
ENDBRANCH   8   9
BRANCH   1  14
HETATM   14  N1  UNL     1      15.722  43.940  75.409  1.00  0.00    -0.385 N 
ATOM     15  H12 UNL     1      14.731  43.943  75.645  1.00  0.00     0.157 HD
ATOM     16  H11 UNL     1      16.177  43.109  75.032  1.00  0.00     0.157 HD
ENDBRANCH   1  14
TORSDOF 4
ENDMDL
MODEL 3
REMARK VINA RESULT: -4.570030580      5.084      6.724
REMARK  4 active torsions:
REMARK  status: ('A' for Active; 'I' for Inactive)
REMARK    1  A    between atoms: N1_1  and  C1_4 
REMARK    2  A    between atoms: C4_11  and  C5_12 
REMARK    3  A    between atoms: C5_12  and  N4_13 
REMARK    4  A    between atoms: N4_13  and  C6_15 
ROOT
HETATM    1  C1  UNL     1      21.728  50.003  74.854  1.00  0.00     0.108 A 
HETATM    2  N2  UNL     1      22.160  51.269  74.912  1.00  0.00    -0.338 N 
ATOM      3  H2  UNL     1      23.128  51.488  74.675  1.00  0.00     0.168 HD
HETATM    4  C2  UNL     1      21.323  52.250  75.282  1.00  0.00     0.181 A 
HETATM    5  N3  UNL     1      20.051  51.972  75.595  1.00  0.00    -0.361 N 
ATOM      6  H3  UNL     1      19.421  52.723  75.875  1.00  0.00     0.166 HD
HETATM    7  C3  UNL     1      19.603  50.703  75.540  1.00  0.00     0.101 A 
HETATM    8  C4  UNL     1      20.401  49.667  75.174  1.00  0.00     0.018 A 
ENDROOT
BRANCH   8   9
HETATM    9  C5  UNL     1      20.052  48.250  75.093  1.00  0.00     0.165 C 
BRANCH   9  10
HETATM   10  N4  UNL     1      18.739  47.888  75.503  1.00  0.00    -0.364 N 
ATOM     11  H4  UNL     1      18.051  48.632  75.620  1.00  0.00     0.162 HD
BRANCH  10  12
HETATM   12  C6  UNL     1      18.329  46.552  75.760  1.00  0.00     0.348 C 
HETATM   13  O1  UNL     1      18.712  46.013  76.833  1.00  0.00    -0.284 OA
ENDBRANCH  10  12
ENDBRANCH   9  10
ENDBRANCH   8   9
BRANCH   1  14
HETATM   14  N1  UNL     1      22.553  49.089  74.497  1.00  0.00    -0.385 N 
ATOM     15  H12 UNL     1      23.290  48.790  75.134  1.00  0.00     0.157 HD
ATOM     16  H11 UNL     1      22.450  48.674  73.571  1.00  0.00     0.157 HD
ENDBRANCH   1  14
TORSDOF 4
ENDMDL
MODEL 4
REMARK VINA RESULT: -4.496401351      2.159      3.867
REMARK  4 active torsions:
REMARK  status: ('A' for Active; 'I' for Inactive)
REMARK    1  A    between atoms: N1_1  and  C1_4 
REMARK    2  A    between atoms: C4_11  and  C5_12 
REMARK    3  A    between atoms: C5_12  and  N4_13 
REMARK    4  A    between atoms: N4_13  and  C6_15 
ROOT
HETATM    1  C1  UNL     1      16.159  43.518  75.029  1.00  0.00     0.108 A 
HETATM    2  N2  UNL     1      16.452  42.339  74.465  1.00  0.00    -0.338 N 
ATOM      3  H2  UNL     1      15.762  41.588  74.467  1.00  0.00     0.168 HD
HETATM    4  C2  UNL     1      17.651  42.145  73.896  1.00  0.00     0.181 A 
HETATM    5  N3  UNL     1      18.563  43.125  73.888  1.00  0.00    -0.361 N 
ATOM      6  H3  UNL     1      19.473  42.969  73.454  1.00  0.00     0.166 HD
HETATM    7  C3  UNL     1      18.281  44.316  74.452  1.00  0.00     0.101 A 
HETATM    8  C4  UNL     1      17.086  44.573  75.042  1.00  0.00     0.018 A 
ENDROOT
BRANCH   8   9
HETATM    9  C5  UNL     1      16.660  45.805  75.705  1.00  0.00     0.165 C 
BRANCH   9  10
HETATM   10  N4  UNL     1      17.676  46.586  76.321  1.00  0.00    -0.364 N 
ATOM     11  H4  UNL     1      17.882  46.414  77.305  1.00  0.00     0.162 HD
BRANCH  10  12
HETATM   12  C6  UNL     1      18.419  47.593  75.649  1.00  0.00     0.348 C 
HETATM   13  O1  UNL     1      19.673  47.588  75.781  1.00  0.00    -0.284 OA
ENDBRANCH  10  12
ENDBRANCH   9  10
ENDBRANCH   8   9
BRANCH   1  14
HETATM   14  N1  UNL     1      15.003  43.672  75.563  1.00  0.00    -0.385 N 
ATOM     15  H12 UNL     1      14.920  43.787  76.573  1.00  0.00     0.157 HD
ATOM     16  H11 UNL     1      14.183  43.678  74.958  1.00  0.00     0.157 HD
ENDBRANCH   1  14
TORSDOF 4
ENDMDL
MODEL 5
REMARK VINA RESULT: -4.357895623      5.417      7.008
REMARK  4 active torsions:
REMARK  status: ('A' for Active; 'I' for Inactive)
REMARK    1  A    between atoms: N1_1  and  C1_4 
REMARK    2  A    between atoms: C4_11  and  C5_12 
REMARK    3  A    between atoms: C5_12  and  N4_13 
REMARK    4  A    between atoms: N4_13  and  C6_15 
ROOT
HETATM    1  C1  UNL     1      21.337  50.810  75.927  1.00  0.00     0.108 A 
HETATM    2  N2  UNL     1      22.554  51.351  76.067  1.00  0.00    -0.338 N 
ATOM      3  H2  UNL     1      22.655  52.273  76.492  1.00  0.00     0.168 HD
HETATM    4  C2  UNL     1      23.639  50.684  75.648  1.00  0.00     0.181 A 
HETATM    5  N3  UNL     1      23.516  49.474  75.089  1.00  0.00    -0.361 N 
ATOM      6  H3  UNL     1      24.346  48.973  74.773  1.00  0.00     0.166 HD
HETATM    7  C3  UNL     1      22.297  48.917  74.943  1.00  0.00     0.101 A 
HETATM    8  C4  UNL     1      21.162  49.543  75.346  1.00  0.00     0.018 A 
ENDROOT
BRANCH   8   9
HETATM    9  C5  UNL     1      19.785  49.066  75.229  1.00  0.00     0.165 C 
BRANCH   9  10
HETATM   10  N4  UNL     1      19.591  47.658  75.233  1.00  0.00    -0.364 N 
ATOM     11  H4  UNL     1      20.314  47.073  74.814  1.00  0.00     0.162 HD
BRANCH  10  12
HETATM   12  C6  UNL     1      18.450  47.016  75.785  1.00  0.00     0.348 C 
HETATM   13  O1  UNL     1      18.635  46.167  76.699  1.00  0.00    -0.284 OA
ENDBRANCH  10  12
ENDBRANCH   9  10
ENDBRANCH   8   9
BRANCH   1  14
HETATM   14  N1  UNL     1      20.320  51.474  76.338  1.00  0.00    -0.385 N 
ATOM     15  H12 UNL     1      19.636  51.031  76.952  1.00  0.00     0.157 HD
ATOM     16  H11 UNL     1      20.216  52.443  76.039  1.00  0.00     0.157 HD
ENDBRANCH   1  14
TORSDOF 4
ENDMDL
