MODEL 1
REMARK VINA RESULT: -4.284860010      0.000      0.000
REMARK  4 active torsions:
REMARK  status: ('A' for Active; 'I' for Inactive)
REMARK    1  A    between atoms: C2_2  and  C3_3 
REMARK    2  A    between atoms: C3_3  and  N1_4 
REMARK    3  A    between atoms: N1_4  and  C4_7 
REMARK    4  A    between atoms: C4_7  and  C5_8 
ROOT
HETATM    1  C5  UNL     1      17.525  45.049  75.152  1.00  0.00     0.408 C 
HETATM    2  N2  UNL     1      16.305  44.284  75.313  1.00  0.00    -0.043 N 
ATOM      3  H21 UNL     1      15.471  44.794  75.022  1.00  0.00     0.279 HD
ATOM      4  H22 UNL     1      16.042  44.150  76.290  1.00  0.00     0.279 HD
HETATM    5  C6  UNL     1      16.484  43.053  74.609  1.00  0.00     0.262 C 
HETATM    6  C7  UNL     1      17.926  43.087  74.166  1.00  0.00     0.262 C 
HETATM    7  N3  UNL     1      18.512  43.983  75.143  1.00  0.00    -0.043 N 
ATOM      8  H31 UNL     1      18.723  43.569  76.051  1.00  0.00     0.279 HD
ATOM      9  H32 UNL     1      19.471  44.273  74.956  1.00  0.00     0.279 HD
ENDROOT
BRANCH   1  10
HETATM   10  C4  UNL     1      17.736  46.048  76.235  1.00  0.00     0.294 C 
BRANCH  10  11
HETATM   11  N1  UNL     1      17.967  47.374  75.736  1.00  0.00    -0.071 N 
ATOM     12  H12 UNL     1      17.638  48.076  76.399  1.00  0.00     0.277 HD
ATOM     13  H11 UNL     1      17.347  47.583  74.953  1.00  0.00     0.277 HD
BRANCH  11  14
HETATM   14  C3  UNL     1      19.331  47.602  75.384  1.00  0.00     0.232 C 
BRANCH  14  15
HETATM   15  C2  UNL     1      19.738  49.040  75.311  1.00  0.00     0.023 C 
HETATM   16  C1  UNL     1      20.830  49.134  74.236  1.00  0.00     0.007 C 
ENDBRANCH  14  15
ENDBRANCH  11  14
ENDBRANCH  10  11
ENDBRANCH   1  10
TORSDOF 4
ENDMDL
MODEL 2
REMARK VINA RESULT: -4.279692816      0.966      1.130
REMARK  4 active torsions:
REMARK  status: ('A' for Active; 'I' for Inactive)
REMARK    1  A    between atoms: C2_2  and  C3_3 
REMARK    2  A    between atoms: C3_3  and  N1_4 
REMARK    3  A    between atoms: N1_4  and  C4_7 
REMARK    4  A    between atoms: C4_7  and  C5_8 
ROOT
HETATM    1  C5  UNL     1      17.898  45.572  75.152  1.00  0.00     0.408 C 
HETATM    2  N2  UNL     1      16.588  45.212  75.654  1.00  0.00    -0.043 N 
ATOM      3  H21 UNL     1      15.872  45.905  75.435  1.00  0.00     0.279 HD
ATOM      4  H22 UNL     1      16.519  45.269  76.670  1.00  0.00     0.279 HD
HETATM    5  C6  UNL     1      16.284  43.912  75.144  1.00  0.00     0.262 C 
HETATM    6  C7  UNL     1      17.553  43.481  74.451  1.00  0.00     0.262 C 
HETATM    7  N3  UNL     1      18.549  44.274  75.143  1.00  0.00    -0.043 N 
ATOM      8  H31 UNL     1      18.839  43.920  76.056  1.00  0.00     0.279 HD
ATOM      9  H32 UNL     1      19.486  44.253  74.742  1.00  0.00     0.279 HD
ENDROOT
BRANCH   1  10
HETATM   10  C4  UNL     1      18.592  46.582  75.997  1.00  0.00     0.294 C 
BRANCH  10  11
HETATM   11  N1  UNL     1      18.775  47.840  75.330  1.00  0.00    -0.071 N 
ATOM     12  H12 UNL     1      18.068  48.515  75.622  1.00  0.00     0.277 HD
ATOM     13  H11 UNL     1      18.536  47.768  74.341  1.00  0.00     0.277 HD
BRANCH  11  14
HETATM   14  C3  UNL     1      20.089  48.369  75.501  1.00  0.00     0.232 C 
BRANCH  14  15
HETATM   15  C2  UNL     1      20.387  49.601  74.705  1.00  0.00     0.023 C 
HETATM   16  C1  UNL     1      19.666  50.762  75.405  1.00  0.00     0.007 C 
ENDBRANCH  14  15
ENDBRANCH  11  14
ENDBRANCH  10  11
ENDBRANCH   1  10
TORSDOF 4
ENDMDL
MODEL 3
REMARK VINA RESULT: -4.191126591      1.390      1.822
REMARK  4 active torsions:
REMARK  status: ('A' for Active; 'I' for Inactive)
REMARK    1  A    between atoms: C2_2  and  C3_3 
REMARK    2  A    between atoms: C3_3  and  N1_4 
REMARK    3  A    between atoms: N1_4  and  C4_7 
REMARK    4  A    between atoms: C4_7  and  C5_8 
ROOT
HETATM    1  C5  UNL     1      18.410  46.172  75.259  1.00  0.00     0.408 C 
HETATM    2  N2  UNL     1      16.962  46.136  75.275  1.00  0.00    -0.043 N 
ATOM      3  H21 UNL     1      16.539  46.759  74.586  1.00  0.00     0.279 HD
ATOM      4  H22 UNL     1      16.559  46.568  76.106  1.00  0.00     0.279 HD
HETATM    5  C6  UNL     1      16.573  44.771  75.109  1.00  0.00     0.262 C 
HETATM    6  C7  UNL     1      17.874  44.008  75.154  1.00  0.00     0.262 C 
HETATM    7  N3  UNL     1      18.718  44.911  75.911  1.00  0.00    -0.043 N 
ATOM      8  H31 UNL     1      18.586  44.894  76.922  1.00  0.00     0.279 HD
ATOM      9  H32 UNL     1      19.706  44.664  75.948  1.00  0.00     0.279 HD
ENDROOT
BRANCH   1  10
HETATM   10  C4  UNL     1      18.973  47.359  75.960  1.00  0.00     0.294 C 
BRANCH  10  11
HETATM   11  N1  UNL     1      19.484  48.352  75.058  1.00  0.00    -0.071 N 
ATOM     12  H12 UNL     1      18.821  49.119  74.945  1.00  0.00     0.277 HD
ATOM     13  H11 UNL     1      19.497  48.003  74.099  1.00  0.00     0.277 HD
BRANCH  11  14
HETATM   14  C3  UNL     1      20.769  48.839  75.443  1.00  0.00     0.232 C 
BRANCH  14  15
HETATM   15  C2  UNL     1      21.646  49.280  74.314  1.00  0.00     0.023 C 
HETATM   16  C1  UNL     1      23.096  49.055  74.770  1.00  0.00     0.007 C 
ENDBRANCH  14  15
ENDBRANCH  11  14
ENDBRANCH  10  11
ENDBRANCH   1  10
TORSDOF 4
ENDMDL
MODEL 4
REMARK VINA RESULT: -4.081305964      1.338      1.952
REMARK  4 active torsions:
REMARK  status: ('A' for Active; 'I' for Inactive)
REMARK    1  A    between atoms: C2_2  and  C3_3 
REMARK    2  A    between atoms: C3_3  and  N1_4 
REMARK    3  A    between atoms: N1_4  and  C4_7 
REMARK    4  A    between atoms: C4_7  and  C5_8 
ROOT
HETATM    1  C5  UNL     1      17.564  46.355  75.895  1.00  0.00     0.408 C 
HETATM    2  N2  UNL     1      18.537  45.340  76.240  1.00  0.00    -0.043 N 
ATOM      3  H21 UNL     1      18.780  45.338  77.231  1.00  0.00     0.279 HD
ATOM      4  H22 UNL     1      19.469  45.538  75.877  1.00  0.00     0.279 HD
HETATM    5  C6  UNL     1      18.015  44.087  75.790  1.00  0.00     0.262 C 
HETATM    6  C7  UNL     1      16.765  44.459  75.031  1.00  0.00     0.262 C 
HETATM    7  N3  UNL     1      17.053  45.825  74.643  1.00  0.00    -0.043 N 
ATOM      8  H31 UNL     1      17.666  45.935  73.835  1.00  0.00     0.279 HD
ATOM      9  H32 UNL     1      16.275  46.339  74.231  1.00  0.00     0.279 HD
ENDROOT
BRANCH   1  10
HETATM   10  C4  UNL     1      18.157  47.715  75.769  1.00  0.00     0.294 C 
BRANCH  10  11
HETATM   11  N1  UNL     1      19.522  47.693  75.328  1.00  0.00    -0.071 N 
ATOM     12  H12 UNL     1      19.615  47.181  74.451  1.00  0.00     0.277 HD
ATOM     13  H11 UNL     1      20.091  47.095  75.928  1.00  0.00     0.277 HD
BRANCH  11  14
HETATM   14  C3  UNL     1      20.090  48.998  75.221  1.00  0.00     0.232 C 
BRANCH  14  15
HETATM   15  C2  UNL     1      21.006  49.200  74.056  1.00  0.00     0.023 C 
HETATM   16  C1  UNL     1      22.438  49.126  74.604  1.00  0.00     0.007 C 
ENDBRANCH  14  15
ENDBRANCH  11  14
ENDBRANCH  10  11
ENDBRANCH   1  10
TORSDOF 4
ENDMDL
MODEL 5
REMARK VINA RESULT: -4.054317058      0.723      1.421
REMARK  4 active torsions:
REMARK  status: ('A' for Active; 'I' for Inactive)
REMARK    1  A    between atoms: C2_2  and  C3_3 
REMARK    2  A    between atoms: C3_3  and  N1_4 
REMARK    3  A    between atoms: N1_4  and  C4_7 
REMARK    4  A    between atoms: C4_7  and  C5_8 
ROOT
HETATM    1  C5  UNL     1      17.814  44.611  75.970  1.00  0.00     0.408 C 
HETATM    2  N2  UNL     1      18.523  44.111  74.811  1.00  0.00    -0.043 N 
ATOM      3  H21 UNL     1      19.455  43.759  75.032  1.00  0.00     0.279 HD
ATOM      4  H22 UNL     1      18.812  44.849  74.169  1.00  0.00     0.279 HD
HETATM    5  C6  UNL     1      17.685  43.130  74.196  1.00  0.00     0.262 C 
HETATM    6  C7  UNL     1      16.395  43.206  74.973  1.00  0.00     0.262 C 
HETATM    7  N3  UNL     1      16.443  44.559  75.491  1.00  0.00    -0.043 N 
ATOM      8  H31 UNL     1      16.178  45.293  74.834  1.00  0.00     0.279 HD
ATOM      9  H32 UNL     1      15.727  44.795  76.177  1.00  0.00     0.279 HD
ENDROOT
BRANCH   1  10
HETATM   10  C4  UNL     1      18.250  45.974  76.380  1.00  0.00     0.294 C 
BRANCH  10  11
HETATM   11  N1  UNL     1      18.665  46.787  75.273  1.00  0.00    -0.071 N 
ATOM     12  H12 UNL     1      17.959  46.792  74.538  1.00  0.00     0.277 HD
ATOM     13  H11 UNL     1      19.431  46.347  74.763  1.00  0.00     0.277 HD
BRANCH  11  14
HETATM   14  C3  UNL     1      19.007  48.117  75.662  1.00  0.00     0.232 C 
BRANCH  14  15
HETATM   15  C2  UNL     1      20.220  48.683  74.994  1.00  0.00     0.023 C 
HETATM   16  C1  UNL     1      20.112  50.211  75.105  1.00  0.00     0.007 C 
ENDBRANCH  14  15
ENDBRANCH  11  14
ENDBRANCH  10  11
ENDBRANCH   1  10
TORSDOF 4
ENDMDL
