MODEL 1
REMARK VINA RESULT: -8.560300416      0.000      0.000
REMARK  8 active torsions:
REMARK  status: ('A' for Active; 'I' for Inactive)
REMARK    1  A    between atoms: C2_2  and  C5_5 
REMARK    2  A    between atoms: C7_7  and  N1_8 
REMARK    3  A    between atoms: N1_8  and  C8_10 
REMARK    4  A    between atoms: C8_10  and  C10_15 
REMARK    5  A    between atoms: C15_21  and  S1_22 
REMARK    6  A    between atoms: S1_22  and  N4_25 
REMARK    7  A    between atoms: N4_25  and  C16_27 
REMARK    8  A    between atoms: N5_31  and  C20_32 
ROOT
HETATM    1  C8  UNL     1      -1.966  11.384  24.566  1.00  0.00     0.116 C 
HETATM    2  N2  UNL     1      -1.594  11.735  23.409  1.00  0.00    -0.281 N 
ATOM      3  H2  UNL     1      -1.806  12.709  23.192  1.00  0.00     0.179 HD
HETATM    4  C9  UNL     1      -0.968  11.079  22.394  1.00  0.00     0.183 C 
HETATM    5  N3  UNL     1      -0.443  10.547  21.517  1.00  0.00    -0.172 NA
ENDROOT
BRANCH   1   6
HETATM    6  N1  UNL     1      -2.623  12.411  25.379  1.00  0.00    -0.372 N 
ATOM      7  H1  UNL     1      -2.376  12.563  26.357  1.00  0.00     0.161 HD
BRANCH   6   8
HETATM    8  C7  UNL     1      -3.622  13.182  24.734  1.00  0.00     0.084 C 
HETATM    9  C6  UNL     1      -4.523  13.931  25.689  1.00  0.00     0.032 C 
HETATM   10  C5  UNL     1      -5.784  14.245  24.867  1.00  0.00     0.015 C 
HETATM   11  C15 UNL     1      -5.677  13.427  23.663  1.00  0.00     0.136 C 
HETATM   12  C14 UNL     1      -4.689  12.299  24.063  1.00  0.00     0.047 C 
BRANCH  10  13
HETATM   13  C2  UNL     1      -5.876  15.741  24.645  1.00  0.00    -0.046 C 
HETATM   14  C1  UNL     1      -5.395  16.183  23.285  1.00  0.00     0.015 C 
HETATM   15  C3  UNL     1      -7.315  16.225  24.769  1.00  0.00     0.015 C 
HETATM   16  C4  UNL     1      -5.084  16.501  25.686  1.00  0.00     0.015 C 
ENDBRANCH  10  13
BRANCH  11  17
HETATM   17  S1  UNL     1      -7.016  12.669  22.894  1.00  0.00     0.231 S 
HETATM   18  O2  UNL     1      -7.448  13.649  21.757  1.00  0.00    -0.206 OA
HETATM   19  O3  UNL     1      -8.269  12.656  23.769  1.00  0.00    -0.206 OA
BRANCH  17  20
HETATM   20  N4  UNL     1      -6.893  11.175  22.172  1.00  0.00    -0.309 N 
ATOM     21  H4  UNL     1      -7.066  10.321  22.702  1.00  0.00     0.172 HD
BRANCH  20  22
HETATM   22  C16 UNL     1      -6.543  11.122  20.802  1.00  0.00     0.133 C 
HETATM   23  C17 UNL     1      -7.530  10.276  20.070  1.00  0.00    -0.002 C 
HETATM   24  C18 UNL     1      -7.407   8.962  20.020  1.00  0.00    -0.009 C 
HETATM   25  C19 UNL     1      -6.221   8.395  20.740  1.00  0.00     0.149 C 
HETATM   26  N5  UNL     1      -5.070   9.161  20.397  1.00  0.00    -0.354 N 
HETATM   27  C21 UNL     1      -5.128  10.559  20.604  1.00  0.00     0.152 C 
BRANCH  26  28
HETATM   28  C20 UNL     1      -4.373   8.726  19.228  1.00  0.00     0.456 C 
HETATM   29  F1  UNL     1      -4.654   7.437  18.848  1.00  0.00    -0.191 F 
HETATM   30  F2  UNL     1      -4.789   9.552  18.176  1.00  0.00    -0.191 F 
ENDBRANCH  26  28
ENDBRANCH  20  22
ENDBRANCH  17  20
ENDBRANCH  11  17
ENDBRANCH   6   8
ENDBRANCH   1   6
BRANCH   1  31
HETATM   31  C10 UNL     1      -1.820  10.073  25.191  1.00  0.00     0.189 C 
HETATM   32  C11 UNL     1      -0.422   9.633  25.505  1.00  0.00     0.042 C 
HETATM   33  C12 UNL     1      -0.741   8.379  26.353  1.00  0.00     0.029 C 
HETATM   34  C13 UNL     1      -2.010   8.835  27.034  1.00  0.00     0.168 C 
HETATM   35  O1  UNL     1      -2.409  10.027  26.455  1.00  0.00    -0.378 OA
ENDBRANCH   1  31
TORSDOF 8
ENDMDL
MODEL 2
REMARK VINA RESULT: -8.450842187      0.912      1.091
REMARK  8 active torsions:
REMARK  status: ('A' for Active; 'I' for Inactive)
REMARK    1  A    between atoms: C2_2  and  C5_5 
REMARK    2  A    between atoms: C7_7  and  N1_8 
REMARK    3  A    between atoms: N1_8  and  C8_10 
REMARK    4  A    between atoms: C8_10  and  C10_15 
REMARK    5  A    between atoms: C15_21  and  S1_22 
REMARK    6  A    between atoms: S1_22  and  N4_25 
REMARK    7  A    between atoms: N4_25  and  C16_27 
REMARK    8  A    between atoms: N5_31  and  C20_32 
ROOT
HETATM    1  C8  UNL     1      -1.865  11.199  24.701  1.00  0.00     0.116 C 
HETATM    2  N2  UNL     1      -1.521  11.550  23.536  1.00  0.00    -0.281 N 
ATOM      3  H2  UNL     1      -1.715  12.531  23.334  1.00  0.00     0.179 HD
HETATM    4  C9  UNL     1      -0.944  10.887  22.496  1.00  0.00     0.183 C 
HETATM    5  N3  UNL     1      -0.461  10.350  21.599  1.00  0.00    -0.172 NA
ENDROOT
BRANCH   1   6
HETATM    6  N1  UNL     1      -2.469  12.235  25.543  1.00  0.00    -0.372 N 
ATOM      7  H1  UNL     1      -2.245  12.322  26.535  1.00  0.00     0.161 HD
BRANCH   6   8
HETATM    8  C7  UNL     1      -3.384  13.111  24.906  1.00  0.00     0.084 C 
HETATM    9  C6  UNL     1      -4.161  13.982  25.867  1.00  0.00     0.032 C 
HETATM   10  C5  UNL     1      -5.395  14.433  25.069  1.00  0.00     0.015 C 
HETATM   11  C15 UNL     1      -5.422  13.585  23.880  1.00  0.00     0.136 C 
HETATM   12  C14 UNL     1      -4.567  12.353  24.280  1.00  0.00     0.047 C 
BRANCH  10  13
HETATM   13  C2  UNL     1      -5.310  15.924  24.817  1.00  0.00    -0.046 C 
HETATM   14  C1  UNL     1      -4.795  16.280  23.445  1.00  0.00     0.015 C 
HETATM   15  C3  UNL     1      -6.680  16.579  24.944  1.00  0.00     0.015 C 
HETATM   16  C4  UNL     1      -4.421  16.604  25.836  1.00  0.00     0.015 C 
ENDBRANCH  10  13
BRANCH  11  17
HETATM   17  S1  UNL     1      -6.862  12.983  23.160  1.00  0.00     0.231 S 
HETATM   18  O2  UNL     1      -7.105  13.884  21.907  1.00  0.00    -0.206 OA
HETATM   19  O3  UNL     1      -8.108  13.286  23.992  1.00  0.00    -0.206 OA
BRANCH  17  20
HETATM   20  N4  UNL     1      -6.992  11.417  22.615  1.00  0.00    -0.309 N 
ATOM     21  H4  UNL     1      -6.996  10.634  23.268  1.00  0.00     0.172 HD
BRANCH  20  22
HETATM   22  C16 UNL     1      -7.098  11.201  21.220  1.00  0.00     0.133 C 
HETATM   23  C17 UNL     1      -8.496  10.803  20.884  1.00  0.00    -0.002 C 
HETATM   24  C18 UNL     1      -8.895   9.548  20.978  1.00  0.00    -0.009 C 
HETATM   25  C19 UNL     1      -7.856   8.570  21.438  1.00  0.00     0.149 C 
HETATM   26  N5  UNL     1      -6.653   8.809  20.713  1.00  0.00    -0.354 N 
HETATM   27  C21 UNL     1      -6.120  10.119  20.742  1.00  0.00     0.152 C 
BRANCH  26  28
HETATM   28  C20 UNL     1      -6.539   8.110  19.472  1.00  0.00     0.456 C 
HETATM   29  F1  UNL     1      -5.285   7.614  19.215  1.00  0.00    -0.191 F 
HETATM   30  F2  UNL     1      -7.398   7.005  19.548  1.00  0.00    -0.191 F 
ENDBRANCH  26  28
ENDBRANCH  20  22
ENDBRANCH  17  20
ENDBRANCH  11  17
ENDBRANCH   6   8
ENDBRANCH   1   6
BRANCH   1  31
HETATM   31  C10 UNL     1      -1.733   9.879  25.311  1.00  0.00     0.189 C 
HETATM   32  C11 UNL     1      -0.349   9.460  25.707  1.00  0.00     0.042 C 
HETATM   33  C12 UNL     1      -0.696   8.184  26.510  1.00  0.00     0.029 C 
HETATM   34  C13 UNL     1      -2.015   8.602  27.115  1.00  0.00     0.168 C 
HETATM   35  O1  UNL     1      -2.401   9.797  26.533  1.00  0.00    -0.378 OA
ENDBRANCH   1  31
TORSDOF 8
ENDMDL
MODEL 3
REMARK VINA RESULT: -8.178552854      1.040      1.522
REMARK  8 active torsions:
REMARK  status: ('A' for Active; 'I' for Inactive)
REMARK    1  A    between atoms: C2_2  and  C5_5 
REMARK    2  A    between atoms: C7_7  and  N1_8 
REMARK    3  A    between atoms: N1_8  and  C8_10 
REMARK    4  A    between atoms: C8_10  and  C10_15 
REMARK    5  A    between atoms: C15_21  and  S1_22 
REMARK    6  A    between atoms: S1_22  and  N4_25 
REMARK    7  A    between atoms: N4_25  and  C16_27 
REMARK    8  A    between atoms: N5_31  and  C20_32 
ROOT
HETATM    1  C8  UNL     1      -1.944  11.465  24.205  1.00  0.00     0.116 C 
HETATM    2  N2  UNL     1      -1.584  11.657  23.007  1.00  0.00    -0.281 N 
ATOM      3  H2  UNL     1      -1.739  12.612  22.686  1.00  0.00     0.179 HD
HETATM    4  C9  UNL     1      -1.033  10.850  22.060  1.00  0.00     0.183 C 
HETATM    5  N3  UNL     1      -0.570  10.188  21.238  1.00  0.00    -0.172 NA
ENDROOT
BRANCH   1   6
HETATM    6  N1  UNL     1      -2.508  12.619  24.910  1.00  0.00    -0.372 N 
ATOM      7  H1  UNL     1      -2.120  12.953  25.792  1.00  0.00     0.161 HD
BRANCH   6   8
HETATM    8  C7  UNL     1      -3.623  13.246  24.299  1.00  0.00     0.084 C 
HETATM    9  C6  UNL     1      -4.735  13.582  25.267  1.00  0.00     0.032 C 
HETATM   10  C5  UNL     1      -5.982  13.745  24.382  1.00  0.00     0.015 C 
HETATM   11  C15 UNL     1      -5.607  13.207  23.077  1.00  0.00     0.136 C 
HETATM   12  C14 UNL     1      -4.400  12.282  23.387  1.00  0.00     0.047 C 
BRANCH  10  13
HETATM   13  C2  UNL     1      -6.421  15.196  24.399  1.00  0.00    -0.046 C 
HETATM   14  C1  UNL     1      -6.007  15.969  23.172  1.00  0.00     0.015 C 
HETATM   15  C3  UNL     1      -7.938  15.307  24.485  1.00  0.00     0.015 C 
HETATM   16  C4  UNL     1      -5.875  15.921  25.609  1.00  0.00     0.015 C 
ENDBRANCH  10  13
BRANCH  11  17
HETATM   17  S1  UNL     1      -6.672  12.318  22.062  1.00  0.00     0.231 S 
HETATM   18  O2  UNL     1      -7.616  13.384  21.420  1.00  0.00    -0.206 OA
HETATM   19  O3  UNL     1      -7.670  11.472  22.851  1.00  0.00    -0.206 OA
BRANCH  17  20
HETATM   20  N4  UNL     1      -6.120  11.392  20.795  1.00  0.00    -0.309 N 
ATOM     21  H4  UNL     1      -5.940  11.808  19.881  1.00  0.00     0.172 HD
BRANCH  20  22
HETATM   22  C16 UNL     1      -5.907  10.011  21.019  1.00  0.00     0.133 C 
HETATM   23  C17 UNL     1      -4.467   9.690  20.799  1.00  0.00    -0.002 C 
HETATM   24  C18 UNL     1      -3.996   9.434  19.592  1.00  0.00    -0.009 C 
HETATM   25  C19 UNL     1      -5.000   9.489  18.480  1.00  0.00     0.149 C 
HETATM   26  N5  UNL     1      -6.163   8.771  18.881  1.00  0.00    -0.354 N 
HETATM   27  C21 UNL     1      -6.780   9.148  20.096  1.00  0.00     0.152 C 
BRANCH  26  28
HETATM   28  C20 UNL     1      -6.149   7.373  18.589  1.00  0.00     0.456 C 
HETATM   29  F1  UNL     1      -4.957   6.750  18.864  1.00  0.00    -0.191 F 
HETATM   30  F2  UNL     1      -7.111   6.776  19.414  1.00  0.00    -0.191 F 
ENDBRANCH  26  28
ENDBRANCH  20  22
ENDBRANCH  17  20
ENDBRANCH  11  17
ENDBRANCH   6   8
ENDBRANCH   1   6
BRANCH   1  31
HETATM   31  C10 UNL     1      -1.865  10.225  24.972  1.00  0.00     0.189 C 
HETATM   32  C11 UNL     1      -0.491   9.752  25.341  1.00  0.00     0.042 C 
HETATM   33  C12 UNL     1      -0.874   8.617  26.320  1.00  0.00     0.029 C 
HETATM   34  C13 UNL     1      -2.119   9.210  26.939  1.00  0.00     0.168 C 
HETATM   35  O1  UNL     1      -2.457  10.349  26.229  1.00  0.00    -0.378 OA
ENDBRANCH   1  31
TORSDOF 8
ENDMDL
MODEL 4
REMARK VINA RESULT: -8.037000409      0.999      1.395
REMARK  8 active torsions:
REMARK  status: ('A' for Active; 'I' for Inactive)
REMARK    1  A    between atoms: C2_2  and  C5_5 
REMARK    2  A    between atoms: C7_7  and  N1_8 
REMARK    3  A    between atoms: N1_8  and  C8_10 
REMARK    4  A    between atoms: C8_10  and  C10_15 
REMARK    5  A    between atoms: C15_21  and  S1_22 
REMARK    6  A    between atoms: S1_22  and  N4_25 
REMARK    7  A    between atoms: N4_25  and  C16_27 
REMARK    8  A    between atoms: N5_31  and  C20_32 
ROOT
HETATM    1  C8  UNL     1      -1.989  11.376  24.802  1.00  0.00     0.116 C 
HETATM    2  N2  UNL     1      -1.569  11.759  23.672  1.00  0.00    -0.281 N 
ATOM      3  H2  UNL     1      -1.777  12.737  23.472  1.00  0.00     0.179 HD
HETATM    4  C9  UNL     1      -0.895  11.132  22.669  1.00  0.00     0.183 C 
HETATM    5  N3  UNL     1      -0.329  10.627  21.802  1.00  0.00    -0.172 NA
ENDROOT
BRANCH   1   6
HETATM    6  N1  UNL     1      -2.687  12.378  25.613  1.00  0.00    -0.372 N 
ATOM      7  H1  UNL     1      -2.509  12.481  26.612  1.00  0.00     0.161 HD
BRANCH   6   8
HETATM    8  C7  UNL     1      -3.624  13.196  24.933  1.00  0.00     0.084 C 
HETATM    9  C6  UNL     1      -4.494  14.018  25.856  1.00  0.00     0.032 C 
HETATM   10  C5  UNL     1      -5.718  14.393  25.004  1.00  0.00     0.015 C 
HETATM   11  C15 UNL     1      -5.640  13.545  23.818  1.00  0.00     0.136 C 
HETATM   12  C14 UNL     1      -4.731  12.367  24.258  1.00  0.00     0.047 C 
BRANCH  10  13
HETATM   13  C2  UNL     1      -5.713  15.887  24.752  1.00  0.00    -0.046 C 
HETATM   14  C1  UNL     1      -4.955  16.675  25.792  1.00  0.00     0.015 C 
HETATM   15  C3  UNL     1      -5.067  16.214  23.412  1.00  0.00     0.015 C 
HETATM   16  C4  UNL     1      -7.120  16.438  24.688  1.00  0.00     0.015 C 
ENDBRANCH  10  13
BRANCH  11  17
HETATM   17  S1  UNL     1      -7.009  12.856  23.037  1.00  0.00     0.231 S 
HETATM   18  O2  UNL     1      -7.410  13.880  21.928  1.00  0.00    -0.206 OA
HETATM   19  O3  UNL     1      -8.257  12.866  23.918  1.00  0.00    -0.206 OA
BRANCH  17  20
HETATM   20  N4  UNL     1      -6.944  11.378  22.276  1.00  0.00    -0.309 N 
ATOM     21  H4  UNL     1      -7.179  10.521  22.776  1.00  0.00     0.172 HD
BRANCH  20  22
HETATM   22  C16 UNL     1      -6.554  11.343  20.916  1.00  0.00     0.133 C 
HETATM   23  C17 UNL     1      -6.499   9.926  20.453  1.00  0.00    -0.002 C 
HETATM   24  C18 UNL     1      -5.426   9.181  20.646  1.00  0.00    -0.009 C 
HETATM   25  C19 UNL     1      -4.288   9.854  21.351  1.00  0.00     0.149 C 
HETATM   26  N5  UNL     1      -4.082  11.136  20.765  1.00  0.00    -0.354 N 
HETATM   27  C21 UNL     1      -5.189  12.014  20.704  1.00  0.00     0.152 C 
BRANCH  26  28
HETATM   28  C20 UNL     1      -3.196  11.159  19.644  1.00  0.00     0.456 C 
HETATM   29  F1  UNL     1      -2.386  10.057  19.539  1.00  0.00    -0.191 F 
HETATM   30  F2  UNL     1      -3.997  11.177  18.494  1.00  0.00    -0.191 F 
ENDBRANCH  26  28
ENDBRANCH  20  22
ENDBRANCH  17  20
ENDBRANCH  11  17
ENDBRANCH   6   8
ENDBRANCH   1   6
BRANCH   1  31
HETATM   31  C10 UNL     1      -1.863  10.049  25.399  1.00  0.00     0.189 C 
HETATM   32  C11 UNL     1      -0.469   9.554  25.640  1.00  0.00     0.042 C 
HETATM   33  C12 UNL     1      -0.795   8.296  26.481  1.00  0.00     0.029 C 
HETATM   34  C13 UNL     1      -2.014   8.786  27.228  1.00  0.00     0.168 C 
HETATM   35  O1  UNL     1      -2.395  10.002  26.688  1.00  0.00    -0.378 OA
ENDBRANCH   1  31
TORSDOF 8
ENDMDL
MODEL 5
REMARK VINA RESULT: -7.996213784      2.513      3.159
REMARK  8 active torsions:
REMARK  status: ('A' for Active; 'I' for Inactive)
REMARK    1  A    between atoms: C2_2  and  C5_5 
REMARK    2  A    between atoms: C7_7  and  N1_8 
REMARK    3  A    between atoms: N1_8  and  C8_10 
REMARK    4  A    between atoms: C8_10  and  C10_15 
REMARK    5  A    between atoms: C15_21  and  S1_22 
REMARK    6  A    between atoms: S1_22  and  N4_25 
REMARK    7  A    between atoms: N4_25  and  C16_27 
REMARK    8  A    between atoms: N5_31  and  C20_32 
ROOT
HETATM    1  C8  UNL     1      -1.552  10.629  24.852  1.00  0.00     0.116 C 
HETATM    2  N2  UNL     1      -0.738  11.380  24.242  1.00  0.00    -0.281 N 
ATOM      3  H2  UNL     1      -1.170  11.926  23.496  1.00  0.00     0.179 HD
HETATM    4  C9  UNL     1       0.597  11.608  24.376  1.00  0.00     0.183 C 
HETATM    5  N3  UNL     1       1.727  11.818  24.464  1.00  0.00    -0.172 NA
ENDROOT
BRANCH   1   6
HETATM    6  N1  UNL     1      -2.945  10.670  24.396  1.00  0.00    -0.372 N 
ATOM      7  H1  UNL     1      -3.661  10.067  24.801  1.00  0.00     0.161 HD
BRANCH   6   8
HETATM    8  C7  UNL     1      -3.242  11.593  23.362  1.00  0.00     0.084 C 
HETATM    9  C6  UNL     1      -4.580  12.278  23.527  1.00  0.00     0.032 C 
HETATM   10  C5  UNL     1      -4.927  12.793  22.120  1.00  0.00     0.015 C 
HETATM   11  C15 UNL     1      -3.986  12.132  21.220  1.00  0.00     0.136 C 
HETATM   12  C14 UNL     1      -3.513  10.889  22.021  1.00  0.00     0.047 C 
BRANCH  10  13
HETATM   13  C2  UNL     1      -4.892  14.308  22.119  1.00  0.00    -0.046 C 
HETATM   14  C1  UNL     1      -3.615  14.884  21.559  1.00  0.00     0.015 C 
HETATM   15  C3  UNL     1      -6.026  14.880  21.278  1.00  0.00     0.015 C 
HETATM   16  C4  UNL     1      -5.078  14.863  23.514  1.00  0.00     0.015 C 
ENDBRANCH  10  13
BRANCH  11  17
HETATM   17  S1  UNL     1      -4.389  11.586  19.641  1.00  0.00     0.231 S 
HETATM   18  O2  UNL     1      -3.031  11.172  18.988  1.00  0.00    -0.206 OA
HETATM   19  O3  UNL     1      -4.830  12.722  18.718  1.00  0.00    -0.206 OA
BRANCH  17  20
HETATM   20  N4  UNL     1      -5.416  10.303  19.382  1.00  0.00    -0.309 N 
ATOM     21  H4  UNL     1      -6.261  10.187  19.941  1.00  0.00     0.172 HD
BRANCH  20  22
HETATM   22  C16 UNL     1      -5.085   9.376  18.364  1.00  0.00     0.133 C 
HETATM   23  C17 UNL     1      -6.156   9.377  17.326  1.00  0.00    -0.002 C 
HETATM   24  C18 UNL     1      -7.246   8.644  17.461  1.00  0.00    -0.009 C 
HETATM   25  C19 UNL     1      -7.324   7.824  18.713  1.00  0.00     0.149 C 
HETATM   26  N5  UNL     1      -6.077   7.162  18.903  1.00  0.00    -0.354 N 
HETATM   27  C21 UNL     1      -4.909   7.959  18.929  1.00  0.00     0.152 C 
BRANCH  26  28
HETATM   28  C20 UNL     1      -5.958   5.890  18.263  1.00  0.00     0.456 C 
HETATM   29  F1  UNL     1      -4.752   5.266  18.464  1.00  0.00    -0.191 F 
HETATM   30  F2  UNL     1      -6.937   5.059  18.824  1.00  0.00    -0.191 F 
ENDBRANCH  26  28
ENDBRANCH  20  22
ENDBRANCH  17  20
ENDBRANCH  11  17
ENDBRANCH   6   8
ENDBRANCH   1   6
BRANCH   1  31
HETATM   31  C10 UNL     1      -1.271   9.721  25.960  1.00  0.00     0.189 C 
HETATM   32  C11 UNL     1      -2.424   9.383  26.857  1.00  0.00     0.042 C 
HETATM   33  C12 UNL     1      -1.771   8.249  27.683  1.00  0.00     0.029 C 
HETATM   34  C13 UNL     1      -0.882   7.631  26.629  1.00  0.00     0.168 C 
HETATM   35  O1  UNL     1      -0.892   8.454  25.515  1.00  0.00    -0.378 OA
ENDBRANCH   1  31
TORSDOF 8
ENDMDL
