MODEL 1
REMARK VINA RESULT: -8.887261881      0.000      0.000
REMARK  8 active torsions:
REMARK  status: ('A' for Active; 'I' for Inactive)
REMARK    1  A    between atoms: C6_6  and  N1_7 
REMARK    2  A    between atoms: N1_7  and  C7_8 
REMARK    3  A    between atoms: C11_15  and  N3_16 
REMARK    4  A    between atoms: C12_18  and  C13_19 
REMARK    5  A    between atoms: C13_19  and  C14_20 
REMARK    6  A    between atoms: C14_20  and  N4_21 
REMARK    7  A    between atoms: C19_29  and  C20_30 
REMARK    8  A    between atoms: C20_30  and  O2_31 
ROOT
HETATM    1  C7  UNL     1      -5.462  11.287  21.715  1.00  0.00     0.261 A 
HETATM    2  N2  UNL     1      -6.363  12.310  21.607  1.00  0.00    -0.319 N 
ATOM      3  H2  UNL     1      -7.159  12.190  20.981  1.00  0.00     0.170 HD
HETATM    4  C8  UNL     1      -6.254  13.445  22.274  1.00  0.00     0.030 A 
HETATM    5  C9  UNL     1      -7.252  14.564  22.146  1.00  0.00     0.070 C 
HETATM    6  C10 UNL     1      -5.180  13.609  23.119  1.00  0.00     0.077 A 
HETATM    7 BR1  UNL     1      -5.040  15.276  24.084  1.00  0.00    -0.045 Br
HETATM    8  C11 UNL     1      -4.232  12.626  23.282  1.00  0.00     0.128 A 
HETATM    9  N5  UNL     1      -4.434  11.487  22.548  1.00  0.00    -0.301 N 
ATOM     10  H5  UNL     1      -3.750  10.737  22.643  1.00  0.00     0.171 HD
ENDROOT
BRANCH   1  11
HETATM   11  N1  UNL     1      -5.644  10.294  21.076  1.00  0.00    -0.370 NA
BRANCH  11  12
HETATM   12  C6  UNL     1      -5.816   9.210  20.387  1.00  0.00     0.125 A 
HETATM   13  C4  UNL     1      -7.004   8.476  20.414  1.00  0.00    -0.020 A 
HETATM   14  C3  UNL     1      -7.156   7.325  19.673  1.00  0.00     0.017 A 
HETATM   15  C5  UNL     1      -8.082   9.002  21.278  1.00  0.00     0.052 C 
HETATM   16  C2  UNL     1      -6.126   6.872  18.883  1.00  0.00    -0.061 A 
HETATM   17  C1  UNL     1      -6.387   5.621  18.124  1.00  0.00     0.048 C 
HETATM   18  C21 UNL     1      -4.957   7.554  18.827  1.00  0.00     0.019 A 
HETATM   19  C19 UNL     1      -4.804   8.694  19.560  1.00  0.00     0.007 A 
BRANCH  19  20
HETATM   20  C20 UNL     1      -3.539   9.435  19.504  1.00  0.00     0.206 C 
BRANCH  20  21
HETATM   21  O2  UNL     1      -3.718  10.579  18.732  1.00  0.00    -0.396 OA
ATOM     22  H2  UNL     1      -3.262  10.469  17.906  1.00  0.00     0.209 HD
ENDBRANCH  20  21
ENDBRANCH  19  20
ENDBRANCH  11  12
ENDBRANCH   1  11
BRANCH   8  23
HETATM   23  N3  UNL     1      -3.260  12.736  24.028  1.00  0.00    -0.355 N 
HETATM   24  C12 UNL     1      -2.508  12.271  25.057  1.00  0.00     0.064 C 
ATOM     25  H3  UNL     1      -2.794  13.593  23.727  1.00  0.00     0.166 HD
BRANCH  24  26
HETATM   26  C13 UNL     1      -1.338  11.367  24.693  1.00  0.00     0.074 C 
BRANCH  26  27
HETATM   27  C14 UNL     1      -1.508   9.956  25.171  1.00  0.00     0.277 C 
BRANCH  27  28
HETATM   28  N4  UNL     1      -1.356   9.729  26.560  1.00  0.00     0.092 N 
HETATM   29  C15 UNL     1      -2.543   9.357  27.279  1.00  0.00     0.298 C 
HETATM   30  C16 UNL     1      -2.388   8.013  27.967  1.00  0.00     0.198 C 
HETATM   31  O1  UNL     1      -1.941   7.117  27.006  1.00  0.00    -0.388 OA
HETATM   32  C17 UNL     1      -0.624   7.394  26.727  1.00  0.00     0.198 C 
HETATM   33  C18 UNL     1      -0.244   8.840  26.827  1.00  0.00     0.298 C 
ENDBRANCH  27  28
ENDBRANCH  26  27
ENDBRANCH  24  26
ENDBRANCH   8  23
TORSDOF 8
ENDMDL
MODEL 2
REMARK VINA RESULT: -8.761069106      0.981      1.841
REMARK  8 active torsions:
REMARK  status: ('A' for Active; 'I' for Inactive)
REMARK    1  A    between atoms: C6_6  and  N1_7 
REMARK    2  A    between atoms: N1_7  and  C7_8 
REMARK    3  A    between atoms: C11_15  and  N3_16 
REMARK    4  A    between atoms: C12_18  and  C13_19 
REMARK    5  A    between atoms: C13_19  and  C14_20 
REMARK    6  A    between atoms: C14_20  and  N4_21 
REMARK    7  A    between atoms: C19_29  and  C20_30 
REMARK    8  A    between atoms: C20_30  and  O2_31 
ROOT
HETATM    1  C7  UNL     1      -5.455  11.269  21.689  1.00  0.00     0.261 A 
HETATM    2  N2  UNL     1      -6.367  12.283  21.593  1.00  0.00    -0.319 N 
ATOM      3  H2  UNL     1      -7.168  12.157  20.975  1.00  0.00     0.170 HD
HETATM    4  C8  UNL     1      -6.262  13.418  22.260  1.00  0.00     0.030 A 
HETATM    5  C9  UNL     1      -7.273  14.527  22.145  1.00  0.00     0.070 C 
HETATM    6  C10 UNL     1      -5.182  13.592  23.094  1.00  0.00     0.077 A 
HETATM    7 BR1  UNL     1      -5.049  15.259  24.061  1.00  0.00    -0.045 Br
HETATM    8  C11 UNL     1      -4.221  12.618  23.246  1.00  0.00     0.128 A 
HETATM    9  N5  UNL     1      -4.420  11.479  22.512  1.00  0.00    -0.301 N 
ATOM     10  H5  UNL     1      -3.728  10.735  22.597  1.00  0.00     0.171 HD
ENDROOT
BRANCH   1  11
HETATM   11  N1  UNL     1      -5.633  10.276  21.050  1.00  0.00    -0.370 NA
BRANCH  11  12
HETATM   12  C6  UNL     1      -5.802   9.189  20.363  1.00  0.00     0.125 A 
HETATM   13  C4  UNL     1      -4.813   8.653  19.536  1.00  0.00    -0.020 A 
HETATM   14  C3  UNL     1      -5.025   7.499  18.817  1.00  0.00     0.017 A 
HETATM   15  C5  UNL     1      -3.533   9.392  19.479  1.00  0.00     0.052 C 
HETATM   16  C2  UNL     1      -6.231   6.844  18.900  1.00  0.00    -0.061 A 
HETATM   17  C1  UNL     1      -6.362   5.609  18.085  1.00  0.00     0.048 C 
HETATM   18  C21 UNL     1      -7.218   7.330  19.691  1.00  0.00     0.019 A 
HETATM   19  C19 UNL     1      -7.011   8.474  20.405  1.00  0.00     0.007 A 
BRANCH  19  20
HETATM   20  C20 UNL     1      -8.077   9.004  21.262  1.00  0.00     0.206 C 
BRANCH  20  21
HETATM   21  O2  UNL     1      -8.608  10.145  20.670  1.00  0.00    -0.396 OA
ATOM     22  H2  UNL     1      -8.267  10.911  21.116  1.00  0.00     0.209 HD
ENDBRANCH  20  21
ENDBRANCH  19  20
ENDBRANCH  11  12
ENDBRANCH   1  11
BRANCH   8  23
HETATM   23  N3  UNL     1      -3.243  12.737  23.981  1.00  0.00    -0.355 N 
HETATM   24  C12 UNL     1      -2.484  12.286  25.012  1.00  0.00     0.064 C 
ATOM     25  H3  UNL     1      -2.776  13.586  23.662  1.00  0.00     0.166 HD
BRANCH  24  26
HETATM   26  C13 UNL     1      -1.322  11.371  24.655  1.00  0.00     0.074 C 
BRANCH  26  27
HETATM   27  C14 UNL     1      -1.501   9.966  25.147  1.00  0.00     0.277 C 
BRANCH  27  28
HETATM   28  N4  UNL     1      -1.366   9.755  26.540  1.00  0.00     0.092 N 
HETATM   29  C15 UNL     1      -2.563   9.396  27.250  1.00  0.00     0.298 C 
HETATM   30  C16 UNL     1      -2.421   8.060  27.955  1.00  0.00     0.198 C 
HETATM   31  O1  UNL     1      -1.966   7.151  27.010  1.00  0.00    -0.388 OA
HETATM   32  C17 UNL     1      -0.646   7.420  26.743  1.00  0.00     0.198 C 
HETATM   33  C18 UNL     1      -0.260   8.864  26.831  1.00  0.00     0.298 C 
ENDBRANCH  27  28
ENDBRANCH  26  27
ENDBRANCH  24  26
ENDBRANCH   8  23
TORSDOF 8
ENDMDL
MODEL 3
REMARK VINA RESULT: -8.369992068      1.122      1.517
REMARK  8 active torsions:
REMARK  status: ('A' for Active; 'I' for Inactive)
REMARK    1  A    between atoms: C6_6  and  N1_7 
REMARK    2  A    between atoms: N1_7  and  C7_8 
REMARK    3  A    between atoms: C11_15  and  N3_16 
REMARK    4  A    between atoms: C12_18  and  C13_19 
REMARK    5  A    between atoms: C13_19  and  C14_20 
REMARK    6  A    between atoms: C14_20  and  N4_21 
REMARK    7  A    between atoms: C19_29  and  C20_30 
REMARK    8  A    between atoms: C20_30  and  O2_31 
ROOT
HETATM    1  C7  UNL     1      -6.064  11.528  21.635  1.00  0.00     0.261 A 
HETATM    2  N2  UNL     1      -7.143  12.351  21.465  1.00  0.00    -0.319 N 
ATOM      3  H2  UNL     1      -7.874  12.062  20.817  1.00  0.00     0.170 HD
HETATM    4  C8  UNL     1      -7.284  13.501  22.099  1.00  0.00     0.030 A 
HETATM    5  C9  UNL     1      -8.476  14.398  21.903  1.00  0.00     0.070 C 
HETATM    6  C10 UNL     1      -6.297  13.894  22.974  1.00  0.00     0.077 A 
HETATM    7 BR1  UNL     1      -6.524  15.579  23.890  1.00  0.00    -0.045 Br
HETATM    8  C11 UNL     1      -5.181  13.121  23.200  1.00  0.00     0.128 A 
HETATM    9  N5  UNL     1      -5.128  11.948  22.495  1.00  0.00    -0.301 N 
ATOM     10  H5  UNL     1      -4.315  11.349  22.636  1.00  0.00     0.171 HD
ENDROOT
BRANCH   1  11
HETATM   11  N1  UNL     1      -6.022  10.504  21.021  1.00  0.00    -0.370 NA
BRANCH  11  12
HETATM   12  C6  UNL     1      -6.002   9.394  20.351  1.00  0.00     0.125 A 
HETATM   13  C4  UNL     1      -7.068   8.492  20.349  1.00  0.00    -0.020 A 
HETATM   14  C3  UNL     1      -7.016   7.319  19.630  1.00  0.00     0.017 A 
HETATM   15  C5  UNL     1      -8.248   8.866  21.157  1.00  0.00     0.052 C 
HETATM   16  C2  UNL     1      -5.898   7.011  18.892  1.00  0.00    -0.061 A 
HETATM   17  C1  UNL     1      -5.937   5.723  18.152  1.00  0.00     0.048 C 
HETATM   18  C21 UNL     1      -4.841   7.859  18.866  1.00  0.00     0.019 A 
HETATM   19  C19 UNL     1      -4.890   9.022  19.577  1.00  0.00     0.007 A 
BRANCH  19  20
HETATM   20  C20 UNL     1      -3.748   9.942  19.553  1.00  0.00     0.206 C 
BRANCH  20  21
HETATM   21  O2  UNL     1      -3.154   9.959  20.811  1.00  0.00    -0.396 OA
ATOM     22  H2  UNL     1      -3.833   9.916  21.474  1.00  0.00     0.209 HD
ENDBRANCH  20  21
ENDBRANCH  19  20
ENDBRANCH  11  12
ENDBRANCH   1  11
BRANCH   8  23
HETATM   23  N3  UNL     1      -4.280  13.439  23.973  1.00  0.00    -0.355 N 
HETATM   24  C12 UNL     1      -3.619  13.263  25.145  1.00  0.00     0.064 C 
ATOM     25  H3  UNL     1      -3.793  14.206  23.509  1.00  0.00     0.166 HD
BRANCH  24  26
HETATM   26  C13 UNL     1      -2.418  12.329  25.118  1.00  0.00     0.074 C 
BRANCH  26  27
HETATM   27  C14 UNL     1      -2.512  11.214  26.117  1.00  0.00     0.277 C 
BRANCH  27  28
HETATM   28  N4  UNL     1      -2.311   9.900  25.628  1.00  0.00     0.092 N 
HETATM   29  C15 UNL     1      -1.383   9.759  24.540  1.00  0.00     0.298 C 
HETATM   30  C16 UNL     1      -0.239   8.826  24.891  1.00  0.00     0.198 C 
HETATM   31  O1  UNL     1       0.286   9.268  26.097  1.00  0.00    -0.388 OA
HETATM   32  C17 UNL     1      -0.595   8.951  27.102  1.00  0.00     0.198 C 
HETATM   33  C18 UNL     1      -2.041   8.975  26.711  1.00  0.00     0.298 C 
ENDBRANCH  27  28
ENDBRANCH  26  27
ENDBRANCH  24  26
ENDBRANCH   8  23
TORSDOF 8
ENDMDL
MODEL 4
REMARK VINA RESULT: -8.367404444      0.899      1.027
REMARK  8 active torsions:
REMARK  status: ('A' for Active; 'I' for Inactive)
REMARK    1  A    between atoms: C6_6  and  N1_7 
REMARK    2  A    between atoms: N1_7  and  C7_8 
REMARK    3  A    between atoms: C11_15  and  N3_16 
REMARK    4  A    between atoms: C12_18  and  C13_19 
REMARK    5  A    between atoms: C13_19  and  C14_20 
REMARK    6  A    between atoms: C14_20  and  N4_21 
REMARK    7  A    between atoms: C19_29  and  C20_30 
REMARK    8  A    between atoms: C20_30  and  O2_31 
ROOT
HETATM    1  C7  UNL     1      -6.082  11.412  21.414  1.00  0.00     0.261 A 
HETATM    2  N2  UNL     1      -6.934  12.390  20.981  1.00  0.00    -0.319 N 
ATOM      3  H2  UNL     1      -7.528  12.192  20.176  1.00  0.00     0.170 HD
HETATM    4  C8  UNL     1      -7.026  13.577  21.552  1.00  0.00     0.030 A 
HETATM    5  C9  UNL     1      -7.967  14.645  21.065  1.00  0.00     0.070 C 
HETATM    6  C10 UNL     1      -6.225  13.846  22.639  1.00  0.00     0.077 A 
HETATM    7 BR1  UNL     1      -6.375  15.588  23.460  1.00  0.00    -0.045 Br
HETATM    8  C11 UNL     1      -5.342  12.914  23.135  1.00  0.00     0.128 A 
HETATM    9  N5  UNL     1      -5.322  11.715  22.473  1.00  0.00    -0.301 N 
ATOM     10  H5  UNL     1      -4.679  11.000  22.812  1.00  0.00     0.171 HD
ENDROOT
BRANCH   1  11
HETATM   11  N1  UNL     1      -6.069  10.366  20.837  1.00  0.00    -0.370 NA
BRANCH  11  12
HETATM   12  C6  UNL     1      -6.081   9.229  20.214  1.00  0.00     0.125 A 
HETATM   13  C4  UNL     1      -7.165   8.350  20.262  1.00  0.00    -0.020 A 
HETATM   14  C3  UNL     1      -7.145   7.147  19.593  1.00  0.00     0.017 A 
HETATM   15  C5  UNL     1      -8.327   8.783  21.067  1.00  0.00     0.052 C 
HETATM   16  C2  UNL     1      -6.043   6.785  18.855  1.00  0.00    -0.061 A 
HETATM   17  C1  UNL     1      -6.118   5.468  18.171  1.00  0.00     0.048 C 
HETATM   18  C21 UNL     1      -4.970   7.608  18.782  1.00  0.00     0.019 A 
HETATM   19  C19 UNL     1      -4.986   8.801  19.444  1.00  0.00     0.007 A 
BRANCH  19  20
HETATM   20  C20 UNL     1      -3.825   9.695  19.369  1.00  0.00     0.206 C 
BRANCH  20  21
HETATM   21  O2  UNL     1      -4.047  10.642  18.374  1.00  0.00    -0.396 OA
ATOM     22  H2  UNL     1      -3.882  10.245  17.527  1.00  0.00     0.209 HD
ENDBRANCH  20  21
ENDBRANCH  19  20
ENDBRANCH  11  12
ENDBRANCH   1  11
BRANCH   8  23
HETATM   23  N3  UNL     1      -4.611  13.118  24.102  1.00  0.00    -0.355 N 
HETATM   24  C12 UNL     1      -4.026  12.684  25.246  1.00  0.00     0.064 C 
ATOM     25  H3  UNL     1      -4.289  14.080  23.990  1.00  0.00     0.166 HD
BRANCH  24  26
HETATM   26  C13 UNL     1      -2.636  12.078  25.115  1.00  0.00     0.074 C 
BRANCH  26  27
HETATM   27  C14 UNL     1      -2.595  10.613  25.429  1.00  0.00     0.277 C 
BRANCH  27  28
HETATM   28  N4  UNL     1      -1.662  10.194  26.408  1.00  0.00     0.092 N 
HETATM   29  C15 UNL     1      -2.085   9.134  27.281  1.00  0.00     0.298 C 
HETATM   30  C16 UNL     1      -1.161   7.933  27.198  1.00  0.00     0.198 C 
HETATM   31  O1  UNL     1      -1.035   7.613  25.853  1.00  0.00    -0.388 OA
HETATM   32  C17 UNL     1      -0.246   8.561  25.249  1.00  0.00     0.198 C 
HETATM   33  C18 UNL     1      -0.362   9.942  25.817  1.00  0.00     0.298 C 
ENDBRANCH  27  28
ENDBRANCH  26  27
ENDBRANCH  24  26
ENDBRANCH   8  23
TORSDOF 8
ENDMDL
MODEL 5
REMARK VINA RESULT: -8.272318232      1.437      2.341
REMARK  8 active torsions:
REMARK  status: ('A' for Active; 'I' for Inactive)
REMARK    1  A    between atoms: C6_6  and  N1_7 
REMARK    2  A    between atoms: N1_7  and  C7_8 
REMARK    3  A    between atoms: C11_15  and  N3_16 
REMARK    4  A    between atoms: C12_18  and  C13_19 
REMARK    5  A    between atoms: C13_19  and  C14_20 
REMARK    6  A    between atoms: C14_20  and  N4_21 
REMARK    7  A    between atoms: C19_29  and  C20_30 
REMARK    8  A    between atoms: C20_30  and  O2_31 
ROOT
HETATM    1  C7  UNL     1      -5.994  11.533  21.586  1.00  0.00     0.261 A 
HETATM    2  N2  UNL     1      -7.044  12.385  21.382  1.00  0.00    -0.319 N 
ATOM      3  H2  UNL     1      -7.766  12.114  20.716  1.00  0.00     0.170 HD
HETATM    4  C8  UNL     1      -7.168  13.543  22.006  1.00  0.00     0.030 A 
HETATM    5  C9  UNL     1      -8.328  14.473  21.772  1.00  0.00     0.070 C 
HETATM    6  C10 UNL     1      -6.194  13.913  22.905  1.00  0.00     0.077 A 
HETATM    7 BR1  UNL     1      -6.397  15.609  23.806  1.00  0.00    -0.045 Br
HETATM    8  C11 UNL     1      -5.108  13.109  23.166  1.00  0.00     0.128 A 
HETATM    9  N5  UNL     1      -5.070  11.930  22.469  1.00  0.00    -0.301 N 
ATOM     10  H5  UNL     1      -4.279  11.309  22.635  1.00  0.00     0.171 HD
ENDROOT
BRANCH   1  11
HETATM   11  N1  UNL     1      -5.966  10.504  20.980  1.00  0.00    -0.370 NA
BRANCH  11  12
HETATM   12  C6  UNL     1      -5.950   9.377  20.339  1.00  0.00     0.125 A 
HETATM   13  C4  UNL     1      -4.846   8.939  19.605  1.00  0.00    -0.020 A 
HETATM   14  C3  UNL     1      -4.861   7.737  18.933  1.00  0.00     0.017 A 
HETATM   15  C5  UNL     1      -3.668   9.832  19.592  1.00  0.00     0.052 C 
HETATM   16  C2  UNL     1      -5.978   6.937  18.972  1.00  0.00    -0.061 A 
HETATM   17  C1  UNL     1      -5.896   5.662  18.213  1.00  0.00     0.048 C 
HETATM   18  C21 UNL     1      -7.071   7.324  19.672  1.00  0.00     0.019 A 
HETATM   19  C19 UNL     1      -7.059   8.514  20.340  1.00  0.00     0.007 A 
BRANCH  19  20
HETATM   20  C20 UNL     1      -8.241   8.939  21.099  1.00  0.00     0.206 C 
BRANCH  20  21
HETATM   21  O2  UNL     1      -8.876   9.967  20.410  1.00  0.00    -0.396 OA
ATOM     22  H2  UNL     1      -9.395   9.594  19.708  1.00  0.00     0.209 HD
ENDBRANCH  20  21
ENDBRANCH  19  20
ENDBRANCH  11  12
ENDBRANCH   1  11
BRANCH   8  23
HETATM   23  N3  UNL     1      -4.219  13.405  23.962  1.00  0.00    -0.355 N 
HETATM   24  C12 UNL     1      -3.582  13.202  25.142  1.00  0.00     0.064 C 
ATOM     25  H3  UNL     1      -3.719  14.178  23.522  1.00  0.00     0.166 HD
BRANCH  24  26
HETATM   26  C13 UNL     1      -2.386  12.260  25.119  1.00  0.00     0.074 C 
BRANCH  26  27
HETATM   27  C14 UNL     1      -2.495  11.141  26.111  1.00  0.00     0.277 C 
BRANCH  27  28
HETATM   28  N4  UNL     1      -2.269   9.831  25.624  1.00  0.00     0.092 N 
HETATM   29  C15 UNL     1      -1.324   9.704  24.549  1.00  0.00     0.298 C 
HETATM   30  C16 UNL     1      -0.173   8.785  24.916  1.00  0.00     0.198 C 
HETATM   31  O1  UNL     1       0.329   9.233  26.130  1.00  0.00    -0.388 OA
HETATM   32  C17 UNL     1      -0.563   8.902  27.122  1.00  0.00     0.198 C 
HETATM   33  C18 UNL     1      -2.003   8.907  26.710  1.00  0.00     0.298 C 
ENDBRANCH  27  28
ENDBRANCH  26  27
ENDBRANCH  24  26
ENDBRANCH   8  23
TORSDOF 8
ENDMDL
