MODEL 1
REMARK VINA RESULT: -7.824763420      0.000      0.000
REMARK  9 active torsions:
REMARK  status: ('A' for Active; 'I' for Inactive)
REMARK    1  A    between atoms: O1_2  and  C2_3 
REMARK    2  A    between atoms: C2_3  and  C3_4 
REMARK    3  A    between atoms: C2_3  and  C6_10 
REMARK    4  A    between atoms: C3_4  and  N1_5 
REMARK       I    between atoms: N1_5  and  C4_6 
REMARK    5  A    between atoms: C4_6  and  C5_8 
REMARK    6  A    between atoms: C6_10  and  N2_11 
REMARK    7  A    between atoms: C16_21  and  C17_22 
REMARK    8  A    between atoms: C19_25  and  O3_26 
REMARK    9  A    between atoms: C20_28  and  O4_29 
ROOT
HETATM    1  N2  UNL     1      -4.656  11.619  21.608  1.00  0.00    -0.385 N 
HETATM    2  C7  UNL     1      -5.655  12.645  21.490  1.00  0.00     0.127 C 
HETATM    3  C8  UNL     1      -6.947  12.147  20.826  1.00  0.00     0.011 C 
HETATM    4  C9  UNL     1      -6.862  12.585  19.363  1.00  0.00     0.007 C 
HETATM    5  C10 UNL     1      -6.018  11.557  18.686  1.00  0.00     0.013 C 
HETATM    6  C11 UNL     1      -5.723  10.511  19.733  1.00  0.00    -0.009 C 
HETATM    7  C12 UNL     1      -5.603   9.145  19.158  1.00  0.00     0.007 C 
HETATM    8  C13 UNL     1      -4.113   8.857  19.295  1.00  0.00     0.008 C 
HETATM    9  C14 UNL     1      -3.704   9.591  20.544  1.00  0.00     0.026 C 
HETATM   10  C15 UNL     1      -4.430  10.891  20.410  1.00  0.00     0.093 C 
HETATM   11  C16 UNL     1      -6.416   8.083  19.769  1.00  0.00     0.045 C 
HETATM   12  C19 UNL     1      -7.665   8.402  20.493  1.00  0.00     0.155 C 
HETATM   13  C20 UNL     1      -8.002   9.874  20.551  1.00  0.00     0.152 C 
HETATM   14  C21 UNL     1      -6.777  10.631  20.814  1.00  0.00     0.033 C 
ENDROOT
BRANCH   1  15
HETATM   15  C6  UNL     1      -3.605  12.010  22.430  1.00  0.00     0.093 C 
BRANCH  15  16
HETATM   16  C2  UNL     1      -2.579  11.036  22.801  1.00  0.00     0.189 C 
BRANCH  16  17
HETATM   17  O1  UNL     1      -1.277  11.365  22.695  1.00  0.00    -0.383 OA
HETATM   18  C1  UNL     1      -0.607  11.452  21.529  1.00  0.00     0.202 C 
ENDBRANCH  16  17
BRANCH  16  19
HETATM   19  C3  UNL     1      -2.857  10.816  24.379  1.00  0.00     0.259 C 
BRANCH  19  20
HETATM   20  N1  UNL     1      -1.891  10.001  24.934  1.00  0.00    -0.411 NA
HETATM   21  C4  UNL     1      -0.938   9.206  25.457  1.00  0.00     0.300 C 
HETATM   22  O2  UNL     1       0.071   8.701  24.856  1.00  0.00    -0.256 OA
BRANCH  21  23
HETATM   23  C5  UNL     1      -0.967   8.796  26.930  1.00  0.00     0.233 C 
HETATM   24 CL1  UNL     1      -0.883   7.041  27.054  1.00  0.00    -0.119 Cl
ENDBRANCH  21  23
ENDBRANCH  19  20
ENDBRANCH  16  19
ENDBRANCH  15  16
ENDBRANCH   1  15
BRANCH  13  25
HETATM   25  O4  UNL     1      -8.756  10.264  19.466  1.00  0.00    -0.393 OA
ATOM     26  H4  UNL     1      -9.651   9.955  19.534  1.00  0.00     0.210 HD
ENDBRANCH  13  25
BRANCH  11  27
HETATM   27  C17 UNL     1      -6.792   7.142  18.648  1.00  0.00    -0.012 C 
HETATM   28  C18 UNL     1      -6.123   6.056  18.374  1.00  0.00     0.052 C 
HETATM   29 BR1  UNL     1      -6.583   4.861  16.971  1.00  0.00    -0.064 Br
ENDBRANCH  11  27
BRANCH  12  30
HETATM   30  O3  UNL     1      -7.611   7.935  21.809  1.00  0.00    -0.392 OA
ATOM     31  H3  UNL     1      -7.147   8.548  22.367  1.00  0.00     0.210 HD
ENDBRANCH  12  30
TORSDOF 9
ENDMDL
MODEL 2
REMARK VINA RESULT: -7.788956140      1.153      1.474
REMARK  9 active torsions:
REMARK  status: ('A' for Active; 'I' for Inactive)
REMARK    1  A    between atoms: O1_2  and  C2_3 
REMARK    2  A    between atoms: C2_3  and  C3_4 
REMARK    3  A    between atoms: C2_3  and  C6_10 
REMARK    4  A    between atoms: C3_4  and  N1_5 
REMARK       I    between atoms: N1_5  and  C4_6 
REMARK    5  A    between atoms: C4_6  and  C5_8 
REMARK    6  A    between atoms: C6_10  and  N2_11 
REMARK    7  A    between atoms: C16_21  and  C17_22 
REMARK    8  A    between atoms: C19_25  and  O3_26 
REMARK    9  A    between atoms: C20_28  and  O4_29 
ROOT
HETATM    1  N2  UNL     1      -4.544  11.807  21.298  1.00  0.00    -0.385 N 
HETATM    2  C7  UNL     1      -5.592  12.788  21.227  1.00  0.00     0.127 C 
HETATM    3  C8  UNL     1      -6.922  12.205  20.730  1.00  0.00     0.011 C 
HETATM    4  C9  UNL     1      -7.005  12.557  19.244  1.00  0.00     0.007 C 
HETATM    5  C10 UNL     1      -6.192  11.522  18.541  1.00  0.00     0.013 C 
HETATM    6  C11 UNL     1      -5.748  10.551  19.609  1.00  0.00    -0.009 C 
HETATM    7  C12 UNL     1      -5.630   9.159  19.101  1.00  0.00     0.007 C 
HETATM    8  C13 UNL     1      -4.123   8.933  19.097  1.00  0.00     0.008 C 
HETATM    9  C14 UNL     1      -3.620   9.754  20.255  1.00  0.00     0.026 C 
HETATM   10  C15 UNL     1      -4.410  11.018  20.125  1.00  0.00     0.093 C 
HETATM   11  C16 UNL     1      -6.332   8.107  19.850  1.00  0.00     0.045 C 
HETATM   12  C19 UNL     1      -7.513   8.422  20.681  1.00  0.00     0.155 C 
HETATM   13  C20 UNL     1      -7.904   9.882  20.692  1.00  0.00     0.152 C 
HETATM   14  C21 UNL     1      -6.692  10.697  20.784  1.00  0.00     0.033 C 
ENDROOT
BRANCH   1  15
HETATM   15  C6  UNL     1      -3.433  12.284  21.984  1.00  0.00     0.093 C 
BRANCH  15  16
HETATM   16  C2  UNL     1      -3.283  11.988  23.408  1.00  0.00     0.189 C 
BRANCH  16  17
HETATM   17  O1  UNL     1      -4.374  11.949  24.200  1.00  0.00    -0.383 OA
HETATM   18  C1  UNL     1      -4.799  12.979  24.959  1.00  0.00     0.202 C 
ENDBRANCH  16  17
BRANCH  16  19
HETATM   19  C3  UNL     1      -2.688  10.485  23.395  1.00  0.00     0.259 C 
BRANCH  19  20
HETATM   20  N1  UNL     1      -2.221  10.135  24.647  1.00  0.00    -0.411 NA
HETATM   21  C4  UNL     1      -1.783   9.803  25.876  1.00  0.00     0.300 C 
HETATM   22  O2  UNL     1      -2.325  10.087  26.999  1.00  0.00    -0.256 OA
BRANCH  21  23
HETATM   23  C5  UNL     1      -0.500   8.994  26.069  1.00  0.00     0.233 C 
HETATM   24 CL1  UNL     1      -0.885   7.456  26.834  1.00  0.00    -0.119 Cl
ENDBRANCH  21  23
ENDBRANCH  19  20
ENDBRANCH  16  19
ENDBRANCH  15  16
ENDBRANCH   1  15
BRANCH  13  25
HETATM   25  O4  UNL     1      -8.780  10.179  19.671  1.00  0.00    -0.393 OA
ATOM     26  H4  UNL     1      -9.518  10.690  19.982  1.00  0.00     0.210 HD
ENDBRANCH  13  25
BRANCH  11  27
HETATM   27  C17 UNL     1      -6.779   7.088  18.828  1.00  0.00    -0.012 C 
HETATM   28  C18 UNL     1      -6.040   6.080  18.454  1.00  0.00     0.052 C 
HETATM   29 BR1  UNL     1      -6.587   4.790  17.172  1.00  0.00    -0.064 Br
ENDBRANCH  11  27
BRANCH  12  30
HETATM   30  O3  UNL     1      -7.306   8.037  22.009  1.00  0.00    -0.392 OA
ATOM     31  H3  UNL     1      -6.743   8.657  22.457  1.00  0.00     0.210 HD
ENDBRANCH  12  30
TORSDOF 9
ENDMDL
MODEL 3
REMARK VINA RESULT: -7.609355830      3.600      5.092
REMARK  9 active torsions:
REMARK  status: ('A' for Active; 'I' for Inactive)
REMARK    1  A    between atoms: O1_2  and  C2_3 
REMARK    2  A    between atoms: C2_3  and  C3_4 
REMARK    3  A    between atoms: C2_3  and  C6_10 
REMARK    4  A    between atoms: C3_4  and  N1_5 
REMARK       I    between atoms: N1_5  and  C4_6 
REMARK    5  A    between atoms: C4_6  and  C5_8 
REMARK    6  A    between atoms: C6_10  and  N2_11 
REMARK    7  A    between atoms: C16_21  and  C17_22 
REMARK    8  A    between atoms: C19_25  and  O3_26 
REMARK    9  A    between atoms: C20_28  and  O4_29 
ROOT
HETATM    1  N2  UNL     1      -2.899  11.135  23.027  1.00  0.00    -0.385 N 
HETATM    2  C7  UNL     1      -1.749  10.337  22.700  1.00  0.00     0.127 C 
HETATM    3  C8  UNL     1      -1.176  10.656  21.312  1.00  0.00     0.011 C 
HETATM    4  C9  UNL     1      -1.724   9.578  20.375  1.00  0.00     0.007 C 
HETATM    5  C10 UNL     1      -3.097  10.030  20.005  1.00  0.00     0.013 C 
HETATM    6  C11 UNL     1      -3.272  11.386  20.644  1.00  0.00    -0.009 C 
HETATM    7  C12 UNL     1      -4.138  12.289  19.841  1.00  0.00     0.007 C 
HETATM    8  C13 UNL     1      -5.401  12.379  20.688  1.00  0.00     0.008 C 
HETATM    9  C14 UNL     1      -4.908  12.261  22.106  1.00  0.00     0.026 C 
HETATM   10  C15 UNL     1      -3.884  11.175  22.006  1.00  0.00     0.093 C 
HETATM   11  C16 UNL     1      -3.607  13.622  19.521  1.00  0.00     0.045 C 
HETATM   12  C19 UNL     1      -2.150  13.872  19.477  1.00  0.00     0.155 C 
HETATM   13  C20 UNL     1      -1.295  12.667  19.796  1.00  0.00     0.152 C 
HETATM   14  C21 UNL     1      -1.892  11.946  20.921  1.00  0.00     0.033 C 
ENDROOT
BRANCH   1  15
HETATM   15  C6  UNL     1      -3.246  11.019  24.368  1.00  0.00     0.093 C 
BRANCH  15  16
HETATM   16  C2  UNL     1      -2.376  11.601  25.390  1.00  0.00     0.189 C 
BRANCH  16  17
HETATM   17  O1  UNL     1      -2.727  12.759  25.985  1.00  0.00    -0.383 OA
HETATM   18  C1  UNL     1      -3.633  13.625  25.487  1.00  0.00     0.202 C 
ENDBRANCH  16  17
BRANCH  16  19
HETATM   19  C3  UNL     1      -2.399  10.478  26.553  1.00  0.00     0.259 C 
BRANCH  19  20
HETATM   20  N1  UNL     1      -1.549   9.435  26.239  1.00  0.00    -0.411 NA
HETATM   21  C4  UNL     1      -0.713   8.431  25.916  1.00  0.00     0.300 C 
HETATM   22  O2  UNL     1       0.082   8.370  24.917  1.00  0.00    -0.256 OA
BRANCH  21  23
HETATM   23  C5  UNL     1      -0.622   7.168  26.774  1.00  0.00     0.233 C 
HETATM   24 CL1  UNL     1      -1.731   7.301  28.136  1.00  0.00    -0.119 Cl
ENDBRANCH  21  23
ENDBRANCH  19  20
ENDBRANCH  16  19
ENDBRANCH  15  16
ENDBRANCH   1  15
BRANCH  13  25
HETATM   25  O4  UNL     1      -1.010  11.935  18.665  1.00  0.00    -0.393 OA
ATOM     26  H4  UNL     1      -1.620  11.216  18.552  1.00  0.00     0.210 HD
ENDBRANCH  13  25
BRANCH  11  27
HETATM   27  C17 UNL     1      -4.149  13.975  18.155  1.00  0.00    -0.012 C 
HETATM   28  C18 UNL     1      -4.027  13.195  17.116  1.00  0.00     0.052 C 
HETATM   29 BR1  UNL     1      -4.704  13.621  15.393  1.00  0.00    -0.064 Br
ENDBRANCH  11  27
BRANCH  12  30
HETATM   30  O3  UNL     1      -1.791  14.885  20.371  1.00  0.00    -0.392 OA
ATOM     31  H3  UNL     1      -0.849  14.914  20.489  1.00  0.00     0.210 HD
ENDBRANCH  12  30
TORSDOF 9
ENDMDL
MODEL 4
REMARK VINA RESULT: -7.600153594      2.761      3.277
REMARK  9 active torsions:
REMARK  status: ('A' for Active; 'I' for Inactive)
REMARK    1  A    between atoms: O1_2  and  C2_3 
REMARK    2  A    between atoms: C2_3  and  C3_4 
REMARK    3  A    between atoms: C2_3  and  C6_10 
REMARK    4  A    between atoms: C3_4  and  N1_5 
REMARK       I    between atoms: N1_5  and  C4_6 
REMARK    5  A    between atoms: C4_6  and  C5_8 
REMARK    6  A    between atoms: C6_10  and  N2_11 
REMARK    7  A    between atoms: C16_21  and  C17_22 
REMARK    8  A    between atoms: C19_25  and  O3_26 
REMARK    9  A    between atoms: C20_28  and  O4_29 
ROOT
HETATM    1  N2  UNL     1      -4.496  11.653  22.043  1.00  0.00    -0.385 N 
HETATM    2  C7  UNL     1      -5.473  12.705  21.954  1.00  0.00     0.127 C 
HETATM    3  C8  UNL     1      -6.737  12.282  21.194  1.00  0.00     0.011 C 
HETATM    4  C9  UNL     1      -6.574  12.824  19.773  1.00  0.00     0.007 C 
HETATM    5  C10 UNL     1      -5.715  11.832  19.063  1.00  0.00     0.013 C 
HETATM    6  C11 UNL     1      -5.487  10.706  20.043  1.00  0.00    -0.009 C 
HETATM    7  C12 UNL     1      -5.361   9.384  19.374  1.00  0.00     0.007 C 
HETATM    8  C13 UNL     1      -3.885   9.058  19.560  1.00  0.00     0.008 C 
HETATM    9  C14 UNL     1      -3.525   9.690  20.878  1.00  0.00     0.026 C 
HETATM   10  C15 UNL     1      -4.223  11.011  20.806  1.00  0.00     0.093 C 
HETATM   11  C16 UNL     1      -6.220   8.297  19.865  1.00  0.00     0.045 C 
HETATM   12  C19 UNL     1      -7.498   8.585  20.550  1.00  0.00     0.155 C 
HETATM   13  C20 UNL     1      -7.814  10.056  20.701  1.00  0.00     0.152 C 
HETATM   14  C21 UNL     1      -6.592  10.767  21.077  1.00  0.00     0.033 C 
ENDROOT
BRANCH   1  15
HETATM   15  C6  UNL     1      -3.481  11.963  22.941  1.00  0.00     0.093 C 
BRANCH  15  16
HETATM   16  C2  UNL     1      -3.394  11.237  24.208  1.00  0.00     0.189 C 
BRANCH  16  17
HETATM   17  O1  UNL     1      -2.578  10.168  24.309  1.00  0.00    -0.383 OA
HETATM   18  C1  UNL     1      -1.307  10.137  23.862  1.00  0.00     0.202 C 
ENDBRANCH  16  17
BRANCH  16  19
HETATM   19  C3  UNL     1      -2.795  12.353  25.213  1.00  0.00     0.259 C 
BRANCH  19  20
HETATM   20  N1  UNL     1      -3.710  13.368  25.413  1.00  0.00    -0.411 NA
HETATM   21  C4  UNL     1      -4.616  14.346  25.599  1.00  0.00     0.300 C 
HETATM   22  O2  UNL     1      -5.839  14.355  25.227  1.00  0.00    -0.256 OA
BRANCH  21  23
HETATM   23  C5  UNL     1      -4.250  15.639  26.329  1.00  0.00     0.233 C 
HETATM   24 CL1  UNL     1      -3.821  16.877  25.152  1.00  0.00    -0.119 Cl
ENDBRANCH  21  23
ENDBRANCH  19  20
ENDBRANCH  16  19
ENDBRANCH  15  16
ENDBRANCH   1  15
BRANCH  13  25
HETATM   25  O4  UNL     1      -8.508  10.538  19.613  1.00  0.00    -0.393 OA
ATOM     26  H4  UNL     1      -8.957   9.843  19.149  1.00  0.00     0.210 HD
ENDBRANCH  13  25
BRANCH  11  27
HETATM   27  C17 UNL     1      -6.555   7.448  18.660  1.00  0.00    -0.012 C 
HETATM   28  C18 UNL     1      -5.990   6.297  18.419  1.00  0.00     0.052 C 
HETATM   29 BR1  UNL     1      -6.401   5.217  16.912  1.00  0.00    -0.064 Br
ENDBRANCH  11  27
BRANCH  12  30
HETATM   30  O3  UNL     1      -7.516   8.023  21.829  1.00  0.00    -0.392 OA
ATOM     31  H3  UNL     1      -7.191   8.639  22.475  1.00  0.00     0.210 HD
ENDBRANCH  12  30
TORSDOF 9
ENDMDL
MODEL 5
REMARK VINA RESULT: -7.499139156      4.259      7.638
REMARK  9 active torsions:
REMARK  status: ('A' for Active; 'I' for Inactive)
REMARK    1  A    between atoms: O1_2  and  C2_3 
REMARK    2  A    between atoms: C2_3  and  C3_4 
REMARK    3  A    between atoms: C2_3  and  C6_10 
REMARK    4  A    between atoms: C3_4  and  N1_5 
REMARK       I    between atoms: N1_5  and  C4_6 
REMARK    5  A    between atoms: C4_6  and  C5_8 
REMARK    6  A    between atoms: C6_10  and  N2_11 
REMARK    7  A    between atoms: C16_21  and  C17_22 
REMARK    8  A    between atoms: C19_25  and  O3_26 
REMARK    9  A    between atoms: C20_28  and  O4_29 
ROOT
HETATM    1  N2  UNL     1      -3.959  10.085  20.302  1.00  0.00    -0.385 N 
HETATM    2  C7  UNL     1      -2.602   9.668  20.077  1.00  0.00     0.127 C 
HETATM    3  C8  UNL     1      -1.634  10.178  21.154  1.00  0.00     0.011 C 
HETATM    4  C9  UNL     1      -0.958  11.413  20.559  1.00  0.00     0.007 C 
HETATM    5  C10 UNL     1      -1.917  12.536  20.771  1.00  0.00     0.013 C 
HETATM    6  C11 UNL     1      -3.065  11.955  21.561  1.00  0.00    -0.009 C 
HETATM    7  C12 UNL     1      -3.679  12.943  22.488  1.00  0.00     0.007 C 
HETATM    8  C13 UNL     1      -5.031  13.210  21.840  1.00  0.00     0.008 C 
HETATM    9  C14 UNL     1      -5.396  11.904  21.186  1.00  0.00     0.026 C 
HETATM   10  C15 UNL     1      -4.100  11.471  20.578  1.00  0.00     0.093 C 
HETATM   11  C16 UNL     1      -3.823  12.545  23.896  1.00  0.00     0.045 C 
HETATM   12  C19 UNL     1      -2.941  11.520  24.493  1.00  0.00     0.155 C 
HETATM   13  C20 UNL     1      -1.923  10.934  23.542  1.00  0.00     0.152 C 
HETATM   14  C21 UNL     1      -2.563  10.701  22.246  1.00  0.00     0.033 C 
ENDROOT
BRANCH   1  15
HETATM   15  C6  UNL     1      -4.853   9.414  19.475  1.00  0.00     0.093 C 
BRANCH  15  16
HETATM   16  C2  UNL     1      -5.646   8.311  20.017  1.00  0.00     0.189 C 
BRANCH  16  17
HETATM   17  O1  UNL     1      -6.359   8.493  21.147  1.00  0.00    -0.383 OA
HETATM   18  C1  UNL     1      -7.705   8.518  21.200  1.00  0.00     0.202 C 
ENDBRANCH  16  17
BRANCH  16  19
HETATM   19  C3  UNL     1      -6.727   8.046  18.845  1.00  0.00     0.259 C 
BRANCH  19  20
HETATM   20  N1  UNL     1      -6.496   6.828  18.236  1.00  0.00    -0.411 NA
HETATM   21  C4  UNL     1      -6.265   5.632  17.661  1.00  0.00     0.300 C 
HETATM   22  O2  UNL     1      -5.797   4.580  18.215  1.00  0.00    -0.256 OA
BRANCH  21  23
HETATM   23  C5  UNL     1      -6.562   5.394  16.180  1.00  0.00     0.233 C 
HETATM   24 CL1  UNL     1      -7.424   3.870  15.991  1.00  0.00    -0.119 Cl
ENDBRANCH  21  23
ENDBRANCH  19  20
ENDBRANCH  16  19
ENDBRANCH  15  16
ENDBRANCH   1  15
BRANCH  13  25
HETATM   25  O4  UNL     1      -0.755  11.664  23.539  1.00  0.00    -0.393 OA
ATOM     26  H4  UNL     1      -0.130  11.319  22.913  1.00  0.00     0.210 HD
ENDBRANCH  13  25
BRANCH  11  27
HETATM   27  C17 UNL     1      -3.638  13.804  24.711  1.00  0.00    -0.012 C 
HETATM   28  C18 UNL     1      -4.633  14.474  25.225  1.00  0.00     0.052 C 
HETATM   29 BR1  UNL     1      -4.418  16.057  26.253  1.00  0.00    -0.064 Br
ENDBRANCH  11  27
BRANCH  12  30
HETATM   30  O3  UNL     1      -3.690  10.457  25.007  1.00  0.00    -0.392 OA
ATOM     31  H3  UNL     1      -3.650  10.443  25.956  1.00  0.00     0.210 HD
ENDBRANCH  12  30
TORSDOF 9
ENDMDL
