MODEL 1
REMARK VINA RESULT: -6.814555313      0.000      0.000
REMARK  7 active torsions:
REMARK  status: ('A' for Active; 'I' for Inactive)
REMARK    1  A    between atoms: N1_2  and  C2_3 
REMARK    2  A    between atoms: N1_2  and  C8_11 
REMARK    3  A    between atoms: C2_3  and  C3_4 
REMARK    4  A    between atoms: C3_4  and  N2_5 
REMARK    5  A    between atoms: C12_17  and  O2_18 
REMARK    6  A    between atoms: C13_20  and  C14_21 
REMARK    7  A    between atoms: N3_22  and  N4_24 
ROOT
HETATM    1  C8  UNL     1      -3.335  10.383  21.142  1.00  0.00     0.045 A 
HETATM    2  C9  UNL     1      -3.595   9.368  20.227  1.00  0.00     0.051 A 
HETATM    3  C10 UNL     1      -4.872   9.015  19.849  1.00  0.00     0.033 A 
HETATM    4 BR1  UNL     1      -5.210   7.624  18.593  1.00  0.00    -0.050 Br
HETATM    5  C11 UNL     1      -5.954   9.678  20.385  1.00  0.00     0.062 A 
HETATM    6 BR2  UNL     1      -7.751   9.215  19.883  1.00  0.00    -0.047 Br
HETATM    7  C12 UNL     1      -5.712  10.684  21.292  1.00  0.00     0.098 A 
HETATM    8  C13 UNL     1      -4.415  11.043  21.675  1.00  0.00     0.042 A 
ENDROOT
BRANCH   1   9
HETATM    9  N1  UNL     1      -2.008  10.707  21.525  1.00  0.00    -0.383 N 
HETATM   10  C1  UNL     1      -1.316  11.742  20.786  1.00  0.00     0.150 C 
BRANCH   9  11
HETATM   11  C2  UNL     1      -1.298  10.065  22.610  1.00  0.00     0.141 C 
BRANCH  11  12
HETATM   12  C3  UNL     1      -1.051  11.052  23.703  1.00  0.00     0.136 C 
BRANCH  12  13
HETATM   13  N2  UNL     1      -1.010  10.491  25.009  1.00  0.00    -0.407 N 
HETATM   14  C4  UNL     1      -2.086  10.789  25.883  1.00  0.00     0.143 C 
HETATM   15  C5  UNL     1      -2.413   9.535  26.699  1.00  0.00     0.187 C 
HETATM   16  O1  UNL     1      -1.250   9.212  27.390  1.00  0.00    -0.388 OA
HETATM   17  C6  UNL     1      -0.181   8.897  26.591  1.00  0.00     0.187 C 
HETATM   18  C7  UNL     1      -0.427   9.201  25.125  1.00  0.00     0.143 C 
ENDBRANCH  12  13
ENDBRANCH  11  12
ENDBRANCH   9  11
ENDBRANCH   1   9
BRANCH   8  19
HETATM   19  C14 UNL     1      -4.238  12.136  22.623  1.00  0.00     0.123 C 
HETATM   20  N3  UNL     1      -4.746  12.127  23.817  1.00  0.00    -0.309 N 
ATOM     21  H3  UNL     1      -5.297  11.322  24.115  1.00  0.00     0.186 HD
BRANCH  20  22
HETATM   22  N4  UNL     1      -4.558  13.191  24.705  1.00  0.00    -0.276 N 
HETATM   23  C15 UNL     1      -5.477  14.019  25.025  1.00  0.00     0.215 C 
HETATM   24  N5  UNL     1      -5.247  15.078  25.921  1.00  0.00    -0.065 NA
HETATM   25  N6  UNL     1      -6.767  13.857  24.458  1.00  0.00    -0.065 NA
ATOM     26  H4  UNL     1      -3.634  13.314  25.120  1.00  0.00     0.189 HD
ENDBRANCH  20  22
ENDBRANCH   8  19
BRANCH   7  27
HETATM   27  O2  UNL     1      -6.805  11.358  21.834  1.00  0.00    -0.358 OA
ATOM     28  H2  UNL     1      -6.799  12.308  21.817  1.00  0.00     0.217 HD
ENDBRANCH   7  27
TORSDOF 7
ENDMDL
MODEL 2
REMARK VINA RESULT: -6.699245210      3.006      4.622
REMARK  7 active torsions:
REMARK  status: ('A' for Active; 'I' for Inactive)
REMARK    1  A    between atoms: N1_2  and  C2_3 
REMARK    2  A    between atoms: N1_2  and  C8_11 
REMARK    3  A    between atoms: C2_3  and  C3_4 
REMARK    4  A    between atoms: C3_4  and  N2_5 
REMARK    5  A    between atoms: C12_17  and  O2_18 
REMARK    6  A    between atoms: C13_20  and  C14_21 
REMARK    7  A    between atoms: N3_22  and  N4_24 
ROOT
HETATM    1  C8  UNL     1      -4.044   9.601  19.584  1.00  0.00     0.045 A 
HETATM    2  C9  UNL     1      -4.640   8.345  19.523  1.00  0.00     0.051 A 
HETATM    3  C10 UNL     1      -5.539   7.994  18.539  1.00  0.00     0.033 A 
HETATM    4 BR1  UNL     1      -6.343   6.270  18.470  1.00  0.00    -0.050 Br
HETATM    5  C11 UNL     1      -5.879   8.905  17.564  1.00  0.00     0.062 A 
HETATM    6 BR2  UNL     1      -7.128   8.453  16.175  1.00  0.00    -0.047 Br
HETATM    7  C12 UNL     1      -5.297  10.151  17.612  1.00  0.00     0.098 A 
HETATM    8  C13 UNL     1      -4.384  10.508  18.610  1.00  0.00     0.042 A 
ENDROOT
BRANCH   1   9
HETATM    9  N1  UNL     1      -3.139   9.938  20.623  1.00  0.00    -0.383 N 
HETATM   10  C1  UNL     1      -1.720   9.807  20.363  1.00  0.00     0.150 C 
BRANCH   9  11
HETATM   11  C2  UNL     1      -3.544  10.402  21.932  1.00  0.00     0.141 C 
BRANCH  11  12
HETATM   12  C3  UNL     1      -2.366  10.977  22.648  1.00  0.00     0.136 C 
BRANCH  12  13
HETATM   13  N2  UNL     1      -2.121  10.416  23.932  1.00  0.00    -0.407 N 
HETATM   14  C4  UNL     1      -0.996   9.565  24.070  1.00  0.00     0.143 C 
HETATM   15  C5  UNL     1      -0.345   9.833  25.429  1.00  0.00     0.187 C 
HETATM   16  O1  UNL     1      -1.323   9.568  26.382  1.00  0.00    -0.388 OA
HETATM   17  C6  UNL     1      -2.428  10.378  26.305  1.00  0.00     0.187 C 
HETATM   18  C7  UNL     1      -2.453  11.228  25.049  1.00  0.00     0.143 C 
ENDBRANCH  12  13
ENDBRANCH  11  12
ENDBRANCH   9  11
ENDBRANCH   1   9
BRANCH   8  19
HETATM   19  C14 UNL     1      -3.792  11.840  18.580  1.00  0.00     0.123 C 
HETATM   20  N3  UNL     1      -2.907  12.202  17.704  1.00  0.00    -0.309 N 
ATOM     21  H3  UNL     1      -2.604  11.531  16.998  1.00  0.00     0.186 HD
BRANCH  20  22
HETATM   22  N4  UNL     1      -2.357  13.489  17.701  1.00  0.00    -0.276 N 
HETATM   23  C15 UNL     1      -1.409  13.854  16.928  1.00  0.00     0.215 C 
HETATM   24  N5  UNL     1      -0.882  15.157  16.957  1.00  0.00    -0.065 NA
HETATM   25  N6  UNL     1      -0.877  12.910  16.011  1.00  0.00    -0.065 NA
ATOM     26  H4  UNL     1      -2.736  14.174  18.355  1.00  0.00     0.189 HD
ENDBRANCH  20  22
ENDBRANCH   8  19
BRANCH   7  27
HETATM   27  O2  UNL     1      -5.638  11.074  16.625  1.00  0.00    -0.358 OA
ATOM     28  H2  UNL     1      -5.225  11.929  16.648  1.00  0.00     0.217 HD
ENDBRANCH   7  27
TORSDOF 7
ENDMDL
MODEL 3
REMARK VINA RESULT: -6.698133767      3.266      4.943
REMARK  7 active torsions:
REMARK  status: ('A' for Active; 'I' for Inactive)
REMARK    1  A    between atoms: N1_2  and  C2_3 
REMARK    2  A    between atoms: N1_2  and  C8_11 
REMARK    3  A    between atoms: C2_3  and  C3_4 
REMARK    4  A    between atoms: C3_4  and  N2_5 
REMARK    5  A    between atoms: C12_17  and  O2_18 
REMARK    6  A    between atoms: C13_20  and  C14_21 
REMARK    7  A    between atoms: N3_22  and  N4_24 
ROOT
HETATM    1  C8  UNL     1      -4.418   9.401  19.293  1.00  0.00     0.045 A 
HETATM    2  C9  UNL     1      -4.865   8.084  19.277  1.00  0.00     0.051 A 
HETATM    3  C10 UNL     1      -5.660   7.579  18.271  1.00  0.00     0.033 A 
HETATM    4 BR1  UNL     1      -6.262   5.773  18.265  1.00  0.00    -0.050 Br
HETATM    5  C11 UNL     1      -6.042   8.391  17.226  1.00  0.00     0.062 A 
HETATM    6 BR2  UNL     1      -7.149   7.724  15.804  1.00  0.00    -0.047 Br
HETATM    7  C12 UNL     1      -5.607   9.696  17.228  1.00  0.00     0.098 A 
HETATM    8  C13 UNL     1      -4.799  10.209  18.250  1.00  0.00     0.042 A 
ENDROOT
BRANCH   1   9
HETATM    9  N1  UNL     1      -3.619   9.895  20.356  1.00  0.00    -0.383 N 
HETATM   10  C1  UNL     1      -2.179   9.841  20.211  1.00  0.00     0.150 C 
BRANCH   9  11
HETATM   11  C2  UNL     1      -4.152  10.449  21.581  1.00  0.00     0.141 C 
BRANCH  11  12
HETATM   12  C3  UNL     1      -3.592  11.816  21.801  1.00  0.00     0.136 C 
BRANCH  12  13
HETATM   13  N2  UNL     1      -3.079  12.044  23.107  1.00  0.00    -0.407 N 
HETATM   14  C4  UNL     1      -3.637  13.114  23.852  1.00  0.00     0.143 C 
HETATM   15  C5  UNL     1      -3.753  12.681  25.316  1.00  0.00     0.187 C 
HETATM   16  O1  UNL     1      -2.462  12.372  25.729  1.00  0.00    -0.388 OA
HETATM   17  C6  UNL     1      -1.881  11.330  25.053  1.00  0.00     0.187 C 
HETATM   18  C7  UNL     1      -2.679  10.894  23.838  1.00  0.00     0.143 C 
ENDBRANCH  12  13
ENDBRANCH  11  12
ENDBRANCH   9  11
ENDBRANCH   1   9
BRANCH   8  19
HETATM   19  C14 UNL     1      -4.358  11.597  18.170  1.00  0.00     0.123 C 
HETATM   20  N3  UNL     1      -3.561  12.034  17.246  1.00  0.00    -0.309 N 
ATOM     21  H3  UNL     1      -3.220  11.385  16.536  1.00  0.00     0.186 HD
BRANCH  20  22
HETATM   22  N4  UNL     1      -3.155  13.372  17.196  1.00  0.00    -0.276 N 
HETATM   23  C15 UNL     1      -1.989  13.748  16.836  1.00  0.00     0.215 C 
HETATM   24  N5  UNL     1      -1.619  15.104  16.801  1.00  0.00    -0.065 NA
HETATM   25  N6  UNL     1      -1.042  12.760  16.459  1.00  0.00    -0.065 NA
ATOM     26  H4  UNL     1      -3.830  14.089  17.463  1.00  0.00     0.189 HD
ENDBRANCH  20  22
ENDBRANCH   8  19
BRANCH   7  27
HETATM   27  O2  UNL     1      -5.989  10.519  16.171  1.00  0.00    -0.358 OA
ATOM     28  H2  UNL     1      -6.817  10.980  16.238  1.00  0.00     0.217 HD
ENDBRANCH   7  27
TORSDOF 7
ENDMDL
MODEL 4
REMARK VINA RESULT: -6.621888518      3.192      4.942
REMARK  7 active torsions:
REMARK  status: ('A' for Active; 'I' for Inactive)
REMARK    1  A    between atoms: N1_2  and  C2_3 
REMARK    2  A    between atoms: N1_2  and  C8_11 
REMARK    3  A    between atoms: C2_3  and  C3_4 
REMARK    4  A    between atoms: C3_4  and  N2_5 
REMARK    5  A    between atoms: C12_17  and  O2_18 
REMARK    6  A    between atoms: C13_20  and  C14_21 
REMARK    7  A    between atoms: N3_22  and  N4_24 
ROOT
HETATM    1  C8  UNL     1      -4.613   9.176  19.205  1.00  0.00     0.045 A 
HETATM    2  C9  UNL     1      -4.976   7.833  19.208  1.00  0.00     0.051 A 
HETATM    3  C10 UNL     1      -5.729   7.263  18.204  1.00  0.00     0.033 A 
HETATM    4 BR1  UNL     1      -6.215   5.422  18.222  1.00  0.00    -0.050 Br
HETATM    5  C11 UNL     1      -6.152   8.032  17.142  1.00  0.00     0.062 A 
HETATM    6 BR2  UNL     1      -7.202   7.274  15.723  1.00  0.00    -0.047 Br
HETATM    7  C12 UNL     1      -5.800   9.362  17.127  1.00  0.00     0.098 A 
HETATM    8  C13 UNL     1      -5.035   9.941  18.146  1.00  0.00     0.042 A 
ENDROOT
BRANCH   1   9
HETATM    9  N1  UNL     1      -3.855   9.736  20.266  1.00  0.00    -0.383 N 
HETATM   10  C1  UNL     1      -2.416   9.806  20.116  1.00  0.00     0.150 C 
BRANCH   9  11
HETATM   11  C2  UNL     1      -4.430  10.241  21.493  1.00  0.00     0.141 C 
BRANCH  11  12
HETATM   12  C3  UNL     1      -3.737  11.503  21.891  1.00  0.00     0.136 C 
BRANCH  12  13
HETATM   13  N2  UNL     1      -3.374  11.573  23.264  1.00  0.00    -0.407 N 
HETATM   14  C4  UNL     1      -2.368  10.683  23.721  1.00  0.00     0.143 C 
HETATM   15  C5  UNL     1      -1.483  11.423  24.727  1.00  0.00     0.187 C 
HETATM   16  O1  UNL     1      -2.326  11.832  25.754  1.00  0.00    -0.388 OA
HETATM   17  C6  UNL     1      -3.307  12.710  25.369  1.00  0.00     0.187 C 
HETATM   18  C7  UNL     1      -3.411  12.860  23.863  1.00  0.00     0.143 C 
ENDBRANCH  12  13
ENDBRANCH  11  12
ENDBRANCH   9  11
ENDBRANCH   1   9
BRANCH   8  19
HETATM   19  C14 UNL     1      -4.682  11.353  18.047  1.00  0.00     0.123 C 
HETATM   20  N3  UNL     1      -3.813  11.807  17.198  1.00  0.00    -0.309 N 
ATOM     21  H3  UNL     1      -3.349  11.155  16.566  1.00  0.00     0.186 HD
BRANCH  20  22
HETATM   22  N4  UNL     1      -3.496  13.168  17.127  1.00  0.00    -0.276 N 
HETATM   23  C15 UNL     1      -2.305  13.624  17.201  1.00  0.00     0.215 C 
HETATM   24  N5  UNL     1      -2.027  15.000  17.128  1.00  0.00    -0.065 NA
HETATM   25  N6  UNL     1      -1.233  12.707  17.360  1.00  0.00    -0.065 NA
ATOM     26  H4  UNL     1      -4.259  13.834  17.011  1.00  0.00     0.189 HD
ENDBRANCH  20  22
ENDBRANCH   8  19
BRANCH   7  27
HETATM   27  O2  UNL     1      -6.225  10.142  16.053  1.00  0.00    -0.358 OA
ATOM     28  H2  UNL     1      -6.034  11.073  16.071  1.00  0.00     0.217 HD
ENDBRANCH   7  27
TORSDOF 7
ENDMDL
MODEL 5
REMARK VINA RESULT: -6.570881224      3.247      4.792
REMARK  7 active torsions:
REMARK  status: ('A' for Active; 'I' for Inactive)
REMARK    1  A    between atoms: N1_2  and  C2_3 
REMARK    2  A    between atoms: N1_2  and  C8_11 
REMARK    3  A    between atoms: C2_3  and  C3_4 
REMARK    4  A    between atoms: C3_4  and  N2_5 
REMARK    5  A    between atoms: C12_17  and  O2_18 
REMARK    6  A    between atoms: C13_20  and  C14_21 
REMARK    7  A    between atoms: N3_22  and  N4_24 
ROOT
HETATM    1  C8  UNL     1      -3.845  12.296  22.821  1.00  0.00     0.045 A 
HETATM    2  C9  UNL     1      -3.728  13.180  23.888  1.00  0.00     0.051 A 
HETATM    3  C10 UNL     1      -4.803  13.874  24.402  1.00  0.00     0.033 A 
HETATM    4 BR1  UNL     1      -4.625  15.079  25.865  1.00  0.00    -0.050 Br
HETATM    5  C11 UNL     1      -6.055  13.703  23.854  1.00  0.00     0.062 A 
HETATM    6 BR2  UNL     1      -7.577  14.652  24.543  1.00  0.00    -0.047 Br
HETATM    7  C12 UNL     1      -6.185  12.832  22.797  1.00  0.00     0.098 A 
HETATM    8  C13 UNL     1      -5.095  12.126  22.276  1.00  0.00     0.042 A 
ENDROOT
BRANCH   1   9
HETATM    9  N1  UNL     1      -2.714  11.614  22.302  1.00  0.00    -0.383 N 
HETATM   10  C1  UNL     1      -1.957  12.252  21.246  1.00  0.00     0.150 C 
BRANCH   9  11
HETATM   11  C2  UNL     1      -2.269  10.316  22.761  1.00  0.00     0.141 C 
BRANCH  11  12
HETATM   12  C3  UNL     1      -1.196  10.486  23.785  1.00  0.00     0.136 C 
BRANCH  12  13
HETATM   13  N2  UNL     1      -1.398   9.750  24.984  1.00  0.00    -0.407 N 
HETATM   14  C4  UNL     1      -0.412   8.795  25.341  1.00  0.00     0.143 C 
HETATM   15  C5  UNL     1      -0.223   8.834  26.859  1.00  0.00     0.187 C 
HETATM   16  O1  UNL     1      -1.464   8.534  27.410  1.00  0.00    -0.388 OA
HETATM   17  C6  UNL     1      -2.452   9.438  27.111  1.00  0.00     0.187 C 
HETATM   18  C7  UNL     1      -2.038  10.439  26.049  1.00  0.00     0.143 C 
ENDBRANCH  12  13
ENDBRANCH  11  12
ENDBRANCH   9  11
ENDBRANCH   1   9
BRANCH   8  19
HETATM   19  C14 UNL     1      -5.316  11.202  21.170  1.00  0.00     0.123 C 
HETATM   20  N3  UNL     1      -6.052  10.139  21.273  1.00  0.00    -0.309 N 
ATOM     21  H3  UNL     1      -6.501   9.930  22.165  1.00  0.00     0.186 HD
BRANCH  20  22
HETATM   22  N4  UNL     1      -6.246   9.271  20.193  1.00  0.00    -0.276 N 
HETATM   23  C15 UNL     1      -7.032   8.265  20.223  1.00  0.00     0.215 C 
HETATM   24  N5  UNL     1      -7.198   7.415  19.115  1.00  0.00    -0.065 NA
HETATM   25  N6  UNL     1      -7.759   8.004  21.414  1.00  0.00    -0.065 NA
ATOM     26  H4  UNL     1      -5.730   9.453  19.332  1.00  0.00     0.189 HD
ENDBRANCH  20  22
ENDBRANCH   8  19
BRANCH   7  27
HETATM   27  O2  UNL     1      -7.452  12.655  22.243  1.00  0.00    -0.358 OA
ATOM     28  H2  UNL     1      -7.767  11.768  22.119  1.00  0.00     0.217 HD
ENDBRANCH   7  27
TORSDOF 7
ENDMDL
