MODEL 1
REMARK VINA RESULT: -8.766529867      0.000      0.000
REMARK  9 active torsions:
REMARK  status: ('A' for Active; 'I' for Inactive)
REMARK    1  A    between atoms: C4_5  and  N2_6 
REMARK    2  A    between atoms: N2_6  and  C5_8 
REMARK    3  A    between atoms: C7_12  and  N4_13 
REMARK    4  A    between atoms: N4_13  and  C8_15 
REMARK    5  A    between atoms: C8_15  and  O1_16 
REMARK    6  A    between atoms: C9_18  and  N5_19 
REMARK    7  A    between atoms: C15_26  and  C16_27 
REMARK    8  A    between atoms: C16_27  and  C17_28 
REMARK    9  A    between atoms: C17_28  and  C18_29 
ROOT
HETATM    1  C5  UNL     1      -3.812  12.176  24.784  1.00  0.00     0.678 A 
HETATM    2  N3  UNL     1      -3.417  11.712  23.586  1.00  0.00    -0.186 N 
ATOM      3  H3  UNL     1      -3.917  11.976  22.738  1.00  0.00     0.184 HD
HETATM    4  C6  UNL     1      -2.329  10.876  23.522  1.00  0.00     0.124 A 
HETATM    5  C7  UNL     1      -1.760  10.274  22.433  1.00  0.00     0.152 A 
HETATM    6  N6  UNL     1      -0.711   9.530  22.921  1.00  0.00    -0.283 N 
ATOM      7  H6  UNL     1      -0.077   8.954  22.368  1.00  0.00     0.188 HD
HETATM    8  N7  UNL     1      -0.667   9.692  24.227  1.00  0.00    -0.295 N 
ATOM      9  H7  UNL     1       0.021   9.252  24.838  1.00  0.00     0.187 HD
HETATM   10  C19 UNL     1      -1.641  10.512  24.651  1.00  0.00     0.095 A 
HETATM   11  C20 UNL     1      -2.052  10.993  25.877  1.00  0.00     0.139 A 
HETATM   12  N8  UNL     1      -3.112  11.797  25.873  1.00  0.00    -0.200 N 
ATOM     13  H8  UNL     1      -3.423  12.160  26.774  1.00  0.00     0.183 HD
ENDROOT
BRANCH   5  14
HETATM   14  N4  UNL     1      -2.121  10.385  21.190  1.00  0.00    -0.320 N 
ATOM     15  H4  UNL     1      -1.440  10.735  20.516  1.00  0.00     0.169 HD
BRANCH  14  16
HETATM   16  C8  UNL     1      -3.317  10.069  20.762  1.00  0.00     0.152 C 
HETATM   17  C9  UNL     1      -4.588   9.734  20.305  1.00  0.00     0.116 C 
BRANCH  16  18
HETATM   18  O1  UNL     1      -2.837  10.527  19.312  1.00  0.00    -0.345 OA
ATOM     19  H1  UNL     1      -3.337  11.324  19.447  1.00  0.00     0.219 HD
ENDBRANCH  16  18
BRANCH  17  20
HETATM   20  N5  UNL     1      -5.093   9.850  18.994  1.00  0.00    -0.284 NA
HETATM   21  C10 UNL     1      -5.850  11.065  18.711  1.00  0.00     0.097 C 
HETATM   22  C11 UNL     1      -6.969  11.248  19.689  1.00  0.00     0.040 C 
HETATM   23  C12 UNL     1      -7.947  10.128  19.460  1.00  0.00     0.036 C 
HETATM   24  C13 UNL     1      -9.064  10.182  20.499  1.00  0.00     0.033 C 
HETATM   25 CL1  UNL     1      -8.714  10.296  17.858  1.00  0.00    -0.119 Cl
HETATM   26  C14 UNL     1      -7.258   8.806  19.518  1.00  0.00     0.045 C 
HETATM   27  C15 UNL     1      -6.030   8.746  18.707  1.00  0.00     0.064 C 
BRANCH  27  28
HETATM   28  C16 UNL     1      -5.404   7.411  18.718  1.00  0.00     0.022 C 
BRANCH  28  29
HETATM   29  C17 UNL     1      -6.502   6.350  18.526  1.00  0.00     0.033 C 
BRANCH  29  30
HETATM   30  C18 UNL     1      -5.828   5.051  18.069  1.00  0.00     0.222 C 
HETATM   31  F1  UNL     1      -6.687   4.023  18.357  1.00  0.00    -0.255 F 
ENDBRANCH  29  30
ENDBRANCH  28  29
ENDBRANCH  27  28
ENDBRANCH  17  20
ENDBRANCH  14  16
ENDBRANCH   5  14
BRANCH   1  32
HETATM   32  N2  UNL     1      -4.854  12.929  24.924  1.00  0.00    -0.221 N 
ATOM     33  H2  UNL     1      -5.746  12.529  24.629  1.00  0.00     0.178 HD
BRANCH  32  34
HETATM   34  C4  UNL     1      -4.895  14.263  25.448  1.00  0.00     0.102 C 
HETATM   35  C3  UNL     1      -6.282  14.799  25.470  1.00  0.00     0.056 C 
HETATM   36  C2  UNL     1      -6.590  15.880  24.496  1.00  0.00     0.274 C 
HETATM   37  N1  UNL     1      -5.898  15.874  23.257  1.00  0.00     0.084 N 
HETATM   38  C1  UNL     1      -5.746  17.246  22.796  1.00  0.00     0.309 C 
HETATM   39  C22 UNL     1      -4.684  15.135  23.171  1.00  0.00     0.274 C 
HETATM   40  C21 UNL     1      -4.006  15.100  24.522  1.00  0.00     0.056 C 
ENDBRANCH  32  34
ENDBRANCH   1  32
TORSDOF 9
ENDMDL
MODEL 2
REMARK VINA RESULT: -8.754838168      0.761      1.203
REMARK  9 active torsions:
REMARK  status: ('A' for Active; 'I' for Inactive)
REMARK    1  A    between atoms: C4_5  and  N2_6 
REMARK    2  A    between atoms: N2_6  and  C5_8 
REMARK    3  A    between atoms: C7_12  and  N4_13 
REMARK    4  A    between atoms: N4_13  and  C8_15 
REMARK    5  A    between atoms: C8_15  and  O1_16 
REMARK    6  A    between atoms: C9_18  and  N5_19 
REMARK    7  A    between atoms: C15_26  and  C16_27 
REMARK    8  A    between atoms: C16_27  and  C17_28 
REMARK    9  A    between atoms: C17_28  and  C18_29 
ROOT
HETATM    1  C5  UNL     1      -3.988  12.006  24.666  1.00  0.00     0.678 A 
HETATM    2  N3  UNL     1      -3.528  11.518  23.501  1.00  0.00    -0.186 N 
ATOM      3  H3  UNL     1      -4.016  11.716  22.628  1.00  0.00     0.184 HD
HETATM    4  C6  UNL     1      -2.390  10.748  23.505  1.00  0.00     0.124 A 
HETATM    5  C7  UNL     1      -1.753  10.138  22.460  1.00  0.00     0.152 A 
HETATM    6  N6  UNL     1      -0.677   9.480  23.010  1.00  0.00    -0.283 N 
ATOM      7  H6  UNL     1       0.008   8.921  22.501  1.00  0.00     0.188 HD
HETATM    8  N7  UNL     1      -0.684   9.698  24.308  1.00  0.00    -0.295 N 
ATOM      9  H7  UNL     1       0.008   9.325  24.958  1.00  0.00     0.187 HD
HETATM   10  C19 UNL     1      -1.718  10.473  24.668  1.00  0.00     0.095 A 
HETATM   11  C20 UNL     1      -2.196  10.978  25.859  1.00  0.00     0.139 A 
HETATM   12  N8  UNL     1      -3.302  11.715  25.790  1.00  0.00    -0.200 N 
ATOM     13  H8  UNL     1      -3.663  12.095  26.666  1.00  0.00     0.183 HD
ENDROOT
BRANCH   5  14
HETATM   14  N4  UNL     1      -2.080  10.176  21.204  1.00  0.00    -0.320 N 
ATOM     15  H4  UNL     1      -1.360  10.418  20.521  1.00  0.00     0.169 HD
BRANCH  14  16
HETATM   16  C8  UNL     1      -3.288   9.917  20.771  1.00  0.00     0.152 C 
HETATM   17  C9  UNL     1      -4.572   9.643  20.310  1.00  0.00     0.116 C 
BRANCH  16  18
HETATM   18  O1  UNL     1      -2.824  10.493  19.358  1.00  0.00    -0.345 OA
ATOM     19  H1  UNL     1      -2.889   9.605  19.025  1.00  0.00     0.219 HD
ENDBRANCH  16  18
BRANCH  17  20
HETATM   20  N5  UNL     1      -5.096   9.882  19.023  1.00  0.00    -0.284 NA
HETATM   21  C10 UNL     1      -5.859  11.116  18.867  1.00  0.00     0.097 C 
HETATM   22  C11 UNL     1      -6.964  11.203  19.875  1.00  0.00     0.040 C 
HETATM   23  C12 UNL     1      -7.943  10.107  19.555  1.00  0.00     0.036 C 
HETATM   24  C13 UNL     1      -9.045  10.059  20.611  1.00  0.00     0.033 C 
HETATM   25 CL1  UNL     1      -8.735  10.424  17.988  1.00  0.00    -0.119 Cl
HETATM   26  C14 UNL     1      -7.251   8.788  19.478  1.00  0.00     0.045 C 
HETATM   27  C15 UNL     1      -6.036   8.808  18.647  1.00  0.00     0.064 C 
BRANCH  27  28
HETATM   28  C16 UNL     1      -5.409   7.479  18.522  1.00  0.00     0.022 C 
BRANCH  28  29
HETATM   29  C17 UNL     1      -6.515   6.410  18.499  1.00  0.00     0.033 C 
BRANCH  29  30
HETATM   30  C18 UNL     1      -5.876   5.077  18.096  1.00  0.00     0.222 C 
HETATM   31  F1  UNL     1      -6.762   4.084  18.425  1.00  0.00    -0.255 F 
ENDBRANCH  29  30
ENDBRANCH  28  29
ENDBRANCH  27  28
ENDBRANCH  17  20
ENDBRANCH  14  16
ENDBRANCH   5  14
BRANCH   1  32
HETATM   32  N2  UNL     1      -5.077  12.699  24.743  1.00  0.00    -0.221 N 
ATOM     33  H2  UNL     1      -5.750  12.409  25.453  1.00  0.00     0.178 HD
BRANCH  32  34
HETATM   34  C4  UNL     1      -5.444  13.829  23.941  1.00  0.00     0.102 C 
HETATM   35  C3  UNL     1      -4.257  14.650  23.580  1.00  0.00     0.056 C 
HETATM   36  C2  UNL     1      -4.152  15.983  24.232  1.00  0.00     0.274 C 
HETATM   37  N1  UNL     1      -4.690  16.128  25.537  1.00  0.00     0.084 N 
HETATM   38  C1  UNL     1      -5.153  17.498  25.704  1.00  0.00     0.309 C 
HETATM   39  C22 UNL     1      -5.651  15.173  25.976  1.00  0.00     0.274 C 
HETATM   40  C21 UNL     1      -6.426  14.641  24.791  1.00  0.00     0.056 C 
ENDBRANCH  32  34
ENDBRANCH   1  32
TORSDOF 9
ENDMDL
MODEL 3
REMARK VINA RESULT: -8.752191710      0.978      1.183
REMARK  9 active torsions:
REMARK  status: ('A' for Active; 'I' for Inactive)
REMARK    1  A    between atoms: C4_5  and  N2_6 
REMARK    2  A    between atoms: N2_6  and  C5_8 
REMARK    3  A    between atoms: C7_12  and  N4_13 
REMARK    4  A    between atoms: N4_13  and  C8_15 
REMARK    5  A    between atoms: C8_15  and  O1_16 
REMARK    6  A    between atoms: C9_18  and  N5_19 
REMARK    7  A    between atoms: C15_26  and  C16_27 
REMARK    8  A    between atoms: C16_27  and  C17_28 
REMARK    9  A    between atoms: C17_28  and  C18_29 
ROOT
HETATM    1  C5  UNL     1      -3.915  12.034  24.786  1.00  0.00     0.678 A 
HETATM    2  N3  UNL     1      -3.504  11.545  23.604  1.00  0.00    -0.186 N 
ATOM      3  H3  UNL     1      -4.026  11.743  22.751  1.00  0.00     0.184 HD
HETATM    4  C6  UNL     1      -2.368  10.772  23.562  1.00  0.00     0.124 A 
HETATM    5  C7  UNL     1      -1.775  10.160  22.493  1.00  0.00     0.152 A 
HETATM    6  N6  UNL     1      -0.679   9.500  22.999  1.00  0.00    -0.283 N 
ATOM      7  H6  UNL     1      -0.017   8.939  22.463  1.00  0.00     0.188 HD
HETATM    8  N7  UNL     1      -0.633   9.718  24.296  1.00  0.00    -0.295 N 
ATOM      9  H7  UNL     1       0.084   9.344  24.917  1.00  0.00     0.187 HD
HETATM   10  C19 UNL     1      -1.650  10.496  24.697  1.00  0.00     0.095 A 
HETATM   11  C20 UNL     1      -2.078  11.003  25.907  1.00  0.00     0.139 A 
HETATM   12  N8  UNL     1      -3.184  11.743  25.882  1.00  0.00    -0.200 N 
ATOM     13  H8  UNL     1      -3.508  12.123  26.771  1.00  0.00     0.183 HD
ENDROOT
BRANCH   5  14
HETATM   14  N4  UNL     1      -2.152  10.198  21.250  1.00  0.00    -0.320 N 
ATOM     15  H4  UNL     1      -1.465  10.453  20.541  1.00  0.00     0.169 HD
BRANCH  14  16
HETATM   16  C8  UNL     1      -3.373   9.924  20.865  1.00  0.00     0.152 C 
HETATM   17  C9  UNL     1      -4.671   9.634  20.454  1.00  0.00     0.116 C 
BRANCH  16  18
HETATM   18  O1  UNL     1      -2.982  10.534  19.445  1.00  0.00    -0.345 OA
ATOM     19  H1  UNL     1      -2.622  11.278  19.913  1.00  0.00     0.219 HD
ENDBRANCH  16  18
BRANCH  17  20
HETATM   20  N5  UNL     1      -5.255   9.886  19.196  1.00  0.00    -0.284 NA
HETATM   21  C10 UNL     1      -6.055  11.102  19.100  1.00  0.00     0.097 C 
HETATM   22  C11 UNL     1      -7.117  11.139  20.154  1.00  0.00     0.040 C 
HETATM   23  C12 UNL     1      -8.082  10.024  19.851  1.00  0.00     0.036 C 
HETATM   24  C13 UNL     1      -9.136   9.926  20.951  1.00  0.00     0.033 C 
HETATM   25 CL1  UNL     1      -8.946  10.354  18.326  1.00  0.00    -0.119 Cl
HETATM   26  C14 UNL     1      -7.361   8.726  19.716  1.00  0.00     0.045 C 
HETATM   27  C15 UNL     1      -6.182   8.795  18.836  1.00  0.00     0.064 C 
BRANCH  27  28
HETATM   28  C16 UNL     1      -5.527   7.486  18.656  1.00  0.00     0.022 C 
BRANCH  28  29
HETATM   29  C17 UNL     1      -6.613   6.412  18.467  1.00  0.00     0.033 C 
BRANCH  29  30
HETATM   30  C18 UNL     1      -5.921   5.109  18.054  1.00  0.00     0.222 C 
HETATM   31  F1  UNL     1      -6.743   4.076  18.424  1.00  0.00    -0.255 F 
ENDBRANCH  29  30
ENDBRANCH  28  29
ENDBRANCH  27  28
ENDBRANCH  17  20
ENDBRANCH  14  16
ENDBRANCH   5  14
BRANCH   1  32
HETATM   32  N2  UNL     1      -4.998  12.730  24.907  1.00  0.00    -0.221 N 
ATOM     33  H2  UNL     1      -5.777  12.277  25.385  1.00  0.00     0.178 HD
BRANCH  32  34
HETATM   34  C4  UNL     1      -5.226  14.067  24.442  1.00  0.00     0.102 C 
HETATM   35  C3  UNL     1      -6.055  14.845  25.401  1.00  0.00     0.056 C 
HETATM   36  C2  UNL     1      -7.441  15.166  24.967  1.00  0.00     0.274 C 
HETATM   37  N1  UNL     1      -8.100  14.244  24.113  1.00  0.00     0.084 N 
HETATM   38  C1  UNL     1      -9.024  14.974  23.258  1.00  0.00     0.309 C 
HETATM   39  C22 UNL     1      -7.301  13.318  23.383  1.00  0.00     0.274 C 
HETATM   40  C21 UNL     1      -5.944  13.923  23.096  1.00  0.00     0.056 C 
ENDBRANCH  32  34
ENDBRANCH   1  32
TORSDOF 9
ENDMDL
MODEL 4
REMARK VINA RESULT: -8.586408356      0.895      1.103
REMARK  9 active torsions:
REMARK  status: ('A' for Active; 'I' for Inactive)
REMARK    1  A    between atoms: C4_5  and  N2_6 
REMARK    2  A    between atoms: N2_6  and  C5_8 
REMARK    3  A    between atoms: C7_12  and  N4_13 
REMARK    4  A    between atoms: N4_13  and  C8_15 
REMARK    5  A    between atoms: C8_15  and  O1_16 
REMARK    6  A    between atoms: C9_18  and  N5_19 
REMARK    7  A    between atoms: C15_26  and  C16_27 
REMARK    8  A    between atoms: C16_27  and  C17_28 
REMARK    9  A    between atoms: C17_28  and  C18_29 
ROOT
HETATM    1  C5  UNL     1      -3.107  12.496  24.783  1.00  0.00     0.678 A 
HETATM    2  N3  UNL     1      -2.969  12.136  23.496  1.00  0.00    -0.186 N 
ATOM      3  H3  UNL     1      -3.511  12.598  22.767  1.00  0.00     0.184 HD
HETATM    4  C6  UNL     1      -2.084  11.134  23.176  1.00  0.00     0.124 A 
HETATM    5  C7  UNL     1      -1.790  10.594  21.955  1.00  0.00     0.152 A 
HETATM    6  N6  UNL     1      -0.854   9.614  22.193  1.00  0.00    -0.283 N 
ATOM      7  H6  UNL     1      -0.423   9.014  21.491  1.00  0.00     0.188 HD
HETATM    8  N7  UNL     1      -0.612   9.586  23.486  1.00  0.00    -0.295 N 
ATOM      9  H7  UNL     1       0.048   8.950  23.935  1.00  0.00     0.187 HD
HETATM   10  C19 UNL     1      -1.343  10.502  24.141  1.00  0.00     0.095 A 
HETATM   11  C20 UNL     1      -1.490  10.878  25.460  1.00  0.00     0.139 A 
HETATM   12  N8  UNL     1      -2.362  11.853  25.705  1.00  0.00    -0.200 N 
ATOM     13  H8  UNL     1      -2.477  12.139  26.677  1.00  0.00     0.183 HD
ENDROOT
BRANCH   5  14
HETATM   14  N4  UNL     1      -2.278  10.936  20.800  1.00  0.00    -0.320 N 
ATOM     15  H4  UNL     1      -1.696  11.492  20.172  1.00  0.00     0.169 HD
BRANCH  14  16
HETATM   16  C8  UNL     1      -3.481  10.603  20.406  1.00  0.00     0.152 C 
HETATM   17  C9  UNL     1      -4.759  10.249  19.984  1.00  0.00     0.116 C 
BRANCH  16  18
HETATM   18  O1  UNL     1      -2.984  10.873  18.914  1.00  0.00    -0.345 OA
ATOM     19  H1  UNL     1      -3.900  10.893  18.660  1.00  0.00     0.219 HD
ENDBRANCH  16  18
BRANCH  17  20
HETATM   20  N5  UNL     1      -5.257  10.222  18.665  1.00  0.00    -0.284 NA
HETATM   21  C10 UNL     1      -6.091  11.354  18.278  1.00  0.00     0.097 C 
HETATM   22  C11 UNL     1      -7.230  11.541  19.232  1.00  0.00     0.040 C 
HETATM   23  C12 UNL     1      -8.128  10.342  19.092  1.00  0.00     0.036 C 
HETATM   24  C13 UNL     1      -9.257  10.405  20.118  1.00  0.00     0.033 C 
HETATM   25 CL1  UNL     1      -8.888  10.324  17.479  1.00  0.00    -0.119 Cl
HETATM   26  C14 UNL     1      -7.351   9.080  19.264  1.00  0.00     0.045 C 
HETATM   27  C15 UNL     1      -6.113   9.036  18.467  1.00  0.00     0.064 C 
BRANCH  27  28
HETATM   28  C16 UNL     1      -5.400   7.753  18.592  1.00  0.00     0.022 C 
BRANCH  28  29
HETATM   29  C17 UNL     1      -6.435   6.621  18.717  1.00  0.00     0.033 C 
BRANCH  29  30
HETATM   30  C18 UNL     1      -5.826   5.354  18.106  1.00  0.00     0.222 C 
HETATM   31  F1  UNL     1      -6.600   4.296  18.507  1.00  0.00    -0.255 F 
ENDBRANCH  29  30
ENDBRANCH  28  29
ENDBRANCH  27  28
ENDBRANCH  17  20
ENDBRANCH  14  16
ENDBRANCH   5  14
BRANCH   1  32
HETATM   32  N2  UNL     1      -3.954  13.398  25.161  1.00  0.00    -0.221 N 
ATOM     33  H2  UNL     1      -4.655  13.104  25.841  1.00  0.00     0.178 HD
BRANCH  32  34
HETATM   34  C4  UNL     1      -4.014  14.764  24.730  1.00  0.00     0.102 C 
HETATM   35  C3  UNL     1      -4.254  15.686  25.871  1.00  0.00     0.056 C 
HETATM   36  C2  UNL     1      -5.590  16.337  25.928  1.00  0.00     0.274 C 
HETATM   37  N1  UNL     1      -6.700  15.620  25.407  1.00  0.00     0.084 N 
HETATM   38  C1  UNL     1      -7.669  16.572  24.885  1.00  0.00     0.309 C 
HETATM   39  C22 UNL     1      -6.442  14.555  24.498  1.00  0.00     0.274 C 
HETATM   40  C21 UNL     1      -5.171  14.831  23.727  1.00  0.00     0.056 C 
ENDBRANCH  32  34
ENDBRANCH   1  32
TORSDOF 9
ENDMDL
MODEL 5
REMARK VINA RESULT: -8.570784229      1.310      1.531
REMARK  9 active torsions:
REMARK  status: ('A' for Active; 'I' for Inactive)
REMARK    1  A    between atoms: C4_5  and  N2_6 
REMARK    2  A    between atoms: N2_6  and  C5_8 
REMARK    3  A    between atoms: C7_12  and  N4_13 
REMARK    4  A    between atoms: N4_13  and  C8_15 
REMARK    5  A    between atoms: C8_15  and  O1_16 
REMARK    6  A    between atoms: C9_18  and  N5_19 
REMARK    7  A    between atoms: C15_26  and  C16_27 
REMARK    8  A    between atoms: C16_27  and  C17_28 
REMARK    9  A    between atoms: C17_28  and  C18_29 
ROOT
HETATM    1  C5  UNL     1      -3.167  12.488  25.103  1.00  0.00     0.678 A 
HETATM    2  N3  UNL     1      -2.794  12.246  23.834  1.00  0.00    -0.186 N 
ATOM      3  H3  UNL     1      -3.133  12.835  23.074  1.00  0.00     0.184 HD
HETATM    4  C6  UNL     1      -1.950  11.194  23.578  1.00  0.00     0.124 A 
HETATM    5  C7  UNL     1      -1.454  10.751  22.382  1.00  0.00     0.152 A 
HETATM    6  N6  UNL     1      -0.674   9.658  22.681  1.00  0.00    -0.283 N 
ATOM      7  H6  UNL     1      -0.158   9.089  22.010  1.00  0.00     0.188 HD
HETATM    8  N7  UNL     1      -0.709   9.474  23.983  1.00  0.00    -0.295 N 
ATOM      9  H7  UNL     1      -0.213   8.729  24.473  1.00  0.00     0.187 HD
HETATM   10  C19 UNL     1      -1.481  10.392  24.586  1.00  0.00     0.095 A 
HETATM   11  C20 UNL     1      -1.867  10.647  25.886  1.00  0.00     0.139 A 
HETATM   12  N8  UNL     1      -2.686  11.679  26.070  1.00  0.00    -0.200 N 
ATOM     13  H8  UNL     1      -2.976  11.876  27.027  1.00  0.00     0.183 HD
ENDROOT
BRANCH   5  14
HETATM   14  N4  UNL     1      -1.662  11.258  21.204  1.00  0.00    -0.320 N 
ATOM     15  H4  UNL     1      -0.923  11.821  20.780  1.00  0.00     0.169 HD
BRANCH  14  16
HETATM   16  C8  UNL     1      -2.773  11.081  20.535  1.00  0.00     0.152 C 
HETATM   17  C9  UNL     1      -3.953  10.893  19.822  1.00  0.00     0.116 C 
BRANCH  16  18
HETATM   18  O1  UNL     1      -1.867  10.761  19.262  1.00  0.00    -0.345 OA
ATOM     19  H1  UNL     1      -2.282   9.907  19.237  1.00  0.00     0.219 HD
ENDBRANCH  16  18
BRANCH  17  20
HETATM   20  N5  UNL     1      -4.095  10.562  18.458  1.00  0.00    -0.284 NA
HETATM   21  C10 UNL     1      -4.546  11.642  17.587  1.00  0.00     0.097 C 
HETATM   22  C11 UNL     1      -5.823  12.246  18.085  1.00  0.00     0.040 C 
HETATM   23  C12 UNL     1      -6.888  11.190  17.965  1.00  0.00     0.036 C 
HETATM   24  C13 UNL     1      -8.200  11.695  18.560  1.00  0.00     0.033 C 
HETATM   25 CL1  UNL     1      -7.201  10.821  16.248  1.00  0.00    -0.119 Cl
HETATM   26  C14 UNL     1      -6.466   9.934  18.650  1.00  0.00     0.045 C 
HETATM   27  C15 UNL     1      -5.105   9.498  18.294  1.00  0.00     0.064 C 
BRANCH  27  28
HETATM   28  C16 UNL     1      -4.734   8.217  18.922  1.00  0.00     0.022 C 
BRANCH  28  29
HETATM   29  C17 UNL     1      -6.007   7.375  19.117  1.00  0.00     0.033 C 
BRANCH  29  30
HETATM   30  C18 UNL     1      -5.834   6.069  18.335  1.00  0.00     0.222 C 
HETATM   31  F1  UNL     1      -6.782   5.191  18.793  1.00  0.00    -0.255 F 
ENDBRANCH  29  30
ENDBRANCH  28  29
ENDBRANCH  27  28
ENDBRANCH  17  20
ENDBRANCH  14  16
ENDBRANCH   5  14
BRANCH   1  32
HETATM   32  N2  UNL     1      -3.994  13.432  25.413  1.00  0.00    -0.221 N 
ATOM     33  H2  UNL     1      -4.696  13.207  26.119  1.00  0.00     0.178 HD
BRANCH  32  34
HETATM   34  C4  UNL     1      -4.035  14.760  24.873  1.00  0.00     0.102 C 
HETATM   35  C3  UNL     1      -4.242  15.776  25.939  1.00  0.00     0.056 C 
HETATM   36  C2  UNL     1      -5.566  16.455  25.958  1.00  0.00     0.274 C 
HETATM   37  N1  UNL     1      -6.695  15.721  25.509  1.00  0.00     0.084 N 
HETATM   38  C1  UNL     1      -7.653  16.646  24.923  1.00  0.00     0.309 C 
HETATM   39  C22 UNL     1      -6.469  14.581  24.686  1.00  0.00     0.274 C 
HETATM   40  C21 UNL     1      -5.203  14.769  23.881  1.00  0.00     0.056 C 
ENDBRANCH  32  34
ENDBRANCH   1  32
TORSDOF 9
ENDMDL
