MODEL 1
REMARK VINA RESULT: -7.020308950      0.000      0.000
REMARK  9 active torsions:
REMARK  status: ('A' for Active; 'I' for Inactive)
REMARK    1  A    between atoms: C2_2  and  C3_5 
REMARK    2  A    between atoms: C3_5  and  C6_8 
REMARK    3  A    between atoms: C6_8  and  N1_9 
REMARK    4  A    between atoms: C6_8  and  C7_13 
REMARK       I    between atoms: C7_13  and  N2_15 
REMARK    5  A    between atoms: N2_15  and  C8_17 
REMARK    6  A    between atoms: C15_24  and  C16_25 
REMARK       I    between atoms: C16_25  and  N3_27 
REMARK    7  A    between atoms: N4_30  and  C19_31 
REMARK    8  A    between atoms: C19_31  and  C20_32 
REMARK    9  A    between atoms: C20_32  and  O3_33 
ROOT
HETATM    1  C8  UNL     1      -6.076   8.668  17.382  1.00  0.00     0.092 C 
HETATM    2  C9  UNL     1      -6.764   9.759  18.151  1.00  0.00     0.010 C 
HETATM    3  C10 UNL     1      -7.795   9.280  19.106  1.00  0.00     0.011 C 
HETATM    4  C11 UNL     1      -7.251   8.190  19.968  1.00  0.00    -0.013 C 
HETATM    5  C12 UNL     1      -6.537   7.103  19.197  1.00  0.00     0.011 C 
HETATM    6  C13 UNL     1      -5.453   7.739  18.398  1.00  0.00     0.010 C 
HETATM    7  C14 UNL     1      -4.409   8.422  19.245  1.00  0.00     0.026 C 
HETATM    8  C15 UNL     1      -5.147   9.555  20.008  1.00  0.00     0.042 C 
HETATM    9  C23 UNL     1      -6.161   8.834  20.839  1.00  0.00     0.024 C 
HETATM   10  C24 UNL     1      -5.665  10.457  18.952  1.00  0.00     0.026 C 
ENDROOT
BRANCH   1  11
HETATM   11  N2  UNL     1      -6.883   7.930  16.481  1.00  0.00    -0.354 N 
HETATM   12  C7  UNL     1      -7.061   8.233  15.100  1.00  0.00     0.249 C 
HETATM   13  O1  UNL     1      -6.415   9.250  14.705  1.00  0.00    -0.271 OA
ATOM     14  H2  UNL     1      -7.375   7.116  16.850  1.00  0.00     0.162 HD
BRANCH  12  15
HETATM   15  C6  UNL     1      -7.885   7.501  14.150  1.00  0.00     0.288 C 
BRANCH  15  16
HETATM   16  C3  UNL     1      -9.322   7.968  14.036  1.00  0.00     0.055 C 
HETATM   17  C4  UNL     1      -9.577   9.060  15.044  1.00  0.00     0.023 C 
HETATM   18  C5  UNL     1      -9.379   8.687  12.669  1.00  0.00     0.023 C 
BRANCH  16  19
HETATM   19  C2  UNL     1     -10.350   6.907  13.985  1.00  0.00     0.249 C 
HETATM   20  C1  UNL     1     -10.816   6.739  12.526  1.00  0.00     0.091 C 
HETATM   21  F1  UNL     1     -11.529   7.246  14.655  1.00  0.00    -0.206 F 
HETATM   22  F2  UNL     1      -9.838   5.704  14.346  1.00  0.00    -0.206 F 
ENDBRANCH  16  19
ENDBRANCH  15  16
BRANCH  15  23
HETATM   23  N1  UNL     1      -7.337   7.801  12.796  1.00  0.00    -0.066 N 
ATOM     24  H13 UNL     1      -7.561   7.109  12.080  1.00  0.00     0.275 HD
ATOM     25  H12 UNL     1      -7.781   8.586  12.319  1.00  0.00     0.275 HD
ATOM     26  H11 UNL     1      -6.341   7.920  12.980  1.00  0.00     0.275 HD
ENDBRANCH  15  23
ENDBRANCH  12  15
ENDBRANCH   1  11
BRANCH   8  27
HETATM   27  C16 UNL     1      -4.162  10.160  20.908  1.00  0.00     0.228 C 
HETATM   28  O2  UNL     1      -3.009   9.598  20.950  1.00  0.00    -0.273 OA
HETATM   29  N3  UNL     1      -4.324  11.291  21.742  1.00  0.00    -0.348 N 
HETATM   30  C17 UNL     1      -3.169  11.686  22.544  1.00  0.00     0.156 C 
HETATM   31  C22 UNL     1      -5.503  12.104  21.871  1.00  0.00     0.156 C 
HETATM   32  C18 UNL     1      -3.636  11.839  23.961  1.00  0.00     0.292 C 
HETATM   33  N4  UNL     1      -4.665  12.866  24.068  1.00  0.00     0.093 N 
HETATM   34  C21 UNL     1      -5.794  12.594  23.267  1.00  0.00     0.292 C 
BRANCH  33  35
HETATM   35  C19 UNL     1      -4.125  14.176  24.052  1.00  0.00     0.298 C 
BRANCH  35  36
HETATM   36  C20 UNL     1      -4.171  14.917  25.360  1.00  0.00     0.194 C 
BRANCH  36  37
HETATM   37  O3  UNL     1      -5.186  14.478  26.205  1.00  0.00    -0.399 OA
ATOM     38  H3  UNL     1      -4.973  14.571  27.126  1.00  0.00     0.209 HD
ENDBRANCH  36  37
ENDBRANCH  35  36
ENDBRANCH  33  35
ENDBRANCH   8  27
TORSDOF 9
ENDMDL
MODEL 2
REMARK VINA RESULT: -6.771534296      3.635      9.587
REMARK  9 active torsions:
REMARK  status: ('A' for Active; 'I' for Inactive)
REMARK    1  A    between atoms: C2_2  and  C3_5 
REMARK    2  A    between atoms: C3_5  and  C6_8 
REMARK    3  A    between atoms: C6_8  and  N1_9 
REMARK    4  A    between atoms: C6_8  and  C7_13 
REMARK       I    between atoms: C7_13  and  N2_15 
REMARK    5  A    between atoms: N2_15  and  C8_17 
REMARK    6  A    between atoms: C15_24  and  C16_25 
REMARK       I    between atoms: C16_25  and  N3_27 
REMARK    7  A    between atoms: N4_30  and  C19_31 
REMARK    8  A    between atoms: C19_31  and  C20_32 
REMARK    9  A    between atoms: C20_32  and  O3_33 
ROOT
HETATM    1  C8  UNL     1      -5.978  10.063  19.175  1.00  0.00     0.092 C 
HETATM    2  C9  UNL     1      -4.990   9.235  18.404  1.00  0.00     0.010 C 
HETATM    3  C10 UNL     1      -4.816   7.853  18.916  1.00  0.00     0.011 C 
HETATM    4  C11 UNL     1      -6.140   7.188  19.101  1.00  0.00    -0.013 C 
HETATM    5  C12 UNL     1      -7.143   8.030  19.855  1.00  0.00     0.011 C 
HETATM    6  C13 UNL     1      -7.296   9.324  19.136  1.00  0.00     0.010 C 
HETATM    7  C14 UNL     1      -7.832   9.168  17.735  1.00  0.00     0.026 C 
HETATM    8  C15 UNL     1      -6.780   8.330  16.961  1.00  0.00     0.042 C 
HETATM    9  C23 UNL     1      -6.741   7.027  17.696  1.00  0.00     0.024 C 
HETATM   10  C24 UNL     1      -5.543   9.148  16.983  1.00  0.00     0.026 C 
ENDROOT
BRANCH   1  11
HETATM   11  N2  UNL     1      -5.632  10.367  20.515  1.00  0.00    -0.354 N 
HETATM   12  C7  UNL     1      -5.578  11.678  21.072  1.00  0.00     0.249 C 
HETATM   13  O1  UNL     1      -5.880  12.600  20.257  1.00  0.00    -0.271 OA
ATOM     14  H2  UNL     1      -5.405   9.586  21.130  1.00  0.00     0.162 HD
BRANCH  12  15
HETATM   15  C6  UNL     1      -5.222  12.025  22.440  1.00  0.00     0.288 C 
BRANCH  15  16
HETATM   16  C3  UNL     1      -3.737  12.144  22.718  1.00  0.00     0.055 C 
HETATM   17  C4  UNL     1      -3.054  12.785  21.536  1.00  0.00     0.023 C 
HETATM   18  C5  UNL     1      -3.646  13.207  23.837  1.00  0.00     0.023 C 
BRANCH  16  19
HETATM   19  C2  UNL     1      -3.074  10.934  23.247  1.00  0.00     0.249 C 
HETATM   20  C1  UNL     1      -1.549  11.152  23.220  1.00  0.00     0.091 C 
HETATM   21  F1  UNL     1      -3.245   9.809  22.436  1.00  0.00    -0.206 F 
HETATM   22  F2  UNL     1      -3.391  10.726  24.550  1.00  0.00    -0.206 F 
ENDBRANCH  16  19
ENDBRANCH  15  16
BRANCH  15  23
HETATM   23  N1  UNL     1      -5.707  13.417  22.662  1.00  0.00    -0.066 N 
ATOM     24  H13 UNL     1      -5.025  14.147  22.458  1.00  0.00     0.275 HD
ATOM     25  H12 UNL     1      -6.404  13.739  21.990  1.00  0.00     0.275 HD
ATOM     26  H11 UNL     1      -6.028  13.390  23.631  1.00  0.00     0.275 HD
ENDBRANCH  15  23
ENDBRANCH  12  15
ENDBRANCH   1  11
BRANCH   8  27
HETATM   27  C16 UNL     1      -7.338   8.089  15.629  1.00  0.00     0.228 C 
HETATM   28  O2  UNL     1      -7.840   6.925  15.424  1.00  0.00    -0.273 OA
HETATM   29  N3  UNL     1      -7.392   8.981  14.533  1.00  0.00    -0.348 N 
HETATM   30  C17 UNL     1      -8.011   8.480  13.308  1.00  0.00     0.156 C 
HETATM   31  C22 UNL     1      -6.917  10.338  14.504  1.00  0.00     0.156 C 
HETATM   32  C18 UNL     1      -7.062   8.756  12.180  1.00  0.00     0.292 C 
HETATM   33  N4  UNL     1      -6.813  10.185  12.039  1.00  0.00     0.093 N 
HETATM   34  C21 UNL     1      -6.275  10.764  13.207  1.00  0.00     0.292 C 
BRANCH  33  35
HETATM   35  C19 UNL     1      -7.872  10.856  11.377  1.00  0.00     0.298 C 
BRANCH  35  36
HETATM   36  C20 UNL     1      -7.929  10.674   9.886  1.00  0.00     0.194 C 
BRANCH  36  37
HETATM   37  O3  UNL     1      -6.679  10.721   9.278  1.00  0.00    -0.399 OA
ATOM     38  H3  UNL     1      -6.144  11.448   9.575  1.00  0.00     0.209 HD
ENDBRANCH  36  37
ENDBRANCH  35  36
ENDBRANCH  33  35
ENDBRANCH   8  27
TORSDOF 9
ENDMDL
MODEL 3
REMARK VINA RESULT: -6.656789787      4.058     10.101
REMARK  9 active torsions:
REMARK  status: ('A' for Active; 'I' for Inactive)
REMARK    1  A    between atoms: C2_2  and  C3_5 
REMARK    2  A    between atoms: C3_5  and  C6_8 
REMARK    3  A    between atoms: C6_8  and  N1_9 
REMARK    4  A    between atoms: C6_8  and  C7_13 
REMARK       I    between atoms: C7_13  and  N2_15 
REMARK    5  A    between atoms: N2_15  and  C8_17 
REMARK    6  A    between atoms: C15_24  and  C16_25 
REMARK       I    between atoms: C16_25  and  N3_27 
REMARK    7  A    between atoms: N4_30  and  C19_31 
REMARK    8  A    between atoms: C19_31  and  C20_32 
REMARK    9  A    between atoms: C20_32  and  O3_33 
ROOT
HETATM    1  C8  UNL     1      -5.469  10.451  20.258  1.00  0.00     0.092 C 
HETATM    2  C9  UNL     1      -4.913   9.760  19.046  1.00  0.00     0.010 C 
HETATM    3  C10 UNL     1      -4.840   8.282  19.161  1.00  0.00     0.011 C 
HETATM    4  C11 UNL     1      -6.145   7.724  19.624  1.00  0.00    -0.013 C 
HETATM    5  C12 UNL     1      -6.718   8.433  20.829  1.00  0.00     0.011 C 
HETATM    6  C13 UNL     1      -6.847   9.879  20.496  1.00  0.00     0.010 C 
HETATM    7  C14 UNL     1      -7.792  10.146  19.351  1.00  0.00     0.026 C 
HETATM    8  C15 UNL     1      -7.178   9.439  18.113  1.00  0.00     0.042 C 
HETATM    9  C23 UNL     1      -7.152   7.992  18.495  1.00  0.00     0.024 C 
HETATM   10  C24 UNL     1      -5.868  10.099  17.902  1.00  0.00     0.026 C 
ENDROOT
BRANCH   1  11
HETATM   11  N2  UNL     1      -4.696  10.361  21.442  1.00  0.00    -0.354 N 
HETATM   12  C7  UNL     1      -3.898  11.411  21.984  1.00  0.00     0.249 C 
HETATM   13  O1  UNL     1      -3.931  12.486  21.313  1.00  0.00    -0.271 OA
ATOM     14  H2  UNL     1      -4.711   9.475  21.947  1.00  0.00     0.162 HD
BRANCH  12  15
HETATM   15  C6  UNL     1      -3.089  11.350  23.193  1.00  0.00     0.288 C 
BRANCH  15  16
HETATM   16  C3  UNL     1      -1.719  10.725  23.030  1.00  0.00     0.055 C 
HETATM   17  C4  UNL     1      -1.752   9.728  21.899  1.00  0.00     0.023 C 
HETATM   18  C5  UNL     1      -0.837  11.878  22.499  1.00  0.00     0.023 C 
BRANCH  16  19
HETATM   19  C2  UNL     1      -1.069  10.248  24.269  1.00  0.00     0.249 C 
HETATM   20  C1  UNL     1      -2.131  10.155  25.382  1.00  0.00     0.091 C 
HETATM   21  F1  UNL     1      -0.143  11.154  24.793  1.00  0.00    -0.206 F 
HETATM   22  F2  UNL     1      -0.584   8.990  24.120  1.00  0.00    -0.206 F 
ENDBRANCH  16  19
ENDBRANCH  15  16
BRANCH  15  23
HETATM   23  N1  UNL     1      -2.763  12.760  23.553  1.00  0.00    -0.066 N 
ATOM     24  H13 UNL     1      -2.065  12.863  24.290  1.00  0.00     0.275 HD
ATOM     25  H12 UNL     1      -2.239  13.272  22.844  1.00  0.00     0.275 HD
ATOM     26  H11 UNL     1      -3.679  13.151  23.774  1.00  0.00     0.275 HD
ENDBRANCH  15  23
ENDBRANCH  12  15
ENDBRANCH   1  11
BRANCH   8  27
HETATM   27  C16 UNL     1      -8.138   9.608  17.019  1.00  0.00     0.228 C 
HETATM   28  O2  UNL     1      -9.149  10.360  17.261  1.00  0.00    -0.273 OA
HETATM   29  N3  UNL     1      -8.090   9.042  15.724  1.00  0.00    -0.348 N 
HETATM   30  C17 UNL     1      -9.187   9.380  14.819  1.00  0.00     0.156 C 
HETATM   31  C22 UNL     1      -7.066   8.181  15.197  1.00  0.00     0.156 C 
HETATM   32  C18 UNL     1      -9.718   8.095  14.257  1.00  0.00     0.292 C 
HETATM   33  N4  UNL     1      -8.688   7.381  13.513  1.00  0.00     0.093 N 
HETATM   34  C21 UNL     1      -7.558   7.074  14.300  1.00  0.00     0.292 C 
BRANCH  33  35
HETATM   35  C19 UNL     1      -8.483   7.920  12.218  1.00  0.00     0.298 C 
BRANCH  35  36
HETATM   36  C20 UNL     1      -9.139   7.175  11.089  1.00  0.00     0.194 C 
BRANCH  36  37
HETATM   37  O3  UNL     1      -9.103   5.793  11.248  1.00  0.00    -0.399 OA
ATOM     38  H3  UNL     1      -9.937   5.373  11.069  1.00  0.00     0.209 HD
ENDBRANCH  36  37
ENDBRANCH  35  36
ENDBRANCH  33  35
ENDBRANCH   8  27
TORSDOF 9
ENDMDL
MODEL 4
REMARK VINA RESULT: -6.649627873      3.372      5.261
REMARK  9 active torsions:
REMARK  status: ('A' for Active; 'I' for Inactive)
REMARK    1  A    between atoms: C2_2  and  C3_5 
REMARK    2  A    between atoms: C3_5  and  C6_8 
REMARK    3  A    between atoms: C6_8  and  N1_9 
REMARK    4  A    between atoms: C6_8  and  C7_13 
REMARK       I    between atoms: C7_13  and  N2_15 
REMARK    5  A    between atoms: N2_15  and  C8_17 
REMARK    6  A    between atoms: C15_24  and  C16_25 
REMARK       I    between atoms: C16_25  and  N3_27 
REMARK    7  A    between atoms: N4_30  and  C19_31 
REMARK    8  A    between atoms: C19_31  and  C20_32 
REMARK    9  A    between atoms: C20_32  and  O3_33 
ROOT
HETATM    1  C8  UNL     1      -6.816  11.490  20.397  1.00  0.00     0.092 C 
HETATM    2  C9  UNL     1      -7.429  12.749  19.855  1.00  0.00     0.010 C 
HETATM    3  C10 UNL     1      -8.826  12.596  19.378  1.00  0.00     0.011 C 
HETATM    4  C11 UNL     1      -9.665  11.918  20.409  1.00  0.00    -0.013 C 
HETATM    5  C12 UNL     1      -9.039  10.663  20.973  1.00  0.00     0.011 C 
HETATM    6  C13 UNL     1      -7.704  11.020  21.527  1.00  0.00     0.010 C 
HETATM    7  C14 UNL     1      -7.775  12.013  22.661  1.00  0.00     0.026 C 
HETATM    8  C15 UNL     1      -8.390  13.307  22.062  1.00  0.00     0.042 C 
HETATM    9  C23 UNL     1      -9.748  12.884  21.600  1.00  0.00     0.024 C 
HETATM   10  C24 UNL     1      -7.432  13.741  21.017  1.00  0.00     0.026 C 
ENDROOT
BRANCH   1  11
HETATM   11  N2  UNL     1      -6.616  10.439  19.469  1.00  0.00    -0.354 N 
HETATM   12  C7  UNL     1      -5.604   9.439  19.564  1.00  0.00     0.249 C 
HETATM   13  O1  UNL     1      -4.863   9.549  20.586  1.00  0.00    -0.271 OA
ATOM     14  H2  UNL     1      -7.247  10.393  18.668  1.00  0.00     0.162 HD
BRANCH  12  15
HETATM   15  C6  UNL     1      -5.368   8.351  18.627  1.00  0.00     0.288 C 
BRANCH  15  16
HETATM   16  C3  UNL     1      -6.464   7.308  18.549  1.00  0.00     0.055 C 
HETATM   17  C4  UNL     1      -7.394   7.466  19.725  1.00  0.00     0.023 C 
HETATM   18  C5  UNL     1      -7.310   7.739  17.330  1.00  0.00     0.023 C 
BRANCH  16  19
HETATM   19  C2  UNL     1      -6.027   5.923  18.276  1.00  0.00     0.249 C 
HETATM   20  C1  UNL     1      -6.202   5.635  16.772  1.00  0.00     0.091 C 
HETATM   21  F1  UNL     1      -6.838   4.956  18.877  1.00  0.00    -0.206 F 
HETATM   22  F2  UNL     1      -4.702   5.763  18.526  1.00  0.00    -0.206 F 
ENDBRANCH  16  19
ENDBRANCH  15  16
BRANCH  15  23
HETATM   23  N1  UNL     1      -5.395   8.954  17.264  1.00  0.00    -0.066 N 
ATOM     24  H13 UNL     1      -6.159   9.611  17.101  1.00  0.00     0.275 HD
ATOM     25  H12 UNL     1      -4.647   9.622  17.077  1.00  0.00     0.275 HD
ATOM     26  H11 UNL     1      -5.399   8.134  16.657  1.00  0.00     0.275 HD
ENDBRANCH  15  23
ENDBRANCH  12  15
ENDBRANCH   1  11
BRANCH   8  27
HETATM   27  C16 UNL     1      -8.554  14.243  23.177  1.00  0.00     0.228 C 
HETATM   28  O2  UNL     1      -9.735  14.336  23.672  1.00  0.00    -0.273 OA
HETATM   29  N3  UNL     1      -7.571  15.062  23.778  1.00  0.00    -0.348 N 
HETATM   30  C17 UNL     1      -8.009  15.909  24.885  1.00  0.00     0.156 C 
HETATM   31  C22 UNL     1      -6.179  15.137  23.425  1.00  0.00     0.156 C 
HETATM   32  C18 UNL     1      -7.541  17.304  24.597  1.00  0.00     0.292 C 
HETATM   33  N4  UNL     1      -6.087  17.361  24.498  1.00  0.00     0.093 N 
HETATM   34  C21 UNL     1      -5.574  16.516  23.492  1.00  0.00     0.292 C 
BRANCH  33  35
HETATM   35  C19 UNL     1      -5.458  17.360  25.769  1.00  0.00     0.298 C 
BRANCH  35  36
HETATM   36  C20 UNL     1      -4.119  16.679  25.834  1.00  0.00     0.194 C 
BRANCH  36  37
HETATM   37  O3  UNL     1      -3.905  16.001  27.030  1.00  0.00    -0.399 OA
ATOM     38  H3  UNL     1      -3.549  16.554  27.716  1.00  0.00     0.209 HD
ENDBRANCH  36  37
ENDBRANCH  35  36
ENDBRANCH  33  35
ENDBRANCH   8  27
TORSDOF 9
ENDMDL
MODEL 5
REMARK VINA RESULT: -6.619727341      2.037      2.882
REMARK  9 active torsions:
REMARK  status: ('A' for Active; 'I' for Inactive)
REMARK    1  A    between atoms: C2_2  and  C3_5 
REMARK    2  A    between atoms: C3_5  and  C6_8 
REMARK    3  A    between atoms: C6_8  and  N1_9 
REMARK    4  A    between atoms: C6_8  and  C7_13 
REMARK       I    between atoms: C7_13  and  N2_15 
REMARK    5  A    between atoms: N2_15  and  C8_17 
REMARK    6  A    between atoms: C15_24  and  C16_25 
REMARK       I    between atoms: C16_25  and  N3_27 
REMARK    7  A    between atoms: N4_30  and  C19_31 
REMARK    8  A    between atoms: C19_31  and  C20_32 
REMARK    9  A    between atoms: C20_32  and  O3_33 
ROOT
HETATM    1  C8  UNL     1      -6.803   9.112  17.463  1.00  0.00     0.092 C 
HETATM    2  C9  UNL     1      -7.543   9.237  18.764  1.00  0.00     0.010 C 
HETATM    3  C10 UNL     1      -7.485   8.028  19.622  1.00  0.00     0.011 C 
HETATM    4  C11 UNL     1      -6.077   7.556  19.777  1.00  0.00    -0.013 C 
HETATM    5  C12 UNL     1      -5.323   7.453  18.471  1.00  0.00     0.011 C 
HETATM    6  C13 UNL     1      -5.367   8.784  17.804  1.00  0.00     0.010 C 
HETATM    7  C14 UNL     1      -4.697   9.874  18.604  1.00  0.00     0.026 C 
HETATM    8  C15 UNL     1      -5.498   9.992  19.928  1.00  0.00     0.042 C 
HETATM    9  C23 UNL     1      -5.343   8.649  20.569  1.00  0.00     0.024 C 
HETATM   10  C24 UNL     1      -6.868  10.383  19.516  1.00  0.00     0.026 C 
ENDROOT
BRANCH   1  11
HETATM   11  N2  UNL     1      -7.310   8.165  16.540  1.00  0.00    -0.354 N 
HETATM   12  C7  UNL     1      -7.408   8.361  15.132  1.00  0.00     0.249 C 
HETATM   13  O1  UNL     1      -6.984   9.487  14.735  1.00  0.00    -0.271 OA
ATOM     14  H2  UNL     1      -7.631   7.271  16.913  1.00  0.00     0.162 HD
BRANCH  12  15
HETATM   15  C6  UNL     1      -7.928   7.413  14.158  1.00  0.00     0.288 C 
BRANCH  15  16
HETATM   16  C3  UNL     1      -9.420   7.491  13.904  1.00  0.00     0.055 C 
HETATM   17  C4  UNL     1      -9.999   8.656  14.665  1.00  0.00     0.023 C 
HETATM   18  C5  UNL     1      -9.529   7.911  12.420  1.00  0.00     0.023 C 
BRANCH  16  19
HETATM   19  C2  UNL     1     -10.169   6.224  14.027  1.00  0.00     0.249 C 
HETATM   20  C1  UNL     1     -10.503   5.705  12.615  1.00  0.00     0.091 C 
HETATM   21  F1  UNL     1     -11.430   6.380  14.610  1.00  0.00    -0.206 F 
HETATM   22  F2  UNL     1      -9.413   5.255  14.603  1.00  0.00    -0.206 F 
ENDBRANCH  16  19
ENDBRANCH  15  16
BRANCH  15  23
HETATM   23  N1  UNL     1      -7.352   7.803  12.839  1.00  0.00    -0.066 N 
ATOM     24  H13 UNL     1      -6.916   7.040  12.320  1.00  0.00     0.275 HD
ATOM     25  H12 UNL     1      -8.040   8.031  12.122  1.00  0.00     0.275 HD
ATOM     26  H11 UNL     1      -6.723   8.566  13.088  1.00  0.00     0.275 HD
ENDBRANCH  15  23
ENDBRANCH  12  15
ENDBRANCH   1  11
BRANCH   8  27
HETATM   27  C16 UNL     1      -4.796  10.978  20.752  1.00  0.00     0.228 C 
HETATM   28  O2  UNL     1      -5.533  11.768  21.446  1.00  0.00    -0.273 OA
HETATM   29  N3  UNL     1      -3.401  11.171  20.880  1.00  0.00    -0.348 N 
HETATM   30  C17 UNL     1      -2.965  12.236  21.780  1.00  0.00     0.156 C 
HETATM   31  C22 UNL     1      -2.364  10.418  20.226  1.00  0.00     0.156 C 
HETATM   32  C18 UNL     1      -1.990  13.091  21.027  1.00  0.00     0.292 C 
HETATM   33  N4  UNL     1      -0.828  12.318  20.604  1.00  0.00     0.093 N 
HETATM   34  C21 UNL     1      -1.170  11.224  19.782  1.00  0.00     0.292 C 
BRANCH  33  35
HETATM   35  C19 UNL     1       0.095  12.108  21.660  1.00  0.00     0.298 C 
BRANCH  35  36
HETATM   36  C20 UNL     1       1.451  12.732  21.475  1.00  0.00     0.194 C 
BRANCH  36  37
HETATM   37  O3  UNL     1       1.393  14.075  21.116  1.00  0.00    -0.399 OA
ATOM     38  H3  UNL     1       2.237  14.432  20.864  1.00  0.00     0.209 HD
ENDBRANCH  36  37
ENDBRANCH  35  36
ENDBRANCH  33  35
ENDBRANCH   8  27
TORSDOF 9
ENDMDL
