MODEL 1
REMARK VINA RESULT: -8.407114148      0.000      0.000
REMARK  7 active torsions:
REMARK  status: ('A' for Active; 'I' for Inactive)
REMARK       I    between atoms: C2_2  and  N1_4 
REMARK    1  A    between atoms: N1_4  and  C3_6 
REMARK    2  A    between atoms: C3_6  and  C4_7 
REMARK    3  A    between atoms: C3_6  and  C17_29 
REMARK       I    between atoms: C4_7  and  N2_9 
REMARK    4  A    between atoms: C11_16  and  O3_17 
REMARK    5  A    between atoms: C12_19  and  C13_20 
REMARK       I    between atoms: C13_20  and  N3_22 
REMARK    6  A    between atoms: C14_24  and  C15_25 
REMARK    7  A    between atoms: C15_25  and  C16_26 
ROOT
HETATM    1  C4  UNL     1      -5.774  11.432  18.932  1.00  0.00     0.244 C 
HETATM    2  O2  UNL     1      -4.702  12.077  18.846  1.00  0.00    -0.271 OA
HETATM    3  N2  UNL     1      -6.496  11.514  20.167  1.00  0.00    -0.329 N 
HETATM    4  C5  UNL     1      -7.756  10.894  20.419  1.00  0.00     0.095 C 
HETATM    5  C6  UNL     1      -8.919  11.712  19.869  1.00  0.00     0.026 C 
HETATM    6  C7  UNL     1     -10.133  10.805  19.931  1.00  0.00     0.002 C 
HETATM    7  C8  UNL     1     -10.417  10.533  21.379  1.00  0.00     0.001 C 
HETATM    8  C9  UNL     1      -9.401  11.108  22.314  1.00  0.00     0.009 C 
HETATM    9  C10 UNL     1      -7.986  10.862  21.923  1.00  0.00     0.040 C 
HETATM   10  C11 UNL     1      -7.145  12.032  22.364  1.00  0.00     0.156 C 
HETATM   11  C12 UNL     1      -6.087  12.227  21.355  1.00  0.00     0.209 C 
ENDROOT
BRANCH   1  12
HETATM   12  C3  UNL     1      -6.228  10.649  17.802  1.00  0.00     0.180 C 
BRANCH  12  13
HETATM   13  N1  UNL     1      -5.284  10.924  16.693  1.00  0.00    -0.348 N 
HETATM   14  C2  UNL     1      -5.728  11.583  15.518  1.00  0.00     0.214 C 
HETATM   15  C1  UNL     1      -4.791  11.863  14.403  1.00  0.00     0.117 C 
HETATM   16  O1  UNL     1      -6.925  11.964  15.357  1.00  0.00    -0.274 OA
ATOM     17  H1  UNL     1      -4.308  10.637  16.774  1.00  0.00     0.163 HD
ENDBRANCH  12  13
BRANCH  12  18
HETATM   18  C17 UNL     1      -6.190   9.153  18.036  1.00  0.00     0.018 C 
HETATM   19  C18 UNL     1      -6.661   8.350  16.864  1.00  0.00     0.013 C 
HETATM   20  C19 UNL     1      -6.768   6.910  17.185  1.00  0.00     0.079 C 
HETATM   21  C20 UNL     1      -6.272   6.490  18.514  1.00  0.00     0.243 C 
HETATM   22  F1  UNL     1      -5.914   5.135  18.419  1.00  0.00    -0.206 F 
HETATM   23  F2  UNL     1      -7.335   6.504  19.429  1.00  0.00    -0.206 F 
HETATM   24  C21 UNL     1      -5.086   7.219  19.028  1.00  0.00     0.079 C 
HETATM   25  C22 UNL     1      -4.899   8.608  18.520  1.00  0.00     0.013 C 
ENDBRANCH  12  18
ENDBRANCH   1  12
BRANCH  11  26
HETATM   26  C13 UNL     1      -4.815  11.731  21.909  1.00  0.00     0.246 C 
HETATM   27  O4  UNL     1      -4.058  12.531  22.506  1.00  0.00    -0.271 OA
HETATM   28  N3  UNL     1      -4.408  10.381  21.796  1.00  0.00    -0.338 N 
HETATM   29  C14 UNL     1      -3.312   9.945  21.339  1.00  0.00     0.074 C 
ATOM     30  H3  UNL     1      -5.075   9.679  22.119  1.00  0.00     0.167 HD
BRANCH  29  31
HETATM   31  C15 UNL     1      -2.182  10.738  20.813  1.00  0.00     0.157 C 
BRANCH  31  32
HETATM   32  C16 UNL     1      -0.987  10.661  21.674  1.00  0.00     0.177 C 
HETATM   33  O5  UNL     1      -1.022   9.979  22.721  1.00  0.00    -0.648 OA
HETATM   34  O6  UNL     1       0.154  11.347  21.309  1.00  0.00    -0.648 OA
ENDBRANCH  31  32
ENDBRANCH  29  31
ENDBRANCH  11  26
BRANCH  10  35
HETATM   35  O3  UNL     1      -7.881  13.210  22.504  1.00  0.00    -0.393 OA
ATOM     36  H3  UNL     1      -7.846  13.568  23.383  1.00  0.00     0.210 HD
ENDBRANCH  10  35
TORSDOF 7
ENDMDL
MODEL 2
REMARK VINA RESULT: -8.369039597      2.330      3.191
REMARK  7 active torsions:
REMARK  status: ('A' for Active; 'I' for Inactive)
REMARK       I    between atoms: C2_2  and  N1_4 
REMARK    1  A    between atoms: N1_4  and  C3_6 
REMARK    2  A    between atoms: C3_6  and  C4_7 
REMARK    3  A    between atoms: C3_6  and  C17_29 
REMARK       I    between atoms: C4_7  and  N2_9 
REMARK    4  A    between atoms: C11_16  and  O3_17 
REMARK    5  A    between atoms: C12_19  and  C13_20 
REMARK       I    between atoms: C13_20  and  N3_22 
REMARK    6  A    between atoms: C14_24  and  C15_25 
REMARK    7  A    between atoms: C15_25  and  C16_26 
ROOT
HETATM    1  C4  UNL     1      -3.827  11.132  19.506  1.00  0.00     0.244 C 
HETATM    2  O2  UNL     1      -2.653  10.743  19.300  1.00  0.00    -0.271 OA
HETATM    3  N2  UNL     1      -4.083  11.841  20.724  1.00  0.00    -0.329 N 
HETATM    4  C5  UNL     1      -5.342  12.403  21.093  1.00  0.00     0.095 C 
HETATM    5  C6  UNL     1      -5.579  13.760  20.440  1.00  0.00     0.026 C 
HETATM    6  C7  UNL     1      -7.043  14.082  20.666  1.00  0.00     0.002 C 
HETATM    7  C8  UNL     1      -7.244  14.250  22.143  1.00  0.00     0.001 C 
HETATM    8  C9  UNL     1      -6.026  13.951  22.958  1.00  0.00     0.009 C 
HETATM    9  C10 UNL     1      -5.321  12.694  22.587  1.00  0.00     0.040 C 
HETATM   10  C11 UNL     1      -3.844  12.870  22.823  1.00  0.00     0.156 C 
HETATM   11  C12 UNL     1      -3.132  12.112  21.777  1.00  0.00     0.209 C 
ENDROOT
BRANCH   1  12
HETATM   12  C3  UNL     1      -4.853  10.856  18.522  1.00  0.00     0.180 C 
BRANCH  12  13
HETATM   13  N1  UNL     1      -4.232  11.076  17.194  1.00  0.00    -0.348 N 
HETATM   14  C2  UNL     1      -4.456  12.286  16.488  1.00  0.00     0.214 C 
HETATM   15  C1  UNL     1      -3.839  12.517  15.160  1.00  0.00     0.117 C 
HETATM   16  O1  UNL     1      -5.179  13.221  16.944  1.00  0.00    -0.274 OA
ATOM     17  H1  UNL     1      -3.640  10.353  16.784  1.00  0.00     0.163 HD
ENDBRANCH  12  13
BRANCH  12  18
HETATM   18  C17 UNL     1      -5.344   9.423  18.533  1.00  0.00     0.018 C 
HETATM   19  C18 UNL     1      -6.084   9.051  19.778  1.00  0.00     0.013 C 
HETATM   20  C19 UNL     1      -6.401   7.607  19.826  1.00  0.00     0.079 C 
HETATM   21  C20 UNL     1      -6.079   6.819  18.616  1.00  0.00     0.243 C 
HETATM   22  F1  UNL     1      -6.931   5.703  18.603  1.00  0.00    -0.206 F 
HETATM   23  F2  UNL     1      -4.794   6.274  18.749  1.00  0.00    -0.206 F 
HETATM   24  C21 UNL     1      -6.255   7.516  17.317  1.00  0.00     0.079 C 
HETATM   25  C22 UNL     1      -6.130   9.001  17.347  1.00  0.00     0.013 C 
ENDBRANCH  12  18
ENDBRANCH   1  12
BRANCH  11  26
HETATM   26  C13 UNL     1      -2.584  10.884  22.381  1.00  0.00     0.246 C 
HETATM   27  O4  UNL     1      -3.332   9.888  22.519  1.00  0.00    -0.271 OA
HETATM   28  N3  UNL     1      -1.242  10.779  22.814  1.00  0.00    -0.338 N 
HETATM   29  C14 UNL     1      -0.829  10.417  23.954  1.00  0.00     0.074 C 
ATOM     30  H3  UNL     1      -0.526  11.024  22.130  1.00  0.00     0.167 HD
BRANCH  29  31
HETATM   31  C15 UNL     1      -1.646  10.011  25.116  1.00  0.00     0.157 C 
BRANCH  31  32
HETATM   32  C16 UNL     1      -0.953   9.039  25.982  1.00  0.00     0.177 C 
HETATM   33  O5  UNL     1      -0.949   9.208  27.221  1.00  0.00    -0.648 OA
HETATM   34  O6  UNL     1      -0.317   7.956  25.408  1.00  0.00    -0.648 OA
ENDBRANCH  31  32
ENDBRANCH  29  31
ENDBRANCH  11  26
BRANCH  10  35
HETATM   35  O3  UNL     1      -3.442  14.207  22.786  1.00  0.00    -0.393 OA
ATOM     36  H3  UNL     1      -3.430  14.614  23.644  1.00  0.00     0.210 HD
ENDBRANCH  10  35
TORSDOF 7
ENDMDL
MODEL 3
REMARK VINA RESULT: -8.297711670      2.393      3.769
REMARK  7 active torsions:
REMARK  status: ('A' for Active; 'I' for Inactive)
REMARK       I    between atoms: C2_2  and  N1_4 
REMARK    1  A    between atoms: N1_4  and  C3_6 
REMARK    2  A    between atoms: C3_6  and  C4_7 
REMARK    3  A    between atoms: C3_6  and  C17_29 
REMARK       I    between atoms: C4_7  and  N2_9 
REMARK    4  A    between atoms: C11_16  and  O3_17 
REMARK    5  A    between atoms: C12_19  and  C13_20 
REMARK       I    between atoms: C13_20  and  N3_22 
REMARK    6  A    between atoms: C14_24  and  C15_25 
REMARK    7  A    between atoms: C15_25  and  C16_26 
ROOT
HETATM    1  C4  UNL     1      -4.967  11.093  20.916  1.00  0.00     0.244 C 
HETATM    2  O2  UNL     1      -3.949  10.758  20.266  1.00  0.00    -0.271 OA
HETATM    3  N2  UNL     1      -4.773  11.931  22.062  1.00  0.00    -0.329 N 
HETATM    4  C5  UNL     1      -5.818  12.453  22.880  1.00  0.00     0.095 C 
HETATM    5  C6  UNL     1      -6.453  13.700  22.275  1.00  0.00     0.026 C 
HETATM    6  C7  UNL     1      -7.718  13.953  23.072  1.00  0.00     0.002 C 
HETATM    7  C8  UNL     1      -7.306  14.291  24.474  1.00  0.00     0.001 C 
HETATM    8  C9  UNL     1      -5.835  14.174  24.717  1.00  0.00     0.009 C 
HETATM    9  C10 UNL     1      -5.213  12.928  24.193  1.00  0.00     0.040 C 
HETATM   10  C11 UNL     1      -3.801  13.227  23.763  1.00  0.00     0.156 C 
HETATM   11  C12 UNL     1      -3.506  12.391  22.584  1.00  0.00     0.209 C 
ENDROOT
BRANCH   1  12
HETATM   12  C3  UNL     1      -6.271  10.631  20.488  1.00  0.00     0.180 C 
BRANCH  12  13
HETATM   13  N1  UNL     1      -6.812  11.675  19.584  1.00  0.00    -0.348 N 
HETATM   14  C2  UNL     1      -8.165  12.086  19.689  1.00  0.00     0.214 C 
HETATM   15  C1  UNL     1      -8.715  13.129  18.790  1.00  0.00     0.117 C 
HETATM   16  O1  UNL     1      -8.965  11.596  20.540  1.00  0.00    -0.274 OA
ATOM     17  H1  UNL     1      -6.206  12.101  18.881  1.00  0.00     0.163 HD
ENDBRANCH  12  13
BRANCH  12  18
HETATM   18  C17 UNL     1      -6.235   9.347  19.686  1.00  0.00     0.018 C 
HETATM   19  C18 UNL     1      -7.221   8.321  20.149  1.00  0.00     0.013 C 
HETATM   20  C19 UNL     1      -7.043   7.027  19.455  1.00  0.00     0.079 C 
HETATM   21  C20 UNL     1      -6.056   6.997  18.353  1.00  0.00     0.243 C 
HETATM   22  F1  UNL     1      -6.428   5.958  17.485  1.00  0.00    -0.206 F 
HETATM   23  F2  UNL     1      -4.812   6.598  18.860  1.00  0.00    -0.206 F 
HETATM   24  C21 UNL     1      -5.953   8.233  17.535  1.00  0.00     0.079 C 
HETATM   25  C22 UNL     1      -6.339   9.502  18.214  1.00  0.00     0.013 C 
ENDBRANCH  12  18
ENDBRANCH   1  12
BRANCH  11  26
HETATM   26  C13 UNL     1      -2.626  11.286  23.002  1.00  0.00     0.246 C 
HETATM   27  O4  UNL     1      -3.095  10.126  23.069  1.00  0.00    -0.271 OA
HETATM   28  N3  UNL     1      -1.264  11.478  23.332  1.00  0.00    -0.338 N 
HETATM   29  C14 UNL     1      -0.673  11.120  24.391  1.00  0.00     0.074 C 
ATOM     30  H3  UNL     1      -0.694  11.959  22.636  1.00  0.00     0.167 HD
BRANCH  29  31
HETATM   31  C15 UNL     1      -1.257  10.410  25.548  1.00  0.00     0.157 C 
BRANCH  31  32
HETATM   32  C16 UNL     1      -0.902   8.979  25.571  1.00  0.00     0.177 C 
HETATM   33  O5  UNL     1      -0.060   8.537  24.761  1.00  0.00    -0.648 OA
HETATM   34  O6  UNL     1      -1.510   8.148  26.492  1.00  0.00    -0.648 OA
ENDBRANCH  31  32
ENDBRANCH  29  31
ENDBRANCH  11  26
BRANCH  10  35
HETATM   35  O3  UNL     1      -3.601  14.572  23.445  1.00  0.00    -0.393 OA
ATOM     36  H3  UNL     1      -3.828  15.159  24.155  1.00  0.00     0.210 HD
ENDBRANCH  10  35
TORSDOF 7
ENDMDL
MODEL 4
REMARK VINA RESULT: -8.204372120      1.853      2.268
REMARK  7 active torsions:
REMARK  status: ('A' for Active; 'I' for Inactive)
REMARK       I    between atoms: C2_2  and  N1_4 
REMARK    1  A    between atoms: N1_4  and  C3_6 
REMARK    2  A    between atoms: C3_6  and  C4_7 
REMARK    3  A    between atoms: C3_6  and  C17_29 
REMARK       I    between atoms: C4_7  and  N2_9 
REMARK    4  A    between atoms: C11_16  and  O3_17 
REMARK    5  A    between atoms: C12_19  and  C13_20 
REMARK       I    between atoms: C13_20  and  N3_22 
REMARK    6  A    between atoms: C14_24  and  C15_25 
REMARK    7  A    between atoms: C15_25  and  C16_26 
ROOT
HETATM    1  C4  UNL     1      -5.690  10.433  17.086  1.00  0.00     0.244 C 
HETATM    2  O2  UNL     1      -4.608  10.746  16.534  1.00  0.00    -0.271 OA
HETATM    3  N2  UNL     1      -6.000  11.063  18.335  1.00  0.00    -0.329 N 
HETATM    4  C5  UNL     1      -7.207  10.870  19.070  1.00  0.00     0.095 C 
HETATM    5  C6  UNL     1      -8.349  11.727  18.536  1.00  0.00     0.026 C 
HETATM    6  C7  UNL     1      -9.610  11.199  19.193  1.00  0.00     0.002 C 
HETATM    7  C8  UNL     1      -9.494  11.466  20.665  1.00  0.00     0.001 C 
HETATM    8  C9  UNL     1      -8.178  12.045  21.075  1.00  0.00     0.009 C 
HETATM    9  C10 UNL     1      -6.989  11.363  20.494  1.00  0.00     0.040 C 
HETATM   10  C11 UNL     1      -5.897  12.377  20.280  1.00  0.00     0.156 C 
HETATM   11  C12 UNL     1      -5.163  11.992  19.059  1.00  0.00     0.209 C 
ENDROOT
BRANCH   1  12
HETATM   12  C3  UNL     1      -6.563   9.469  16.450  1.00  0.00     0.180 C 
BRANCH  12  13
HETATM   13  N1  UNL     1      -6.113   9.360  15.041  1.00  0.00    -0.348 N 
HETATM   14  C2  UNL     1      -6.906   9.891  13.991  1.00  0.00     0.214 C 
HETATM   15  C1  UNL     1      -6.465   9.787  12.579  1.00  0.00     0.117 C 
HETATM   16  O1  UNL     1      -8.012  10.473  14.196  1.00  0.00    -0.274 OA
ATOM     17  H1  UNL     1      -5.229   8.900  14.825  1.00  0.00     0.163 HD
ENDBRANCH  12  13
BRANCH  12  18
HETATM   18  C17 UNL     1      -6.472   8.076  17.037  1.00  0.00     0.018 C 
HETATM   19  C18 UNL     1      -7.203   7.921  18.334  1.00  0.00     0.013 C 
HETATM   20  C19 UNL     1      -6.954   6.604  18.958  1.00  0.00     0.079 C 
HETATM   21  C20 UNL     1      -6.172   5.632  18.163  1.00  0.00     0.243 C 
HETATM   22  F1  UNL     1      -6.526   4.347  18.605  1.00  0.00    -0.206 F 
HETATM   23  F2  UNL     1      -4.815   5.751  18.493  1.00  0.00    -0.206 F 
HETATM   24  C21 UNL     1      -6.393   5.663  16.694  1.00  0.00     0.079 C 
HETATM   25  C22 UNL     1      -6.843   6.965  16.127  1.00  0.00     0.013 C 
ENDBRANCH  12  18
ENDBRANCH   1  12
BRANCH  11  26
HETATM   26  C13 UNL     1      -3.870  11.406  19.455  1.00  0.00     0.246 C 
HETATM   27  O4  UNL     1      -3.832  10.619  20.429  1.00  0.00    -0.271 OA
HETATM   28  N3  UNL     1      -2.662  11.696  18.780  1.00  0.00    -0.338 N 
HETATM   29  C14 UNL     1      -1.579  12.109  19.286  1.00  0.00     0.074 C 
ATOM     30  H3  UNL     1      -2.664  11.556  17.769  1.00  0.00     0.167 HD
BRANCH  29  31
HETATM   31  C15 UNL     1      -1.305  12.390  20.710  1.00  0.00     0.157 C 
BRANCH  31  32
HETATM   32  C16 UNL     1      -0.196  11.578  21.244  1.00  0.00     0.177 C 
HETATM   33  O5  UNL     1      -0.432  10.454  21.736  1.00  0.00    -0.648 OA
HETATM   34  O6  UNL     1       1.091  12.077  21.192  1.00  0.00    -0.648 OA
ENDBRANCH  31  32
ENDBRANCH  29  31
ENDBRANCH  11  26
BRANCH  10  35
HETATM   35  O3  UNL     1      -6.381  13.679  20.143  1.00  0.00    -0.393 OA
ATOM     36  H3  UNL     1      -7.020  13.766  19.446  1.00  0.00     0.210 HD
ENDBRANCH  10  35
TORSDOF 7
ENDMDL
MODEL 5
REMARK VINA RESULT: -8.134119468      3.192      4.618
REMARK  7 active torsions:
REMARK  status: ('A' for Active; 'I' for Inactive)
REMARK       I    between atoms: C2_2  and  N1_4 
REMARK    1  A    between atoms: N1_4  and  C3_6 
REMARK    2  A    between atoms: C3_6  and  C4_7 
REMARK    3  A    between atoms: C3_6  and  C17_29 
REMARK       I    between atoms: C4_7  and  N2_9 
REMARK    4  A    between atoms: C11_16  and  O3_17 
REMARK    5  A    between atoms: C12_19  and  C13_20 
REMARK       I    between atoms: C13_20  and  N3_22 
REMARK    6  A    between atoms: C14_24  and  C15_25 
REMARK    7  A    between atoms: C15_25  and  C16_26 
ROOT
HETATM    1  C4  UNL     1      -2.968  11.558  21.660  1.00  0.00     0.244 C 
HETATM    2  O2  UNL     1      -1.845  11.010  21.561  1.00  0.00    -0.271 OA
HETATM    3  N2  UNL     1      -3.347  12.058  22.948  1.00  0.00    -0.329 N 
HETATM    4  C5  UNL     1      -4.559  12.757  23.229  1.00  0.00     0.095 C 
HETATM    5  C6  UNL     1      -4.470  14.233  22.859  1.00  0.00     0.026 C 
HETATM    6  C7  UNL     1      -5.889  14.764  22.917  1.00  0.00     0.002 C 
HETATM    7  C8  UNL     1      -6.341  14.683  24.346  1.00  0.00     0.001 C 
HETATM    8  C9  UNL     1      -5.356  14.021  25.256  1.00  0.00     0.009 C 
HETATM    9  C10 UNL     1      -4.782  12.751  24.735  1.00  0.00     0.040 C 
HETATM   10  C11 UNL     1      -3.367  12.611  25.231  1.00  0.00     0.156 C 
HETATM   11  C12 UNL     1      -2.584  11.949  24.170  1.00  0.00     0.209 C 
ENDROOT
BRANCH   1  12
HETATM   12  C3  UNL     1      -3.817  11.662  20.491  1.00  0.00     0.180 C 
BRANCH  12  13
HETATM   13  N1  UNL     1      -2.912  11.767  19.322  1.00  0.00    -0.348 N 
HETATM   14  C2  UNL     1      -2.859  12.962  18.560  1.00  0.00     0.214 C 
HETATM   15  C1  UNL     1      -1.957  13.077  17.388  1.00  0.00     0.117 C 
HETATM   16  O1  UNL     1      -3.564  13.979  18.831  1.00  0.00    -0.274 OA
ATOM     17  H1  UNL     1      -2.323  10.975  19.063  1.00  0.00     0.163 HD
ENDBRANCH  12  13
BRANCH  12  18
HETATM   18  C17 UNL     1      -4.685  10.444  20.252  1.00  0.00     0.018 C 
HETATM   19  C18 UNL     1      -6.121  10.772  19.987  1.00  0.00     0.013 C 
HETATM   20  C19 UNL     1      -6.965   9.559  19.925  1.00  0.00     0.079 C 
HETATM   21  C20 UNL     1      -6.262   8.259  19.985  1.00  0.00     0.243 C 
HETATM   22  F1  UNL     1      -7.079   7.310  19.351  1.00  0.00    -0.206 F 
HETATM   23  F2  UNL     1      -6.200   7.829  21.318  1.00  0.00    -0.206 F 
HETATM   24  C21 UNL     1      -4.934   8.204  19.321  1.00  0.00     0.079 C 
HETATM   25  C22 UNL     1      -4.197   9.496  19.221  1.00  0.00     0.013 C 
ENDBRANCH  12  18
ENDBRANCH   1  12
BRANCH  11  26
HETATM   26  C13 UNL     1      -2.344  10.551  24.570  1.00  0.00     0.246 C 
HETATM   27  O4  UNL     1      -3.194   9.966  25.281  1.00  0.00    -0.271 OA
HETATM   28  N3  UNL     1      -1.188   9.835  24.183  1.00  0.00    -0.338 N 
HETATM   29  C14 UNL     1      -0.380   9.216  24.934  1.00  0.00     0.074 C 
ATOM     30  H3  UNL     1      -0.982   9.814  23.183  1.00  0.00     0.167 HD
BRANCH  29  31
HETATM   31  C15 UNL     1      -0.444   9.087  26.404  1.00  0.00     0.157 C 
BRANCH  31  32
HETATM   32  C16 UNL     1      -0.900   7.752  26.835  1.00  0.00     0.177 C 
HETATM   33  O5  UNL     1      -0.489   6.735  26.236  1.00  0.00    -0.648 OA
HETATM   34  O6  UNL     1      -1.778   7.649  27.896  1.00  0.00    -0.648 OA
ENDBRANCH  31  32
ENDBRANCH  29  31
ENDBRANCH  11  26
BRANCH  10  35
HETATM   35  O3  UNL     1      -2.778  13.836  25.550  1.00  0.00    -0.393 OA
ATOM     36  H3  UNL     1      -1.830  13.793  25.589  1.00  0.00     0.210 HD
ENDBRANCH  10  35
TORSDOF 7
ENDMDL
