MODEL 1
REMARK VINA RESULT: -8.810105789      0.000      0.000
REMARK  8 active torsions:
REMARK  status: ('A' for Active; 'I' for Inactive)
REMARK    1  A    between atoms: C3_3  and  N1_4 
REMARK    2  A    between atoms: C6_9  and  C7_10 
REMARK    3  A    between atoms: C7_10  and  O3_12 
REMARK    4  A    between atoms: C9_16  and  N3_17 
REMARK    5  A    between atoms: N3_17  and  C10_19 
REMARK    6  A    between atoms: C10_19  and  C12_21 
REMARK    7  A    between atoms: C15_30  and  O4_31 
REMARK    8  A    between atoms: O4_31  and  C16_32 
ROOT
HETATM    1  C1  UNL     1      -4.739  10.874  17.071  1.00  0.00     0.057 C 
HETATM    2  C2  UNL     1      -4.494  10.731  18.505  1.00  0.00     0.035 A 
HETATM    3  C3  UNL     1      -3.569  11.541  19.112  1.00  0.00     0.138 A 
HETATM    4  N2  UNL     1      -3.425  11.313  20.461  1.00  0.00    -0.176 N 
ATOM      5  H2  UNL     1      -2.750  11.885  20.969  1.00  0.00     0.186 HD
HETATM    6  C9  UNL     1      -4.104  10.403  21.147  1.00  0.00     0.682 A 
HETATM    7  N5  UNL     1      -4.994   9.638  20.513  1.00  0.00    -0.170 N 
ATOM      8  H5  UNL     1      -5.510   8.941  21.048  1.00  0.00     0.186 HD
HETATM    9  C15 UNL     1      -5.242   9.752  19.177  1.00  0.00     0.167 A 
ENDROOT
BRANCH   6  10
HETATM   10  N3  UNL     1      -3.950  10.209  22.419  1.00  0.00    -0.216 N 
ATOM     11  H3  UNL     1      -4.188   9.300  22.816  1.00  0.00     0.178 HD
BRANCH  10  12
HETATM   12  C10 UNL     1      -3.453  11.243  23.284  1.00  0.00     0.145 C 
HETATM   13  C11 UNL     1      -4.546  12.079  23.870  1.00  0.00     0.039 C 
BRANCH  12  14
HETATM   14  C12 UNL     1      -2.649  10.629  24.416  1.00  0.00     0.041 A 
HETATM   15  C13 UNL     1      -1.346  10.245  24.208  1.00  0.00     0.081 A 
HETATM   16  S1  UNL     1      -0.921   9.636  25.749  1.00  0.00    -0.051 SA
HETATM   17  C14 UNL     1      -2.404   9.904  26.551  1.00  0.00     0.231 A 
HETATM   18  F1  UNL     1      -2.770   9.637  27.855  1.00  0.00    -0.178 F 
HETATM   19  N4  UNL     1      -3.145  10.445  25.596  1.00  0.00    -0.328 N 
ATOM     20  H4  UNL     1      -4.108  10.716  25.792  1.00  0.00     0.168 HD
ENDBRANCH  12  14
ENDBRANCH  10  12
ENDBRANCH   6  10
BRANCH   3  21
HETATM   21  N1  UNL     1      -2.812  12.540  18.473  1.00  0.00    -0.269 N 
HETATM   22  C4  UNL     1      -1.407  12.732  18.833  1.00  0.00     0.369 C 
HETATM   23  O1  UNL     1      -0.659  11.847  19.332  1.00  0.00    -0.238 OA
HETATM   24  O2  UNL     1      -1.033  14.034  18.537  1.00  0.00    -0.301 OA
HETATM   25  C5  UNL     1      -2.213  14.710  18.191  1.00  0.00     0.209 C 
HETATM   26  C6  UNL     1      -2.981  13.544  17.485  1.00  0.00     0.149 C 
BRANCH  26  27
HETATM   27  C7  UNL     1      -2.224  13.363  16.205  1.00  0.00     0.139 C 
HETATM   28  C8  UNL     1      -2.978  13.442  14.939  1.00  0.00     0.041 C 
BRANCH  27  29
HETATM   29  O3  UNL     1      -1.440  12.215  16.156  1.00  0.00    -0.394 OA
ATOM     30  H3  UNL     1      -1.929  11.402  16.214  1.00  0.00     0.210 HD
ENDBRANCH  27  29
ENDBRANCH  26  27
ENDBRANCH   3  21
BRANCH   9  31
HETATM   31  O4  UNL     1      -6.106   9.000  18.602  1.00  0.00    -0.327 OA
BRANCH  31  32
HETATM   32  C16 UNL     1      -7.009   8.227  18.073  1.00  0.00     0.164 C 
HETATM   33  C17 UNL     1      -7.231   7.008  19.001  1.00  0.00     0.035 C 
HETATM   34  C18 UNL     1      -6.101   6.112  18.551  1.00  0.00     0.006 C 
HETATM   35  C19 UNL     1      -6.309   6.121  17.053  1.00  0.00     0.040 C 
HETATM   36  C20 UNL     1      -6.661   7.538  16.762  1.00  0.00     0.199 C 
HETATM   37  F2  UNL     1      -5.686   8.224  16.070  1.00  0.00    -0.247 F 
ENDBRANCH  31  32
ENDBRANCH   9  31
TORSDOF 8
ENDMDL
MODEL 2
REMARK VINA RESULT: -8.645761361      1.036      1.135
REMARK  8 active torsions:
REMARK  status: ('A' for Active; 'I' for Inactive)
REMARK    1  A    between atoms: C3_3  and  N1_4 
REMARK    2  A    between atoms: C6_9  and  C7_10 
REMARK    3  A    between atoms: C7_10  and  O3_12 
REMARK    4  A    between atoms: C9_16  and  N3_17 
REMARK    5  A    between atoms: N3_17  and  C10_19 
REMARK    6  A    between atoms: C10_19  and  C12_21 
REMARK    7  A    between atoms: C15_30  and  O4_31 
REMARK    8  A    between atoms: O4_31  and  C16_32 
ROOT
HETATM    1  C1  UNL     1      -4.963  10.649  16.957  1.00  0.00     0.057 C 
HETATM    2  C2  UNL     1      -4.655  10.547  18.382  1.00  0.00     0.035 A 
HETATM    3  C3  UNL     1      -3.754  11.418  18.939  1.00  0.00     0.138 A 
HETATM    4  N2  UNL     1      -3.546  11.225  20.284  1.00  0.00    -0.176 N 
ATOM      5  H2  UNL     1      -2.885  11.842  20.755  1.00  0.00     0.186 HD
HETATM    6  C9  UNL     1      -4.145  10.291  21.012  1.00  0.00     0.682 A 
HETATM    7  N5  UNL     1      -5.014   9.466  20.426  1.00  0.00    -0.170 N 
ATOM      8  H5  UNL     1      -5.469   8.751  20.993  1.00  0.00     0.186 HD
HETATM    9  C15 UNL     1      -5.320   9.540  19.100  1.00  0.00     0.167 A 
ENDROOT
BRANCH   6  10
HETATM   10  N3  UNL     1      -3.931  10.129  22.279  1.00  0.00    -0.216 N 
ATOM     11  H3  UNL     1      -4.199   9.249  22.721  1.00  0.00     0.178 HD
BRANCH  10  12
HETATM   12  C10 UNL     1      -3.327  11.159  23.078  1.00  0.00     0.145 C 
HETATM   13  C11 UNL     1      -4.335  12.069  23.705  1.00  0.00     0.039 C 
BRANCH  12  14
HETATM   14  C12 UNL     1      -2.484  10.535  24.177  1.00  0.00     0.041 A 
HETATM   15  C13 UNL     1      -2.924  10.556  25.479  1.00  0.00     0.081 A 
HETATM   16  S1  UNL     1      -1.645   9.753  26.282  1.00  0.00    -0.051 SA
HETATM   17  C14 UNL     1      -0.645   9.445  24.933  1.00  0.00     0.231 A 
HETATM   18  F1  UNL     1       0.580   8.813  24.860  1.00  0.00    -0.178 F 
HETATM   19  N4  UNL     1      -1.344   9.973  23.940  1.00  0.00    -0.328 N 
ATOM     20  H4  UNL     1      -0.982   9.937  22.987  1.00  0.00     0.168 HD
ENDBRANCH  12  14
ENDBRANCH  10  12
ENDBRANCH   6  10
BRANCH   3  21
HETATM   21  N1  UNL     1      -3.081  12.446  18.254  1.00  0.00    -0.269 N 
HETATM   22  C4  UNL     1      -1.671  12.710  18.539  1.00  0.00     0.369 C 
HETATM   23  O1  UNL     1      -0.856  11.867  19.008  1.00  0.00    -0.238 OA
HETATM   24  O2  UNL     1      -1.376  14.026  18.215  1.00  0.00    -0.301 OA
HETATM   25  C5  UNL     1      -2.603  14.640  17.923  1.00  0.00     0.209 C 
HETATM   26  C6  UNL     1      -3.348  13.430  17.267  1.00  0.00     0.149 C 
BRANCH  26  27
HETATM   27  C7  UNL     1      -2.649  13.273  15.951  1.00  0.00     0.139 C 
HETATM   28  C8  UNL     1      -3.466  13.325  14.724  1.00  0.00     0.041 C 
BRANCH  27  29
HETATM   29  O3  UNL     1      -1.831  12.151  15.865  1.00  0.00    -0.394 OA
ATOM     30  H3  UNL     1      -1.776  11.641  16.664  1.00  0.00     0.210 HD
ENDBRANCH  27  29
ENDBRANCH  26  27
ENDBRANCH   3  21
BRANCH   9  31
HETATM   31  O4  UNL     1      -6.162   8.731  18.572  1.00  0.00    -0.327 OA
BRANCH  31  32
HETATM   32  C16 UNL     1      -7.044   7.904  18.091  1.00  0.00     0.164 C 
HETATM   33  C17 UNL     1      -7.139   6.674  19.025  1.00  0.00     0.035 C 
HETATM   34  C18 UNL     1      -5.983   5.849  18.511  1.00  0.00     0.006 C 
HETATM   35  C19 UNL     1      -6.273   5.845  17.026  1.00  0.00     0.040 C 
HETATM   36  C20 UNL     1      -6.727   7.237  16.760  1.00  0.00     0.199 C 
HETATM   37  F2  UNL     1      -5.835   7.982  16.018  1.00  0.00    -0.247 F 
ENDBRANCH  31  32
ENDBRANCH   9  31
TORSDOF 8
ENDMDL
MODEL 3
REMARK VINA RESULT: -8.419482004      1.733      2.296
REMARK  8 active torsions:
REMARK  status: ('A' for Active; 'I' for Inactive)
REMARK    1  A    between atoms: C3_3  and  N1_4 
REMARK    2  A    between atoms: C6_9  and  C7_10 
REMARK    3  A    between atoms: C7_10  and  O3_12 
REMARK    4  A    between atoms: C9_16  and  N3_17 
REMARK    5  A    between atoms: N3_17  and  C10_19 
REMARK    6  A    between atoms: C10_19  and  C12_21 
REMARK    7  A    between atoms: C15_30  and  O4_31 
REMARK    8  A    between atoms: O4_31  and  C16_32 
ROOT
HETATM    1  C1  UNL     1      -4.319  11.846  17.713  1.00  0.00     0.057 C 
HETATM    2  C2  UNL     1      -4.060  11.458  19.099  1.00  0.00     0.035 A 
HETATM    3  C3  UNL     1      -3.409  12.332  19.931  1.00  0.00     0.138 A 
HETATM    4  N2  UNL     1      -3.223  11.856  21.207  1.00  0.00    -0.176 N 
ATOM      5  H2  UNL     1      -2.743  12.461  21.874  1.00  0.00     0.186 HD
HETATM    6  C9  UNL     1      -3.625  10.666  21.633  1.00  0.00     0.682 A 
HETATM    7  N5  UNL     1      -4.255   9.850  20.787  1.00  0.00    -0.170 N 
ATOM      8  H5  UNL     1      -4.559   8.936  21.122  1.00  0.00     0.186 HD
HETATM    9  C15 UNL     1      -4.509  10.187  19.491  1.00  0.00     0.167 A 
ENDROOT
BRANCH   6  10
HETATM   10  N3  UNL     1      -3.438  10.241  22.843  1.00  0.00    -0.216 N 
ATOM     11  H3  UNL     1      -3.522   9.243  23.038  1.00  0.00     0.178 HD
BRANCH  10  12
HETATM   12  C10 UNL     1      -3.114  11.140  23.915  1.00  0.00     0.145 C 
HETATM   13  C11 UNL     1      -4.319  11.834  24.469  1.00  0.00     0.039 C 
BRANCH  12  14
HETATM   14  C12 UNL     1      -2.429  10.383  25.039  1.00  0.00     0.041 A 
HETATM   15  C13 UNL     1      -1.153   9.901  24.868  1.00  0.00     0.081 A 
HETATM   16  S1  UNL     1      -0.868   9.154  26.380  1.00  0.00    -0.051 SA
HETATM   17  C14 UNL     1      -2.365   9.495  27.125  1.00  0.00     0.231 A 
HETATM   18  F1  UNL     1      -2.825   9.173  28.385  1.00  0.00    -0.178 F 
HETATM   19  N4  UNL     1      -3.004  10.163  26.176  1.00  0.00    -0.328 N 
ATOM     20  H4  UNL     1      -3.951  10.504  26.343  1.00  0.00     0.168 HD
ENDBRANCH  12  14
ENDBRANCH  10  12
ENDBRANCH   6  10
BRANCH   3  21
HETATM   21  N1  UNL     1      -2.958  13.616  19.576  1.00  0.00    -0.269 N 
HETATM   22  C4  UNL     1      -3.707  14.797  20.008  1.00  0.00     0.369 C 
HETATM   23  O1  UNL     1      -4.467  14.845  21.015  1.00  0.00    -0.238 OA
HETATM   24  O2  UNL     1      -3.448  15.846  19.139  1.00  0.00    -0.301 OA
HETATM   25  C5  UNL     1      -2.719  15.300  18.073  1.00  0.00     0.209 C 
HETATM   26  C6  UNL     1      -1.898  14.217  18.849  1.00  0.00     0.149 C 
BRANCH  26  27
HETATM   27  C7  UNL     1      -0.918  15.032  19.635  1.00  0.00     0.139 C 
HETATM   28  C8  UNL     1      -0.097  16.019  18.908  1.00  0.00     0.041 C 
BRANCH  27  29
HETATM   29  O3  UNL     1      -0.062  14.285  20.439  1.00  0.00    -0.394 OA
ATOM     30  H3  UNL     1      -0.354  13.396  20.605  1.00  0.00     0.210 HD
ENDBRANCH  27  29
ENDBRANCH  26  27
ENDBRANCH   3  21
BRANCH   9  31
HETATM   31  O4  UNL     1      -5.119   9.377  18.707  1.00  0.00    -0.327 OA
BRANCH  31  32
HETATM   32  C16 UNL     1      -5.786   8.558  17.948  1.00  0.00     0.164 C 
HETATM   33  C17 UNL     1      -7.300   8.812  18.148  1.00  0.00     0.035 C 
HETATM   34  C18 UNL     1      -7.556   7.983  19.384  1.00  0.00     0.006 C 
HETATM   35  C19 UNL     1      -6.936   6.665  18.978  1.00  0.00     0.040 C 
HETATM   36  C20 UNL     1      -5.694   7.073  18.266  1.00  0.00     0.199 C 
HETATM   37  F2  UNL     1      -4.535   6.771  18.948  1.00  0.00    -0.247 F 
ENDBRANCH  31  32
ENDBRANCH   9  31
TORSDOF 8
ENDMDL
MODEL 4
REMARK VINA RESULT: -8.405986801      3.460      6.568
REMARK  8 active torsions:
REMARK  status: ('A' for Active; 'I' for Inactive)
REMARK    1  A    between atoms: C3_3  and  N1_4 
REMARK    2  A    between atoms: C6_9  and  C7_10 
REMARK    3  A    between atoms: C7_10  and  O3_12 
REMARK    4  A    between atoms: C9_16  and  N3_17 
REMARK    5  A    between atoms: N3_17  and  C10_19 
REMARK    6  A    between atoms: C10_19  and  C12_21 
REMARK    7  A    between atoms: C15_30  and  O4_31 
REMARK    8  A    between atoms: O4_31  and  C16_32 
ROOT
HETATM    1  C1  UNL     1      -1.884  12.632  19.981  1.00  0.00     0.057 C 
HETATM    2  C2  UNL     1      -1.626  11.868  21.201  1.00  0.00     0.035 A 
HETATM    3  C3  UNL     1      -2.549  10.947  21.624  1.00  0.00     0.138 A 
HETATM    4  N2  UNL     1      -2.197  10.293  22.781  1.00  0.00    -0.176 N 
ATOM      5  H2  UNL     1      -2.845   9.596  23.148  1.00  0.00     0.186 HD
HETATM    6  C9  UNL     1      -1.074  10.506  23.454  1.00  0.00     0.682 A 
HETATM    7  N5  UNL     1      -0.206  11.413  23.003  1.00  0.00    -0.170 N 
ATOM      8  H5  UNL     1       0.654  11.570  23.527  1.00  0.00     0.186 HD
HETATM    9  C15 UNL     1      -0.421  12.137  21.869  1.00  0.00     0.167 A 
ENDROOT
BRANCH   6  10
HETATM   10  N3  UNL     1      -0.765   9.876  24.543  1.00  0.00    -0.216 N 
ATOM     11  H3  UNL     1      -0.064   9.136  24.509  1.00  0.00     0.178 HD
BRANCH  10  12
HETATM   12  C10 UNL     1      -1.387  10.195  25.799  1.00  0.00     0.145 C 
HETATM   13  C11 UNL     1      -2.758  10.768  25.634  1.00  0.00     0.039 C 
BRANCH  12  14
HETATM   14  C12 UNL     1      -1.481   8.949  26.662  1.00  0.00     0.041 A 
HETATM   15  C13 UNL     1      -2.453   8.851  27.629  1.00  0.00     0.081 A 
HETATM   16  S1  UNL     1      -2.123   7.307  28.287  1.00  0.00    -0.051 SA
HETATM   17  C14 UNL     1      -0.790   6.887  27.307  1.00  0.00     0.231 A 
HETATM   18  F1  UNL     1      -0.015   5.745  27.302  1.00  0.00    -0.178 F 
HETATM   19  N4  UNL     1      -0.668   7.952  26.529  1.00  0.00    -0.328 N 
ATOM     20  H4  UNL     1       0.068   7.985  25.823  1.00  0.00     0.168 HD
ENDBRANCH  12  14
ENDBRANCH  10  12
ENDBRANCH   6  10
BRANCH   3  21
HETATM   21  N1  UNL     1      -3.759  10.643  20.973  1.00  0.00    -0.269 N 
HETATM   22  C4  UNL     1      -4.979  11.369  21.326  1.00  0.00     0.369 C 
HETATM   23  O1  UNL     1      -5.014  12.525  21.831  1.00  0.00    -0.238 OA
HETATM   24  O2  UNL     1      -6.082  10.587  21.017  1.00  0.00    -0.301 OA
HETATM   25  C5  UNL     1      -5.581   9.324  20.668  1.00  0.00     0.209 C 
HETATM   26  C6  UNL     1      -4.246   9.759  19.976  1.00  0.00     0.149 C 
BRANCH  26  27
HETATM   27  C7  UNL     1      -4.713  10.379  18.695  1.00  0.00     0.139 C 
HETATM   28  C8  UNL     1      -5.453   9.529  17.743  1.00  0.00     0.041 C 
BRANCH  27  29
HETATM   29  O3  UNL     1      -3.720  11.043  17.981  1.00  0.00    -0.394 OA
ATOM     30  H3  UNL     1      -3.669  10.805  17.063  1.00  0.00     0.210 HD
ENDBRANCH  27  29
ENDBRANCH  26  27
ENDBRANCH   3  21
BRANCH   9  31
HETATM   31  O4  UNL     1       0.437  12.999  21.465  1.00  0.00    -0.327 OA
BRANCH  31  32
HETATM   32  C16 UNL     1       1.347  13.827  21.043  1.00  0.00     0.164 C 
HETATM   33  C17 UNL     1       2.304  14.160  22.213  1.00  0.00     0.035 C 
HETATM   34  C18 UNL     1       1.524  15.257  22.900  1.00  0.00     0.006 C 
HETATM   35  C19 UNL     1       1.222  16.168  21.731  1.00  0.00     0.040 C 
HETATM   36  C20 UNL     1       0.891  15.220  20.632  1.00  0.00     0.199 C 
HETATM   37  F2  UNL     1      -0.438  15.232  20.267  1.00  0.00    -0.247 F 
ENDBRANCH  31  32
ENDBRANCH   9  31
TORSDOF 8
ENDMDL
MODEL 5
REMARK VINA RESULT: -8.343000131      1.483      1.961
REMARK  8 active torsions:
REMARK  status: ('A' for Active; 'I' for Inactive)
REMARK    1  A    between atoms: C3_3  and  N1_4 
REMARK    2  A    between atoms: C6_9  and  C7_10 
REMARK    3  A    between atoms: C7_10  and  O3_12 
REMARK    4  A    between atoms: C9_16  and  N3_17 
REMARK    5  A    between atoms: N3_17  and  C10_19 
REMARK    6  A    between atoms: C10_19  and  C12_21 
REMARK    7  A    between atoms: C15_30  and  O4_31 
REMARK    8  A    between atoms: O4_31  and  C16_32 
ROOT
HETATM    1  C1  UNL     1      -5.702  10.473  16.352  1.00  0.00     0.057 C 
HETATM    2  C2  UNL     1      -4.946  10.419  17.603  1.00  0.00     0.035 A 
HETATM    3  C3  UNL     1      -4.010  11.386  17.864  1.00  0.00     0.138 A 
HETATM    4  N2  UNL     1      -3.365  11.230  19.068  1.00  0.00    -0.176 N 
ATOM      5  H2  UNL     1      -2.655  11.918  19.319  1.00  0.00     0.186 HD
HETATM    6  C9  UNL     1      -3.601  10.246  19.927  1.00  0.00     0.682 A 
HETATM    7  N5  UNL     1      -4.522   9.328  19.628  1.00  0.00    -0.170 N 
ATOM      8  H5  UNL     1      -4.696   8.575  20.294  1.00  0.00     0.186 HD
HETATM    9  C15 UNL     1      -5.240   9.356  18.471  1.00  0.00     0.167 A 
ENDROOT
BRANCH   6  10
HETATM   10  N3  UNL     1      -2.979  10.121  21.056  1.00  0.00    -0.216 N 
ATOM     11  H3  UNL     1      -2.492   9.249  21.262  1.00  0.00     0.178 HD
BRANCH  10  12
HETATM   12  C10 UNL     1      -2.958  11.181  22.025  1.00  0.00     0.145 C 
HETATM   13  C11 UNL     1      -4.326  11.691  22.351  1.00  0.00     0.039 C 
BRANCH  12  14
HETATM   14  C12 UNL     1      -2.301  10.699  23.307  1.00  0.00     0.041 A 
HETATM   15  C13 UNL     1      -0.992  10.281  23.296  1.00  0.00     0.081 A 
HETATM   16  S1  UNL     1      -0.757   9.856  24.935  1.00  0.00    -0.051 SA
HETATM   17  C14 UNL     1      -2.314  10.231  25.526  1.00  0.00     0.231 A 
HETATM   18  F1  UNL     1      -2.830  10.125  26.801  1.00  0.00    -0.178 F 
HETATM   19  N4  UNL     1      -2.930  10.661  24.435  1.00  0.00    -0.328 N 
ATOM     20  H4  UNL     1      -3.903  10.963  24.487  1.00  0.00     0.168 HD
ENDBRANCH  12  14
ENDBRANCH  10  12
ENDBRANCH   6  10
BRANCH   3  21
HETATM   21  N1  UNL     1      -3.700  12.472  17.025  1.00  0.00    -0.269 N 
HETATM   22  C4  UNL     1      -4.615  13.609  16.935  1.00  0.00     0.369 C 
HETATM   23  O1  UNL     1      -5.439  13.948  17.829  1.00  0.00    -0.238 OA
HETATM   24  O2  UNL     1      -4.432  14.250  15.719  1.00  0.00    -0.301 OA
HETATM   25  C5  UNL     1      -3.573  13.430  14.971  1.00  0.00     0.209 C 
HETATM   26  C6  UNL     1      -2.677  12.874  16.127  1.00  0.00     0.149 C 
BRANCH  26  27
HETATM   27  C7  UNL     1      -1.858  14.063  16.526  1.00  0.00     0.139 C 
HETATM   28  C8  UNL     1      -0.929  14.629  15.531  1.00  0.00     0.041 C 
BRANCH  27  29
HETATM   29  O3  UNL     1      -1.154  13.904  17.716  1.00  0.00    -0.394 OA
ATOM     30  H3  UNL     1      -0.428  14.507  17.827  1.00  0.00     0.210 HD
ENDBRANCH  27  29
ENDBRANCH  26  27
ENDBRANCH   3  21
BRANCH   9  31
HETATM   31  O4  UNL     1      -6.119   8.457  18.219  1.00  0.00    -0.327 OA
BRANCH  31  32
HETATM   32  C16 UNL     1      -7.045   7.568  18.009  1.00  0.00     0.164 C 
HETATM   33  C17 UNL     1      -6.956   6.482  19.109  1.00  0.00     0.035 C 
HETATM   34  C18 UNL     1      -5.877   5.596  18.531  1.00  0.00     0.006 C 
HETATM   35  C19 UNL     1      -6.404   5.381  17.130  1.00  0.00     0.040 C 
HETATM   36  C20 UNL     1      -6.931   6.721  16.750  1.00  0.00     0.199 C 
HETATM   37  F2  UNL     1      -6.191   7.356  15.776  1.00  0.00    -0.247 F 
ENDBRANCH  31  32
ENDBRANCH   9  31
TORSDOF 8
ENDMDL
