MODEL 1
REMARK VINA RESULT: -8.612506694      0.000      0.000
REMARK  6 active torsions:
REMARK  status: ('A' for Active; 'I' for Inactive)
REMARK    1  A    between atoms: N1_2  and  C2_3 
REMARK    2  A    between atoms: N1_2  and  C12_25 
REMARK    3  A    between atoms: N4_10  and  C5_12 
REMARK    4  A    between atoms: C7_14  and  C8_15 
REMARK    5  A    between atoms: C14_27  and  N8_28 
REMARK    6  A    between atoms: N8_28  and  C15_31 
ROOT
HETATM    1  C2  UNL     1      -2.841  10.838  21.271  1.00  0.00     0.695 A 
HETATM    2  N2  UNL     1      -2.290  10.344  22.384  1.00  0.00    -0.187 N 
ATOM      3  H2  UNL     1      -2.770   9.585  22.868  1.00  0.00     0.185 HD
HETATM    4  C3  UNL     1      -1.131  10.801  22.898  1.00  0.00     0.215 A 
HETATM    5  N3  UNL     1      -0.460  11.811  22.283  1.00  0.00    -0.186 N 
ATOM      6  H3  UNL     1       0.418  12.165  22.663  1.00  0.00     0.185 HD
HETATM    7  C4  UNL     1      -0.984  12.329  21.164  1.00  0.00     0.699 A 
HETATM    8  N4  UNL     1      -0.417  13.314  20.569  1.00  0.00    -0.176 N 
ATOM      9  H4  UNL     1      -0.878  13.648  19.723  1.00  0.00     0.186 HD
HETATM   10  N7  UNL     1      -2.149  11.845  20.678  1.00  0.00    -0.022 N 
ATOM     11  H7  UNL     1      -2.526  12.256  19.823  1.00  0.00     0.203 HD
ENDROOT
BRANCH   1  12
HETATM   12  N1  UNL     1      -4.078  10.418  20.717  1.00  0.00    -0.217 N 
HETATM   13  C1  UNL     1      -5.262  10.718  21.511  1.00  0.00     0.169 C 
BRANCH  12  14
HETATM   14  C12 UNL     1      -4.193   9.756  19.454  1.00  0.00     0.105 C 
HETATM   15  C13 UNL     1      -5.411  10.031  18.625  1.00  0.00     0.059 C 
HETATM   16  C14 UNL     1      -5.682   8.559  18.533  1.00  0.00     0.190 C 
HETATM   17  C22 UNL     1      -4.688   8.305  19.607  1.00  0.00     0.059 C 
BRANCH  16  18
HETATM   18  N8  UNL     1      -7.071   8.205  18.812  1.00  0.00    -0.065 N 
ATOM     19  H82 UNL     1      -7.179   7.700  19.692  1.00  0.00     0.278 HD
ATOM     20  H81 UNL     1      -7.643   9.016  19.047  1.00  0.00     0.278 HD
BRANCH  18  21
HETATM   21  C15 UNL     1      -7.598   7.455  17.661  1.00  0.00     0.213 C 
HETATM   22  C16 UNL     1      -7.955   8.364  16.546  1.00  0.00     0.065 C 
HETATM   23  C17 UNL     1      -7.485   7.910  15.209  1.00  0.00     0.025 C 
HETATM   24  C18 UNL     1      -8.404   8.509  14.164  1.00  0.00     0.038 C 
HETATM   25  C19 UNL     1      -6.084   8.390  14.897  1.00  0.00     0.038 C 
HETATM   26  N9  UNL     1      -7.581   6.457  15.067  1.00  0.00    -0.372 N 
HETATM   27  C20 UNL     1      -7.208   5.700  16.033  1.00  0.00     0.110 C 
ATOM     28  H9  UNL     1      -7.943   6.048  14.206  1.00  0.00     0.161 HD
HETATM   29  N10 UNL     1      -7.289   4.312  15.931  1.00  0.00    -0.086 NA
HETATM   30  C21 UNL     1      -6.686   6.351  17.243  1.00  0.00     0.177 C 
HETATM   31 CL1  UNL     1      -6.442   5.167  18.562  1.00  0.00    -0.115 Cl
ENDBRANCH  18  21
ENDBRANCH  16  18
ENDBRANCH  12  14
ENDBRANCH   1  12
BRANCH   8  32
HETATM   32  C5  UNL     1       0.749  13.987  20.933  1.00  0.00     0.123 A 
HETATM   33  C6  UNL     1       1.041  15.305  20.730  1.00  0.00     0.074 A 
HETATM   34  C7  UNL     1       2.247  15.802  21.178  1.00  0.00     0.017 A 
HETATM   35  N5  UNL     1       3.113  14.985  21.806  1.00  0.00    -0.355 N 
HETATM   36  C11 UNL     1       2.838  13.697  22.010  1.00  0.00     0.182 A 
ATOM     37  H5  UNL     1       4.002  15.361  22.135  1.00  0.00     0.166 HD
HETATM   38  N6  UNL     1       1.686  13.219  21.580  1.00  0.00    -0.338 N 
ATOM     39  H6  UNL     1       1.480  12.232  21.737  1.00  0.00     0.168 HD
BRANCH  34  40
HETATM   40  C8  UNL     1       2.638  17.224  20.993  1.00  0.00     0.036 A 
HETATM   41  C9  UNL     1       2.220  18.023  19.837  1.00  0.00     0.011 A 
HETATM   42  C10 UNL     1       3.586  17.421  19.836  1.00  0.00     0.011 A 
ENDBRANCH  34  40
ENDBRANCH   8  32
TORSDOF 6
ENDMDL
MODEL 2
REMARK VINA RESULT: -8.611102804      3.601      5.517
REMARK  6 active torsions:
REMARK  status: ('A' for Active; 'I' for Inactive)
REMARK    1  A    between atoms: N1_2  and  C2_3 
REMARK    2  A    between atoms: N1_2  and  C12_25 
REMARK    3  A    between atoms: N4_10  and  C5_12 
REMARK    4  A    between atoms: C7_14  and  C8_15 
REMARK    5  A    between atoms: C14_27  and  N8_28 
REMARK    6  A    between atoms: N8_28  and  C15_31 
ROOT
HETATM    1  C2  UNL     1      -3.315  11.679  20.394  1.00  0.00     0.695 A 
HETATM    2  N2  UNL     1      -2.533  10.734  19.865  1.00  0.00    -0.187 N 
ATOM      3  H2  UNL     1      -2.517  10.628  18.851  1.00  0.00     0.185 HD
HETATM    4  C3  UNL     1      -1.764   9.913  20.608  1.00  0.00     0.215 A 
HETATM    5  N3  UNL     1      -1.757  10.021  21.963  1.00  0.00    -0.186 N 
ATOM      6  H3  UNL     1      -1.179   9.405  22.535  1.00  0.00     0.185 HD
HETATM    7  C4  UNL     1      -2.529  10.960  22.526  1.00  0.00     0.699 A 
HETATM    8  N4  UNL     1      -2.595  11.075  23.802  1.00  0.00    -0.176 N 
ATOM      9  H4  UNL     1      -3.204  11.816  24.151  1.00  0.00     0.186 HD
HETATM   10  N7  UNL     1      -3.287  11.766  21.749  1.00  0.00    -0.022 N 
ATOM     11  H7  UNL     1      -3.866  12.473  22.202  1.00  0.00     0.203 HD
ENDROOT
BRANCH   1  12
HETATM   12  N1  UNL     1      -4.172  12.536  19.656  1.00  0.00    -0.217 N 
HETATM   13  C1  UNL     1      -3.642  13.860  19.358  1.00  0.00     0.169 C 
BRANCH  12  14
HETATM   14  C12 UNL     1      -5.474  12.151  19.203  1.00  0.00     0.105 C 
HETATM   15  C13 UNL     1      -6.232  11.147  20.016  1.00  0.00     0.059 C 
HETATM   16  C14 UNL     1      -6.417  10.297  18.795  1.00  0.00     0.190 C 
HETATM   17  C22 UNL     1      -5.405  11.107  18.072  1.00  0.00     0.059 C 
BRANCH  16  18
HETATM   18  N8  UNL     1      -6.110   8.886  19.017  1.00  0.00    -0.065 N 
ATOM     19  H82 UNL     1      -5.123   8.671  18.867  1.00  0.00     0.278 HD
ATOM     20  H81 UNL     1      -6.161   8.623  20.001  1.00  0.00     0.278 HD
BRANCH  18  21
HETATM   21  C15 UNL     1      -7.000   8.079  18.168  1.00  0.00     0.213 C 
HETATM   22  C16 UNL     1      -7.830   8.938  17.291  1.00  0.00     0.065 C 
HETATM   23  C17 UNL     1      -7.901   8.484  15.876  1.00  0.00     0.025 C 
HETATM   24  C18 UNL     1      -9.197   9.001  15.285  1.00  0.00     0.038 C 
HETATM   25  C19 UNL     1      -6.775   9.043  15.033  1.00  0.00     0.038 C 
HETATM   26  N9  UNL     1      -7.949   7.024  15.778  1.00  0.00    -0.372 N 
HETATM   27  C20 UNL     1      -7.174   6.315  16.513  1.00  0.00     0.110 C 
ATOM     28  H9  UNL     1      -8.596   6.575  15.130  1.00  0.00     0.161 HD
HETATM   29  N10 UNL     1      -7.197   4.922  16.446  1.00  0.00    -0.086 NA
HETATM   30  C21 UNL     1      -6.258   7.025  17.417  1.00  0.00     0.177 C 
HETATM   31 CL1  UNL     1      -5.432   5.888  18.525  1.00  0.00    -0.115 Cl
ENDBRANCH  18  21
ENDBRANCH  16  18
ENDBRANCH  12  14
ENDBRANCH   1  12
BRANCH   8  32
HETATM   32  C5  UNL     1      -1.942  10.318  24.774  1.00  0.00     0.123 A 
HETATM   33  C6  UNL     1      -2.451   9.878  25.960  1.00  0.00     0.074 A 
HETATM   34  C7  UNL     1      -1.655   9.118  26.792  1.00  0.00     0.017 A 
HETATM   35  N5  UNL     1      -0.395   8.823  26.422  1.00  0.00    -0.355 N 
HETATM   36  C11 UNL     1       0.112   9.248  25.265  1.00  0.00     0.182 A 
ATOM     37  H5  UNL     1       0.187   8.260  27.043  1.00  0.00     0.166 HD
HETATM   38  N6  UNL     1      -0.647   9.976  24.469  1.00  0.00    -0.338 N 
ATOM     39  H6  UNL     1      -0.253  10.300  23.585  1.00  0.00     0.168 HD
BRANCH  34  40
HETATM   40  C8  UNL     1      -2.137   8.604  28.100  1.00  0.00     0.036 A 
HETATM   41  C9  UNL     1      -1.807   7.267  28.604  1.00  0.00     0.011 A 
HETATM   42  C10 UNL     1      -3.134   7.481  27.953  1.00  0.00     0.011 A 
ENDBRANCH  34  40
ENDBRANCH   8  32
TORSDOF 6
ENDMDL
MODEL 3
REMARK VINA RESULT: -8.549240430      3.252     12.377
REMARK  6 active torsions:
REMARK  status: ('A' for Active; 'I' for Inactive)
REMARK    1  A    between atoms: N1_2  and  C2_3 
REMARK    2  A    between atoms: N1_2  and  C12_25 
REMARK    3  A    between atoms: N4_10  and  C5_12 
REMARK    4  A    between atoms: C7_14  and  C8_15 
REMARK    5  A    between atoms: C14_27  and  N8_28 
REMARK    6  A    between atoms: N8_28  and  C15_31 
ROOT
HETATM    1  C2  UNL     1      -6.792   6.720  17.633  1.00  0.00     0.695 A 
HETATM    2  N2  UNL     1      -7.224   7.264  16.492  1.00  0.00    -0.187 N 
ATOM      3  H2  UNL     1      -7.212   8.281  16.404  1.00  0.00     0.185 HD
HETATM    4  C3  UNL     1      -7.675   6.536  15.452  1.00  0.00     0.215 A 
HETATM    5  N3  UNL     1      -7.708   5.179  15.529  1.00  0.00    -0.186 N 
ATOM      6  H3  UNL     1      -8.048   4.618  14.747  1.00  0.00     0.185 HD
HETATM    7  C4  UNL     1      -7.282   4.600  16.659  1.00  0.00     0.699 A 
HETATM    8  N4  UNL     1      -7.334   3.326  16.802  1.00  0.00    -0.176 N 
ATOM      9  H4  UNL     1      -6.987   2.964  17.691  1.00  0.00     0.186 HD
HETATM   10  N7  UNL     1      -6.835   5.363  17.682  1.00  0.00    -0.022 N 
ATOM     11  H7  UNL     1      -6.515   4.897  18.531  1.00  0.00     0.203 HD
ENDROOT
BRANCH   1  12
HETATM   12  N1  UNL     1      -6.349   7.447  18.769  1.00  0.00    -0.217 N 
HETATM   13  C1  UNL     1      -7.331   7.623  19.831  1.00  0.00     0.169 C 
BRANCH  12  14
HETATM   14  C12 UNL     1      -5.025   7.972  18.902  1.00  0.00     0.105 C 
HETATM   15  C13 UNL     1      -4.657   8.628  20.197  1.00  0.00     0.059 C 
HETATM   16  C14 UNL     1      -4.221   9.855  19.452  1.00  0.00     0.190 C 
HETATM   17  C22 UNL     1      -4.879   9.347  18.222  1.00  0.00     0.059 C 
BRANCH  16  18
HETATM   18  N8  UNL     1      -4.739  11.096  20.023  1.00  0.00    -0.065 N 
ATOM     19  H82 UNL     1      -5.389  11.574  19.399  1.00  0.00     0.278 HD
ATOM     20  H81 UNL     1      -5.383  10.934  20.796  1.00  0.00     0.278 HD
BRANCH  18  21
HETATM   21  C15 UNL     1      -3.597  11.942  20.405  1.00  0.00     0.213 C 
HETATM   22  C16 UNL     1      -2.959  11.451  21.649  1.00  0.00     0.065 C 
HETATM   23  C17 UNL     1      -1.472  11.397  21.596  1.00  0.00     0.025 C 
HETATM   24  C18 UNL     1      -0.951  11.517  23.013  1.00  0.00     0.038 C 
HETATM   25  C19 UNL     1      -0.961  10.084  21.043  1.00  0.00     0.038 C 
HETATM   26  N9  UNL     1      -0.917  12.528  20.850  1.00  0.00    -0.372 N 
HETATM   27  C20 UNL     1      -1.463  12.888  19.747  1.00  0.00     0.110 C 
ATOM     28  H9  UNL     1      -0.101  13.026  21.205  1.00  0.00     0.161 HD
HETATM   29  N10 UNL     1      -0.960  13.961  19.013  1.00  0.00    -0.086 NA
HETATM   30  C21 UNL     1      -2.629  12.121  19.285  1.00  0.00     0.177 C 
HETATM   31 CL1  UNL     1      -3.399  12.903  17.871  1.00  0.00    -0.115 Cl
ENDBRANCH  18  21
ENDBRANCH  16  18
ENDBRANCH  12  14
ENDBRANCH   1  12
BRANCH   8  32
HETATM   32  C5  UNL     1      -7.804   2.373  15.899  1.00  0.00     0.123 A 
HETATM   33  C6  UNL     1      -8.801   2.525  14.981  1.00  0.00     0.074 A 
HETATM   34  C7  UNL     1      -9.118   1.468  14.153  1.00  0.00     0.017 A 
HETATM   35  N5  UNL     1      -8.442   0.309  14.262  1.00  0.00    -0.355 N 
HETATM   36  C11 UNL     1      -7.466   0.150  15.156  1.00  0.00     0.182 A 
ATOM     37  H5  UNL     1      -8.682  -0.467  13.646  1.00  0.00     0.166 HD
HETATM   38  N6  UNL     1      -7.162   1.159  15.950  1.00  0.00    -0.338 N 
ATOM     39  H6  UNL     1      -6.415   1.032  16.633  1.00  0.00     0.168 HD
BRANCH  34  40
HETATM   40  C8  UNL     1     -10.192   1.555  13.130  1.00  0.00     0.036 A 
HETATM   41  C9  UNL     1     -10.280   0.645  11.984  1.00  0.00     0.011 A 
HETATM   42  C10 UNL     1      -9.677   1.996  11.781  1.00  0.00     0.011 A 
ENDBRANCH  34  40
ENDBRANCH   8  32
TORSDOF 6
ENDMDL
MODEL 4
REMARK VINA RESULT: -8.528928250      3.735      5.084
REMARK  6 active torsions:
REMARK  status: ('A' for Active; 'I' for Inactive)
REMARK    1  A    between atoms: N1_2  and  C2_3 
REMARK    2  A    between atoms: N1_2  and  C12_25 
REMARK    3  A    between atoms: N4_10  and  C5_12 
REMARK    4  A    between atoms: C7_14  and  C8_15 
REMARK    5  A    between atoms: C14_27  and  N8_28 
REMARK    6  A    between atoms: N8_28  and  C15_31 
ROOT
HETATM    1  C2  UNL     1      -7.239  12.751  21.140  1.00  0.00     0.695 A 
HETATM    2  N2  UNL     1      -6.591  13.917  21.201  1.00  0.00    -0.187 N 
ATOM      3  H2  UNL     1      -7.102  14.770  20.970  1.00  0.00     0.185 HD
HETATM    4  C3  UNL     1      -5.295  14.023  21.554  1.00  0.00     0.215 A 
HETATM    5  N3  UNL     1      -4.578  12.911  21.870  1.00  0.00    -0.186 N 
ATOM      6  H3  UNL     1      -3.596  12.979  22.138  1.00  0.00     0.185 HD
HETATM    7  C4  UNL     1      -5.198  11.724  21.819  1.00  0.00     0.699 A 
HETATM    8  N4  UNL     1      -4.557  10.640  22.062  1.00  0.00    -0.176 N 
ATOM      9  H4  UNL     1      -5.102   9.779  22.005  1.00  0.00     0.186 HD
HETATM   10  N7  UNL     1      -6.500  11.658  21.461  1.00  0.00    -0.022 N 
ATOM     11  H7  UNL     1      -6.948  10.742  21.431  1.00  0.00     0.203 HD
ENDROOT
BRANCH   1  12
HETATM   12  N1  UNL     1      -8.589  12.587  20.733  1.00  0.00    -0.217 N 
HETATM   13  C1  UNL     1      -9.597  13.032  21.686  1.00  0.00     0.169 C 
BRANCH  12  14
HETATM   14  C12 UNL     1      -8.971  12.040  19.467  1.00  0.00     0.105 C 
HETATM   15  C13 UNL     1      -9.449  10.621  19.430  1.00  0.00     0.059 C 
HETATM   16  C14 UNL     1      -8.433  10.305  18.374  1.00  0.00     0.190 C 
HETATM   17  C22 UNL     1      -7.749  11.596  18.639  1.00  0.00     0.059 C 
BRANCH  16  18
HETATM   18  N8  UNL     1      -7.678   9.083  18.641  1.00  0.00    -0.065 N 
ATOM     19  H82 UNL     1      -6.734   9.271  18.981  1.00  0.00     0.278 HD
ATOM     20  H81 UNL     1      -8.021   8.580  19.459  1.00  0.00     0.278 HD
BRANCH  18  21
HETATM   21  C15 UNL     1      -7.687   8.257  17.423  1.00  0.00     0.213 C 
HETATM   22  C16 UNL     1      -7.920   9.084  16.216  1.00  0.00     0.065 C 
HETATM   23  C17 UNL     1      -7.013   8.778  15.078  1.00  0.00     0.025 C 
HETATM   24  C18 UNL     1      -7.720   9.174  13.798  1.00  0.00     0.038 C 
HETATM   25  C19 UNL     1      -5.724   9.570  15.137  1.00  0.00     0.038 C 
HETATM   26  N9  UNL     1      -6.738   7.344  14.977  1.00  0.00    -0.372 N 
HETATM   27  C20 UNL     1      -6.484   6.671  16.038  1.00  0.00     0.110 C 
ATOM     28  H9  UNL     1      -6.748   6.882  14.067  1.00  0.00     0.161 HD
HETATM   29  N10 UNL     1      -6.220   5.304  15.977  1.00  0.00    -0.086 NA
HETATM   30  C21 UNL     1      -6.472   7.399  17.316  1.00  0.00     0.177 C 
HETATM   31 CL1  UNL     1      -6.340   6.273  18.701  1.00  0.00    -0.115 Cl
ENDBRANCH  18  21
ENDBRANCH  16  18
ENDBRANCH  12  14
ENDBRANCH   1  12
BRANCH   8  32
HETATM   32  C5  UNL     1      -3.212  10.486  22.394  1.00  0.00     0.123 A 
HETATM   33  C6  UNL     1      -2.671  10.427  23.645  1.00  0.00     0.074 A 
HETATM   34  C7  UNL     1      -1.309  10.251  23.780  1.00  0.00     0.017 A 
HETATM   35  N5  UNL     1      -0.539  10.142  22.681  1.00  0.00    -0.355 N 
HETATM   36  C11 UNL     1      -1.057  10.199  21.455  1.00  0.00     0.182 A 
ATOM     37  H5  UNL     1       0.467  10.013  22.790  1.00  0.00     0.166 HD
HETATM   38  N6  UNL     1      -2.359  10.368  21.323  1.00  0.00    -0.338 N 
ATOM     39  H6  UNL     1      -2.751  10.413  20.383  1.00  0.00     0.168 HD
BRANCH  34  40
HETATM   40  C8  UNL     1      -0.645  10.178  25.107  1.00  0.00     0.036 A 
HETATM   41  C9  UNL     1      -0.126   8.929  25.673  1.00  0.00     0.011 A 
HETATM   42  C10 UNL     1      -1.462   9.420  26.126  1.00  0.00     0.011 A 
ENDBRANCH  34  40
ENDBRANCH   8  32
TORSDOF 6
ENDMDL
MODEL 5
REMARK VINA RESULT: -8.487134271      4.389      6.223
REMARK  6 active torsions:
REMARK  status: ('A' for Active; 'I' for Inactive)
REMARK    1  A    between atoms: N1_2  and  C2_3 
REMARK    2  A    between atoms: N1_2  and  C12_25 
REMARK    3  A    between atoms: N4_10  and  C5_12 
REMARK    4  A    between atoms: C7_14  and  C8_15 
REMARK    5  A    between atoms: C14_27  and  N8_28 
REMARK    6  A    between atoms: N8_28  and  C15_31 
ROOT
HETATM    1  C2  UNL     1      -5.234  13.144  22.584  1.00  0.00     0.695 A 
HETATM    2  N2  UNL     1      -5.790  13.283  23.790  1.00  0.00    -0.187 N 
ATOM      3  H2  UNL     1      -6.600  13.897  23.883  1.00  0.00     0.185 HD
HETATM    4  C3  UNL     1      -5.334  12.652  24.890  1.00  0.00     0.215 A 
HETATM    5  N3  UNL     1      -4.258  11.825  24.808  1.00  0.00    -0.186 N 
ATOM      6  H3  UNL     1      -3.904  11.342  25.635  1.00  0.00     0.185 HD
HETATM    7  C4  UNL     1      -3.676  11.662  23.613  1.00  0.00     0.699 A 
HETATM    8  N4  UNL     1      -2.629  10.930  23.488  1.00  0.00    -0.176 N 
ATOM      9  H4  UNL     1      -2.248  10.856  22.545  1.00  0.00     0.186 HD
HETATM   10  N7  UNL     1      -4.161  12.312  22.531  1.00  0.00    -0.022 N 
ATOM     11  H7  UNL     1      -3.700  12.170  21.633  1.00  0.00     0.203 HD
ENDROOT
BRANCH   1  12
HETATM   12  N1  UNL     1      -5.652  13.820  21.408  1.00  0.00    -0.217 N 
HETATM   13  C1  UNL     1      -5.422  15.258  21.388  1.00  0.00     0.169 C 
BRANCH  12  14
HETATM   14  C12 UNL     1      -6.249  13.159  20.288  1.00  0.00     0.105 C 
HETATM   15  C13 UNL     1      -6.252  11.662  20.276  1.00  0.00     0.059 C 
HETATM   16  C14 UNL     1      -5.604  11.670  18.924  1.00  0.00     0.190 C 
HETATM   17  C22 UNL     1      -5.302  13.116  19.072  1.00  0.00     0.059 C 
BRANCH  16  18
HETATM   18  N8  UNL     1      -4.468  10.758  18.818  1.00  0.00    -0.065 N 
ATOM     19  H82 UNL     1      -3.618  11.225  18.500  1.00  0.00     0.278 HD
ATOM     20  H81 UNL     1      -4.125  10.451  19.728  1.00  0.00     0.278 HD
BRANCH  18  21
HETATM   21  C15 UNL     1      -4.854   9.635  17.949  1.00  0.00     0.213 C 
HETATM   22  C16 UNL     1      -5.118   8.411  18.741  1.00  0.00     0.065 C 
HETATM   23  C17 UNL     1      -6.357   7.684  18.353  1.00  0.00     0.025 C 
HETATM   24  C18 UNL     1      -6.182   6.228  18.733  1.00  0.00     0.038 C 
HETATM   25  C19 UNL     1      -7.578   8.192  19.090  1.00  0.00     0.038 C 
HETATM   26  N9  UNL     1      -6.572   7.716  16.906  1.00  0.00    -0.372 N 
HETATM   27  C20 UNL     1      -6.389   8.810  16.263  1.00  0.00     0.110 C 
ATOM     28  H9  UNL     1      -6.866   6.874  16.412  1.00  0.00     0.161 HD
HETATM   29  N10 UNL     1      -6.583   8.874  14.883  1.00  0.00    -0.086 NA
HETATM   30  C21 UNL     1      -5.978   9.991  17.035  1.00  0.00     0.177 C 
HETATM   31 CL1  UNL     1      -5.540  11.350  15.956  1.00  0.00    -0.115 Cl
ENDBRANCH  18  21
ENDBRANCH  16  18
ENDBRANCH  12  14
ENDBRANCH   1  12
BRANCH   8  32
HETATM   32  C5  UNL     1      -1.946  10.223  24.477  1.00  0.00     0.123 A 
HETATM   33  C6  UNL     1      -2.401   9.890  25.719  1.00  0.00     0.074 A 
HETATM   34  C7  UNL     1      -1.583   9.166  26.562  1.00  0.00     0.017 A 
HETATM   35  N5  UNL     1      -0.356   8.800  26.148  1.00  0.00    -0.355 N 
HETATM   36  C11 UNL     1       0.098   9.120  24.936  1.00  0.00     0.182 A 
ATOM     37  H5  UNL     1       0.242   8.264  26.777  1.00  0.00     0.166 HD
HETATM   38  N6  UNL     1      -0.682   9.814  24.129  1.00  0.00    -0.338 N 
ATOM     39  H6  UNL     1      -0.329  10.058  23.204  1.00  0.00     0.168 HD
BRANCH  34  40
HETATM   40  C8  UNL     1      -2.006   8.767  27.929  1.00  0.00     0.036 A 
HETATM   41  C9  UNL     1      -1.783   7.425  28.475  1.00  0.00     0.011 A 
HETATM   42  C10 UNL     1      -3.129   7.758  27.921  1.00  0.00     0.011 A 
ENDBRANCH  34  40
ENDBRANCH   8  32
TORSDOF 6
ENDMDL
