MODEL 1
REMARK VINA RESULT: -7.603120624      0.000      0.000
REMARK  7 active torsions:
REMARK  status: ('A' for Active; 'I' for Inactive)
REMARK    1  A    between atoms: C2_5  and  C3_7 
REMARK    2  A    between atoms: C5_12  and  N6_13 
REMARK    3  A    between atoms: N8_19  and  C7_21 
REMARK    4  A    between atoms: C7_21  and  C8_22 
REMARK    5  A    between atoms: C8_22  and  C9_23 
REMARK    6  A    between atoms: C9_23  and  O1_24 
REMARK    7  A    between atoms: O1_24  and  C10_25 
ROOT
HETATM    1  N1  UNL     1       0.085  78.821  25.156  1.00  0.00    -0.172 NA
HETATM    2  C1  UNL     1      -0.815  78.320  24.617  1.00  0.00     0.183 C 
HETATM    3  N2  UNL     1      -1.905  77.726  23.987  1.00  0.00    -0.281 N 
ATOM      4  H2  UNL     1      -2.008  77.808  22.975  1.00  0.00     0.179 HD
HETATM    5  C2  UNL     1      -2.807  77.061  24.679  1.00  0.00     0.142 C 
HETATM    6  N3  UNL     1      -2.576  76.999  26.078  1.00  0.00    -0.081 NA
ENDROOT
BRANCH   5   7
HETATM    7  C3  UNL     1      -3.967  76.502  24.019  1.00  0.00     0.092 A 
HETATM    8  C4  UNL     1      -3.817  75.283  23.396  1.00  0.00     0.149 A 
HETATM    9  N4  UNL     1      -2.601  74.552  23.426  1.00  0.00    -0.081 NA
HETATM   10  N5  UNL     1      -4.890  74.792  22.758  1.00  0.00    -0.178 N 
HETATM   11  C5  UNL     1      -6.054  75.462  22.731  1.00  0.00     0.678 A 
ATOM     12  H5  UNL     1      -4.821  73.893  22.283  1.00  0.00     0.185 HD
HETATM   13  N7  UNL     1      -6.196  76.652  23.344  1.00  0.00    -0.176 N 
HETATM   14  C6  UNL     1      -5.149  77.226  24.018  1.00  0.00     0.134 A 
ATOM     15  H7  UNL     1      -7.094  77.134  23.306  1.00  0.00     0.186 HD
HETATM   16  N8  UNL     1      -5.210  78.306  24.586  1.00  0.00    -0.375 N 
ATOM     17  H8  UNL     1      -4.292  78.485  24.993  1.00  0.00     0.161 HD
BRANCH  11  18
HETATM   18  N6  UNL     1      -7.049  74.927  22.093  1.00  0.00    -0.234 N 
ATOM     19  H62 UNL     1      -7.607  75.481  21.444  1.00  0.00     0.174 HD
ATOM     20  H61 UNL     1      -7.250  73.941  22.262  1.00  0.00     0.174 HD
ENDBRANCH  11  18
BRANCH  16  21
HETATM   21  C7  UNL     1      -6.009  79.376  24.900  1.00  0.00     0.123 C 
BRANCH  21  22
HETATM   22  C8  UNL     1      -5.929  80.470  23.829  1.00  0.00     0.046 C 
BRANCH  22  23
HETATM   23  C9  UNL     1      -7.211  80.584  23.067  1.00  0.00     0.182 C 
BRANCH  23  24
HETATM   24  O1  UNL     1      -7.868  79.369  22.958  1.00  0.00    -0.306 OA
BRANCH  24  25
HETATM   25  C10 UNL     1      -9.154  79.124  22.565  1.00  0.00     0.372 C 
HETATM   26  N9  UNL     1     -10.272  79.758  23.165  1.00  0.00    -0.032 NA
HETATM   27  O2  UNL     1      -9.378  78.306  21.634  1.00  0.00    -0.242 OA
ENDBRANCH  24  25
ENDBRANCH  23  24
ENDBRANCH  22  23
ENDBRANCH  21  22
ENDBRANCH  16  21
ENDBRANCH   5   7
TORSDOF 7
ENDMDL
MODEL 2
REMARK VINA RESULT: -7.335394549      2.104      4.103
REMARK  7 active torsions:
REMARK  status: ('A' for Active; 'I' for Inactive)
REMARK    1  A    between atoms: C2_5  and  C3_7 
REMARK    2  A    between atoms: C5_12  and  N6_13 
REMARK    3  A    between atoms: N8_19  and  C7_21 
REMARK    4  A    between atoms: C7_21  and  C8_22 
REMARK    5  A    between atoms: C8_22  and  C9_23 
REMARK    6  A    between atoms: C9_23  and  O1_24 
REMARK    7  A    between atoms: O1_24  and  C10_25 
ROOT
HETATM    1  N1  UNL     1      -0.683  77.976  25.867  1.00  0.00    -0.172 NA
HETATM    2  C1  UNL     1      -1.666  78.053  25.250  1.00  0.00     0.183 C 
HETATM    3  N2  UNL     1      -2.853  78.153  24.530  1.00  0.00    -0.281 N 
ATOM      4  H2  UNL     1      -2.826  78.466  23.559  1.00  0.00     0.179 HD
HETATM    5  C2  UNL     1      -4.008  77.851  25.082  1.00  0.00     0.142 C 
HETATM    6  N3  UNL     1      -3.942  77.421  26.434  1.00  0.00    -0.081 NA
ENDROOT
BRANCH   5   7
HETATM    7  C3  UNL     1      -5.239  78.018  24.341  1.00  0.00     0.092 A 
HETATM    8  C4  UNL     1      -5.907  79.214  24.479  1.00  0.00     0.149 A 
HETATM    9  N4  UNL     1      -5.407  80.283  25.267  1.00  0.00    -0.081 NA
HETATM   10  N5  UNL     1      -7.065  79.342  23.814  1.00  0.00    -0.178 N 
HETATM   11  C5  UNL     1      -7.547  78.347  23.051  1.00  0.00     0.678 A 
ATOM     12  H5  UNL     1      -7.590  80.213  23.889  1.00  0.00     0.185 HD
HETATM   13  N7  UNL     1      -6.890  77.180  22.919  1.00  0.00    -0.176 N 
HETATM   14  C6  UNL     1      -5.699  76.965  23.564  1.00  0.00     0.134 A 
ATOM     15  H7  UNL     1      -7.282  76.445  22.330  1.00  0.00     0.186 HD
HETATM   16  N8  UNL     1      -5.059  75.928  23.492  1.00  0.00    -0.375 N 
ATOM     17  H8  UNL     1      -4.228  76.045  24.072  1.00  0.00     0.161 HD
BRANCH  11  18
HETATM   18  N6  UNL     1      -8.674  78.542  22.439  1.00  0.00    -0.234 N 
ATOM     19  H62 UNL     1      -9.427  79.059  22.892  1.00  0.00     0.174 HD
ATOM     20  H61 UNL     1      -8.779  78.163  21.498  1.00  0.00     0.174 HD
ENDBRANCH  11  18
BRANCH  16  21
HETATM   21  C7  UNL     1      -5.001  74.668  22.950  1.00  0.00     0.123 C 
BRANCH  21  22
HETATM   22  C8  UNL     1      -4.161  74.647  21.669  1.00  0.00     0.046 C 
BRANCH  22  23
HETATM   23  C9  UNL     1      -4.860  75.342  20.544  1.00  0.00     0.182 C 
BRANCH  23  24
HETATM   24  O1  UNL     1      -6.238  75.296  20.674  1.00  0.00    -0.306 OA
BRANCH  24  25
HETATM   25  C10 UNL     1      -7.195  75.712  19.791  1.00  0.00     0.372 C 
HETATM   26  N9  UNL     1      -7.148  75.400  18.407  1.00  0.00    -0.032 NA
HETATM   27  O2  UNL     1      -8.167  76.400  20.200  1.00  0.00    -0.242 OA
ENDBRANCH  24  25
ENDBRANCH  23  24
ENDBRANCH  22  23
ENDBRANCH  21  22
ENDBRANCH  16  21
ENDBRANCH   5   7
TORSDOF 7
ENDMDL
MODEL 3
REMARK VINA RESULT: -7.312702858      4.286      7.098
REMARK  7 active torsions:
REMARK  status: ('A' for Active; 'I' for Inactive)
REMARK    1  A    between atoms: C2_5  and  C3_7 
REMARK    2  A    between atoms: C5_12  and  N6_13 
REMARK    3  A    between atoms: N8_19  and  C7_21 
REMARK    4  A    between atoms: C7_21  and  C8_22 
REMARK    5  A    between atoms: C8_22  and  C9_23 
REMARK    6  A    between atoms: C9_23  and  O1_24 
REMARK    7  A    between atoms: O1_24  and  C10_25 
ROOT
HETATM    1  N1  UNL     1      -2.118  82.092  20.319  1.00  0.00    -0.172 NA
HETATM    2  C1  UNL     1      -1.326  81.304  20.641  1.00  0.00     0.183 C 
HETATM    3  N2  UNL     1      -0.383  80.363  21.045  1.00  0.00    -0.281 N 
ATOM      4  H2  UNL     1      -0.246  79.517  20.491  1.00  0.00     0.179 HD
HETATM    5  C2  UNL     1       0.334  80.548  22.134  1.00  0.00     0.142 C 
HETATM    6  N3  UNL     1       0.076  81.755  22.835  1.00  0.00    -0.081 NA
ENDROOT
BRANCH   5   7
HETATM    7  C3  UNL     1       1.267  79.534  22.575  1.00  0.00     0.092 A 
HETATM    8  C4  UNL     1       2.454  79.419  21.887  1.00  0.00     0.149 A 
HETATM    9  N4  UNL     1       2.804  80.281  20.815  1.00  0.00    -0.081 NA
HETATM   10  N5  UNL     1       3.294  78.451  22.284  1.00  0.00    -0.178 N 
HETATM   11  C5  UNL     1       2.987  77.635  23.306  1.00  0.00     0.678 A 
ATOM     12  H5  UNL     1       4.183  78.333  21.800  1.00  0.00     0.185 HD
HETATM   13  N7  UNL     1       1.826  77.753  23.977  1.00  0.00    -0.176 N 
HETATM   14  C6  UNL     1       0.910  78.715  23.636  1.00  0.00     0.134 A 
ATOM     15  H7  UNL     1       1.624  77.118  24.749  1.00  0.00     0.186 HD
HETATM   16  N8  UNL     1      -0.163  78.868  24.198  1.00  0.00    -0.375 N 
ATOM     17  H8  UNL     1      -0.638  79.644  23.737  1.00  0.00     0.161 HD
BRANCH  11  18
HETATM   18  N6  UNL     1       3.847  76.721  23.633  1.00  0.00    -0.234 N 
ATOM     19  H62 UNL     1       4.201  76.659  24.587  1.00  0.00     0.174 HD
ATOM     20  H61 UNL     1       4.154  76.072  22.907  1.00  0.00     0.174 HD
ENDBRANCH  11  18
BRANCH  16  21
HETATM   21  C7  UNL     1      -0.992  78.422  25.196  1.00  0.00     0.123 C 
BRANCH  21  22
HETATM   22  C8  UNL     1      -2.215  77.694  24.627  1.00  0.00     0.046 C 
BRANCH  22  23
HETATM   23  C9  UNL     1      -2.610  76.534  25.485  1.00  0.00     0.182 C 
BRANCH  23  24
HETATM   24  O1  UNL     1      -2.541  75.330  24.806  1.00  0.00    -0.306 OA
BRANCH  24  25
HETATM   25  C10 UNL     1      -3.328  74.878  23.783  1.00  0.00     0.372 C 
HETATM   26  N9  UNL     1      -2.808  74.150  22.681  1.00  0.00    -0.032 NA
HETATM   27  O2  UNL     1      -4.567  75.105  23.800  1.00  0.00    -0.242 OA
ENDBRANCH  24  25
ENDBRANCH  23  24
ENDBRANCH  22  23
ENDBRANCH  21  22
ENDBRANCH  16  21
ENDBRANCH   5   7
TORSDOF 7
ENDMDL
MODEL 4
REMARK VINA RESULT: -7.162653295      4.323      6.665
REMARK  7 active torsions:
REMARK  status: ('A' for Active; 'I' for Inactive)
REMARK    1  A    between atoms: C2_5  and  C3_7 
REMARK    2  A    between atoms: C5_12  and  N6_13 
REMARK    3  A    between atoms: N8_19  and  C7_21 
REMARK    4  A    between atoms: C7_21  and  C8_22 
REMARK    5  A    between atoms: C8_22  and  C9_23 
REMARK    6  A    between atoms: C9_23  and  O1_24 
REMARK    7  A    between atoms: O1_24  and  C10_25 
ROOT
HETATM    1  N1  UNL     1       4.162  76.988  24.000  1.00  0.00    -0.172 NA
HETATM    2  C1  UNL     1       3.333  77.483  23.352  1.00  0.00     0.183 C 
HETATM    3  N2  UNL     1       2.351  78.095  22.580  1.00  0.00    -0.281 N 
ATOM      4  H2  UNL     1       2.014  77.632  21.735  1.00  0.00     0.179 HD
HETATM    5  C2  UNL     1       1.850  79.264  22.922  1.00  0.00     0.142 C 
HETATM    6  N3  UNL     1       2.378  79.826  24.114  1.00  0.00    -0.081 NA
ENDROOT
BRANCH   5   7
HETATM    7  C3  UNL     1       0.873  79.916  22.077  1.00  0.00     0.092 A 
HETATM    8  C4  UNL     1       1.335  80.551  20.946  1.00  0.00     0.149 A 
HETATM    9  N4  UNL     1       2.702  80.539  20.565  1.00  0.00    -0.081 NA
HETATM   10  N5  UNL     1       0.424  81.183  20.190  1.00  0.00    -0.178 N 
HETATM   11  C5  UNL     1      -0.877  81.193  20.526  1.00  0.00     0.678 A 
ATOM     12  H5  UNL     1       0.725  81.665  19.344  1.00  0.00     0.185 HD
HETATM   13  N7  UNL     1      -1.323  80.569  21.633  1.00  0.00    -0.176 N 
HETATM   14  C6  UNL     1      -0.459  79.900  22.461  1.00  0.00     0.134 A 
ATOM     15  H7  UNL     1      -2.317  80.595  21.858  1.00  0.00     0.186 HD
HETATM   16  N8  UNL     1      -0.799  79.323  23.482  1.00  0.00    -0.375 N 
ATOM     17  H8  UNL     1       0.043  78.924  23.897  1.00  0.00     0.161 HD
BRANCH  11  18
HETATM   18  N6  UNL     1      -1.700  81.826  19.749  1.00  0.00    -0.234 N 
ATOM     19  H62 UNL     1      -1.656  81.703  18.737  1.00  0.00     0.174 HD
ATOM     20  H61 UNL     1      -2.386  82.445  20.182  1.00  0.00     0.174 HD
ENDBRANCH  11  18
BRANCH  16  21
HETATM   21  C7  UNL     1      -1.850  78.993  24.300  1.00  0.00     0.123 C 
BRANCH  21  22
HETATM   22  C8  UNL     1      -1.443  77.945  25.342  1.00  0.00     0.046 C 
BRANCH  22  23
HETATM   23  C9  UNL     1      -2.608  77.100  25.750  1.00  0.00     0.182 C 
BRANCH  23  24
HETATM   24  O1  UNL     1      -2.561  75.834  25.189  1.00  0.00    -0.306 OA
BRANCH  24  25
HETATM   25  C10 UNL     1      -2.947  75.438  23.939  1.00  0.00     0.372 C 
HETATM   26  N9  UNL     1      -2.311  74.378  23.242  1.00  0.00    -0.032 NA
HETATM   27  O2  UNL     1      -3.903  76.022  23.364  1.00  0.00    -0.242 OA
ENDBRANCH  24  25
ENDBRANCH  23  24
ENDBRANCH  22  23
ENDBRANCH  21  22
ENDBRANCH  16  21
ENDBRANCH   5   7
TORSDOF 7
ENDMDL
MODEL 5
REMARK VINA RESULT: -7.151648673      3.604      6.643
REMARK  7 active torsions:
REMARK  status: ('A' for Active; 'I' for Inactive)
REMARK    1  A    between atoms: C2_5  and  C3_7 
REMARK    2  A    between atoms: C5_12  and  N6_13 
REMARK    3  A    between atoms: N8_19  and  C7_21 
REMARK    4  A    between atoms: C7_21  and  C8_22 
REMARK    5  A    between atoms: C8_22  and  C9_23 
REMARK    6  A    between atoms: C9_23  and  O1_24 
REMARK    7  A    between atoms: O1_24  and  C10_25 
ROOT
HETATM    1  N1  UNL     1      -2.193  82.038  20.344  1.00  0.00    -0.172 NA
HETATM    2  C1  UNL     1      -1.380  81.268  20.655  1.00  0.00     0.183 C 
HETATM    3  N2  UNL     1      -0.412  80.348  21.049  1.00  0.00    -0.281 N 
ATOM      4  H2  UNL     1      -0.263  79.505  20.493  1.00  0.00     0.179 HD
HETATM    5  C2  UNL     1       0.315  80.549  22.128  1.00  0.00     0.142 C 
HETATM    6  N3  UNL     1       0.039  81.751  22.832  1.00  0.00    -0.081 NA
ENDROOT
BRANCH   5   7
HETATM    7  C3  UNL     1       1.275  79.556  22.558  1.00  0.00     0.092 A 
HETATM    8  C4  UNL     1       2.436  79.437  21.828  1.00  0.00     0.149 A 
HETATM    9  N4  UNL     1       2.735  80.275  20.723  1.00  0.00    -0.081 NA
HETATM   10  N5  UNL     1       3.302  78.487  22.216  1.00  0.00    -0.178 N 
HETATM   11  C5  UNL     1       3.043  77.694  23.269  1.00  0.00     0.678 A 
ATOM     12  H5  UNL     1       4.173  78.366  21.702  1.00  0.00     0.185 HD
HETATM   13  N7  UNL     1       1.906  77.816  23.980  1.00  0.00    -0.176 N 
HETATM   14  C6  UNL     1       0.968  78.760  23.651  1.00  0.00     0.134 A 
ATOM     15  H7  UNL     1       1.741  77.199  24.775  1.00  0.00     0.186 HD
HETATM   16  N8  UNL     1      -0.085  78.916  24.250  1.00  0.00    -0.375 N 
ATOM     17  H8  UNL     1      -0.585  79.676  23.789  1.00  0.00     0.161 HD
BRANCH  11  18
HETATM   18  N6  UNL     1       3.925  76.797  23.585  1.00  0.00    -0.234 N 
ATOM     19  H62 UNL     1       4.161  76.623  24.561  1.00  0.00     0.174 HD
ATOM     20  H61 UNL     1       4.370  76.277  22.828  1.00  0.00     0.174 HD
ENDBRANCH  11  18
BRANCH  16  21
HETATM   21  C7  UNL     1      -0.871  78.486  25.290  1.00  0.00     0.123 C 
BRANCH  21  22
HETATM   22  C8  UNL     1      -2.265  78.072  24.806  1.00  0.00     0.046 C 
BRANCH  22  23
HETATM   23  C9  UNL     1      -2.949  77.190  25.802  1.00  0.00     0.182 C 
BRANCH  23  24
HETATM   24  O1  UNL     1      -4.229  77.627  26.099  1.00  0.00    -0.306 OA
BRANCH  24  25
HETATM   25  C10 UNL     1      -5.231  77.986  25.242  1.00  0.00     0.372 C 
HETATM   26  N9  UNL     1      -5.913  79.227  25.339  1.00  0.00    -0.032 NA
HETATM   27  O2  UNL     1      -5.579  77.200  24.321  1.00  0.00    -0.242 OA
ENDBRANCH  24  25
ENDBRANCH  23  24
ENDBRANCH  22  23
ENDBRANCH  21  22
ENDBRANCH  16  21
ENDBRANCH   5   7
TORSDOF 7
ENDMDL
