MODEL 1
REMARK VINA RESULT: -8.569769402      0.000      0.000
REMARK  5 active torsions:
REMARK  status: ('A' for Active; 'I' for Inactive)
REMARK    1  A    between atoms: C2_3  and  C3_4 
REMARK    2  A    between atoms: C3_4  and  N2_5 
REMARK    3  A    between atoms: N2_5  and  N3_6 
REMARK       I    between atoms: N3_6  and  C4_8 
REMARK    4  A    between atoms: C4_8  and  C5_10 
REMARK    5  A    between atoms: C5_10  and  N4_11 
ROOT
HETATM    1  N1  UNL     1       1.541  79.415  20.644  1.00  0.00    -0.197 NA
HETATM    2  C1  UNL     1       1.537  79.099  21.758  1.00  0.00     0.060 C 
HETATM    3  C2  UNL     1       1.541  78.720  23.187  1.00  0.00     0.141 C 
ENDROOT
BRANCH   3   4
HETATM    4  C3  UNL     1       0.116  78.983  23.677  1.00  0.00     0.149 C 
BRANCH   4   5
HETATM    5  N2  UNL     1      -0.415  77.829  24.415  1.00  0.00    -0.138 NA
BRANCH   5   6
HETATM    6  N3  UNL     1      -1.703  78.195  24.806  1.00  0.00    -0.273 N 
HETATM    7  C4  UNL     1      -2.526  77.358  25.608  1.00  0.00     0.251 C 
HETATM    8  O1  UNL     1      -2.078  76.243  25.984  1.00  0.00    -0.270 OA
ATOM      9  H3  UNL     1      -2.068  79.099  24.504  1.00  0.00     0.185 HD
BRANCH   7  10
HETATM   10  C5  UNL     1      -3.883  77.794  25.989  1.00  0.00     0.239 C 
BRANCH  10  11
HETATM   11  N4  UNL     1      -4.828  77.732  24.894  1.00  0.00    -0.274 N 
HETATM   12  C6  UNL     1      -5.812  78.606  24.628  1.00  0.00     0.329 A 
HETATM   13  O2  UNL     1      -6.136  79.646  25.254  1.00  0.00    -0.246 OA
HETATM   14  N5  UNL     1      -6.470  78.214  23.521  1.00  0.00    -0.300 N 
HETATM   15  C7  UNL     1      -5.911  77.062  23.052  1.00  0.00     0.150 A 
ATOM     16  H5  UNL     1      -7.262  78.700  23.100  1.00  0.00     0.171 HD
HETATM   17  C8  UNL     1      -6.191  76.252  21.965  1.00  0.00     0.290 A 
HETATM   18  C10 UNL     1      -4.887  76.783  23.930  1.00  0.00     0.160 A 
HETATM   19  O3  UNL     1      -7.139  76.546  21.186  1.00  0.00    -0.265 OA
HETATM   20  N6  UNL     1      -5.452  75.150  21.739  1.00  0.00    -0.154 N 
HETATM   21  C9  UNL     1      -4.450  74.892  22.613  1.00  0.00     0.680 A 
ATOM     22  H6  UNL     1      -5.638  74.537  20.945  1.00  0.00     0.187 HD
HETATM   23  N7  UNL     1      -3.733  73.832  22.405  1.00  0.00    -0.234 N 
HETATM   24  N8  UNL     1      -4.164  75.664  23.669  1.00  0.00    -0.174 N 
ATOM     25  H72 UNL     1      -3.950  73.244  21.600  1.00  0.00     0.174 HD
ATOM     26  H71 UNL     1      -2.978  73.638  23.063  1.00  0.00     0.174 HD
ATOM     27  H8  UNL     1      -3.394  75.408  24.286  1.00  0.00     0.186 HD
ENDBRANCH  10  11
ENDBRANCH   7  10
ENDBRANCH   5   6
ENDBRANCH   4   5
ENDBRANCH   3   4
TORSDOF 5
ENDMDL
MODEL 2
REMARK VINA RESULT: -8.459095460      2.559      6.479
REMARK  5 active torsions:
REMARK  status: ('A' for Active; 'I' for Inactive)
REMARK    1  A    between atoms: C2_3  and  C3_4 
REMARK    2  A    between atoms: C3_4  and  N2_5 
REMARK    3  A    between atoms: N2_5  and  N3_6 
REMARK       I    between atoms: N3_6  and  C4_8 
REMARK    4  A    between atoms: C4_8  and  C5_10 
REMARK    5  A    between atoms: C5_10  and  N4_11 
ROOT
HETATM    1  N1  UNL     1      -7.210  76.397  21.004  1.00  0.00    -0.197 NA
HETATM    2  C1  UNL     1      -6.176  76.012  21.354  1.00  0.00     0.060 C 
HETATM    3  C2  UNL     1      -4.843  75.538  21.783  1.00  0.00     0.141 C 
ENDROOT
BRANCH   3   4
HETATM    4  C3  UNL     1      -4.480  76.397  22.995  1.00  0.00     0.149 C 
BRANCH   4   5
HETATM    5  N2  UNL     1      -3.335  75.835  23.724  1.00  0.00    -0.138 NA
BRANCH   5   6
HETATM    6  N3  UNL     1      -2.479  76.910  23.963  1.00  0.00    -0.273 N 
HETATM    7  C4  UNL     1      -1.904  77.161  25.239  1.00  0.00     0.251 C 
HETATM    8  O1  UNL     1      -2.175  76.384  26.192  1.00  0.00    -0.270 OA
ATOM      9  H3  UNL     1      -2.257  77.539  23.191  1.00  0.00     0.185 HD
BRANCH   7  10
HETATM   10  C5  UNL     1      -1.007  78.315  25.436  1.00  0.00     0.239 C 
BRANCH  10  11
HETATM   11  N4  UNL     1      -0.492  78.852  24.194  1.00  0.00    -0.274 N 
HETATM   12  C6  UNL     1      -1.112  79.710  23.368  1.00  0.00     0.329 A 
HETATM   13  O2  UNL     1      -2.254  80.222  23.472  1.00  0.00    -0.246 OA
HETATM   14  N5  UNL     1      -0.307  79.984  22.324  1.00  0.00    -0.300 N 
HETATM   15  C7  UNL     1       0.861  79.297  22.466  1.00  0.00     0.150 A 
ATOM     16  H5  UNL     1      -0.535  80.608  21.550  1.00  0.00     0.171 HD
HETATM   17  C8  UNL     1       2.009  79.220  21.698  1.00  0.00     0.290 A 
HETATM   18  C10 UNL     1       0.719  78.596  23.644  1.00  0.00     0.160 A 
HETATM   19  O3  UNL     1       2.098  79.878  20.626  1.00  0.00    -0.265 OA
HETATM   20  N6  UNL     1       3.035  78.442  22.095  1.00  0.00    -0.154 N 
HETATM   21  C9  UNL     1       2.876  77.761  23.255  1.00  0.00     0.680 A 
ATOM     22  H6  UNL     1       3.892  78.368  21.546  1.00  0.00     0.187 HD
HETATM   23  N7  UNL     1       3.856  77.008  23.645  1.00  0.00    -0.234 N 
HETATM   24  N8  UNL     1       1.772  77.823  24.011  1.00  0.00    -0.174 N 
ATOM     25  H72 UNL     1       4.697  76.961  23.069  1.00  0.00     0.174 HD
ATOM     26  H71 UNL     1       3.736  76.496  24.519  1.00  0.00     0.174 HD
ATOM     27  H8  UNL     1       1.722  77.282  24.874  1.00  0.00     0.186 HD
ENDBRANCH  10  11
ENDBRANCH   7  10
ENDBRANCH   5   6
ENDBRANCH   4   5
ENDBRANCH   3   4
TORSDOF 5
ENDMDL
MODEL 3
REMARK VINA RESULT: -8.446446255      2.574      6.436
REMARK  5 active torsions:
REMARK  status: ('A' for Active; 'I' for Inactive)
REMARK    1  A    between atoms: C2_3  and  C3_4 
REMARK    2  A    between atoms: C3_4  and  N2_5 
REMARK    3  A    between atoms: N2_5  and  N3_6 
REMARK       I    between atoms: N3_6  and  C4_8 
REMARK    4  A    between atoms: C4_8  and  C5_10 
REMARK    5  A    between atoms: C5_10  and  N4_11 
ROOT
HETATM    1  N1  UNL     1      -5.994  79.539  25.483  1.00  0.00    -0.197 NA
HETATM    2  C1  UNL     1      -5.555  78.930  24.602  1.00  0.00     0.060 C 
HETATM    3  C2  UNL     1      -4.970  78.158  23.486  1.00  0.00     0.141 C 
ENDROOT
BRANCH   3   4
HETATM    4  C3  UNL     1      -4.862  76.722  24.001  1.00  0.00     0.149 C 
BRANCH   4   5
HETATM    5  N2  UNL     1      -3.560  76.131  23.662  1.00  0.00    -0.138 NA
BRANCH   5   6
HETATM    6  N3  UNL     1      -2.618  77.124  23.928  1.00  0.00    -0.273 N 
HETATM    7  C4  UNL     1      -1.936  77.218  25.173  1.00  0.00     0.251 C 
HETATM    8  O1  UNL     1      -2.189  76.373  26.070  1.00  0.00    -0.270 OA
ATOM      9  H3  UNL     1      -2.409  77.809  23.201  1.00  0.00     0.185 HD
BRANCH   7  10
HETATM   10  C5  UNL     1      -0.951  78.292  25.401  1.00  0.00     0.239 C 
BRANCH  10  11
HETATM   11  N4  UNL     1      -0.421  78.848  24.174  1.00  0.00    -0.274 N 
HETATM   12  C6  UNL     1      -1.027  79.728  23.360  1.00  0.00     0.329 A 
HETATM   13  O2  UNL     1      -2.164  80.250  23.467  1.00  0.00    -0.246 OA
HETATM   14  N5  UNL     1      -0.212  80.014  22.328  1.00  0.00    -0.300 N 
HETATM   15  C7  UNL     1       0.948  79.311  22.464  1.00  0.00     0.150 A 
ATOM     16  H5  UNL     1      -0.427  80.655  21.564  1.00  0.00     0.171 HD
HETATM   17  C8  UNL     1       2.101  79.237  21.702  1.00  0.00     0.290 A 
HETATM   18  C10 UNL     1       0.790  78.589  23.627  1.00  0.00     0.160 A 
HETATM   19  O3  UNL     1       2.204  79.915  20.644  1.00  0.00    -0.265 OA
HETATM   20  N6  UNL     1       3.115  78.440  22.091  1.00  0.00    -0.154 N 
HETATM   21  C9  UNL     1       2.941  77.739  23.236  1.00  0.00     0.680 A 
ATOM     22  H6  UNL     1       3.975  78.368  21.547  1.00  0.00     0.187 HD
HETATM   23  N7  UNL     1       3.910  76.967  23.618  1.00  0.00    -0.234 N 
HETATM   24  N8  UNL     1       1.832  77.798  23.986  1.00  0.00    -0.174 N 
ATOM     25  H72 UNL     1       4.754  76.922  23.048  1.00  0.00     0.174 HD
ATOM     26  H71 UNL     1       3.779  76.439  24.481  1.00  0.00     0.174 HD
ATOM     27  H8  UNL     1       1.771  77.241  24.837  1.00  0.00     0.186 HD
ENDBRANCH  10  11
ENDBRANCH   7  10
ENDBRANCH   5   6
ENDBRANCH   4   5
ENDBRANCH   3   4
TORSDOF 5
ENDMDL
MODEL 4
REMARK VINA RESULT: -8.422849047      1.135      1.135
REMARK  5 active torsions:
REMARK  status: ('A' for Active; 'I' for Inactive)
REMARK    1  A    between atoms: C2_3  and  C3_4 
REMARK    2  A    between atoms: C3_4  and  N2_5 
REMARK    3  A    between atoms: N2_5  and  N3_6 
REMARK       I    between atoms: N3_6  and  C4_8 
REMARK    4  A    between atoms: C4_8  and  C5_10 
REMARK    5  A    between atoms: C5_10  and  N4_11 
ROOT
HETATM    1  N1  UNL     1       2.962  79.822  21.352  1.00  0.00    -0.197 NA
HETATM    2  C1  UNL     1       2.616  79.274  22.311  1.00  0.00     0.060 C 
HETATM    3  C2  UNL     1       2.177  78.598  23.550  1.00  0.00     0.141 C 
ENDROOT
BRANCH   3   4
HETATM    4  C3  UNL     1       0.655  78.740  23.570  1.00  0.00     0.149 C 
BRANCH   4   5
HETATM    5  N2  UNL     1       0.051  77.864  24.584  1.00  0.00    -0.138 NA
BRANCH   5   6
HETATM    6  N3  UNL     1      -1.275  78.280  24.696  1.00  0.00    -0.273 N 
HETATM    7  C4  UNL     1      -2.219  77.612  25.524  1.00  0.00     0.251 C 
HETATM    8  O1  UNL     1      -1.846  76.608  26.185  1.00  0.00    -0.270 OA
ATOM      9  H3  UNL     1      -1.580  79.095  24.163  1.00  0.00     0.185 HD
BRANCH   7  10
HETATM   10  C5  UNL     1      -3.611  78.094  25.602  1.00  0.00     0.239 C 
BRANCH  10  11
HETATM   11  N4  UNL     1      -4.315  78.006  24.340  1.00  0.00    -0.274 N 
HETATM   12  C6  UNL     1      -4.606  79.018  23.507  1.00  0.00     0.329 A 
HETATM   13  O2  UNL     1      -4.353  80.242  23.632  1.00  0.00    -0.246 OA
HETATM   14  N5  UNL     1      -5.258  78.538  22.432  1.00  0.00    -0.300 N 
HETATM   15  C7  UNL     1      -5.397  77.188  22.559  1.00  0.00     0.150 A 
ATOM     16  H5  UNL     1      -5.594  79.095  21.646  1.00  0.00     0.171 HD
HETATM   17  C8  UNL     1      -5.974  76.219  21.755  1.00  0.00     0.290 A 
HETATM   18  C10 UNL     1      -4.799  76.882  23.761  1.00  0.00     0.160 A 
HETATM   19  O3  UNL     1      -6.510  76.544  20.661  1.00  0.00    -0.265 OA
HETATM   20  N6  UNL     1      -5.961  74.929  22.141  1.00  0.00    -0.154 N 
HETATM   21  C9  UNL     1      -5.368  74.648  23.326  1.00  0.00     0.680 A 
ATOM     22  H6  UNL     1      -6.379  74.197  21.567  1.00  0.00     0.187 HD
HETATM   23  N7  UNL     1      -5.353  73.410  23.708  1.00  0.00    -0.234 N 
HETATM   24  N8  UNL     1      -4.806  75.572  24.116  1.00  0.00    -0.174 N 
ATOM     25  H72 UNL     1      -5.781  72.706  23.106  1.00  0.00     0.174 HD
ATOM     26  H71 UNL     1      -4.906  73.198  24.600  1.00  0.00     0.174 HD
ATOM     27  H8  UNL     1      -4.378  75.287  24.997  1.00  0.00     0.186 HD
ENDBRANCH  10  11
ENDBRANCH   7  10
ENDBRANCH   5   6
ENDBRANCH   4   5
ENDBRANCH   3   4
TORSDOF 5
ENDMDL
MODEL 5
REMARK VINA RESULT: -8.321956796      1.179      1.545
REMARK  5 active torsions:
REMARK  status: ('A' for Active; 'I' for Inactive)
REMARK    1  A    between atoms: C2_3  and  C3_4 
REMARK    2  A    between atoms: C3_4  and  N2_5 
REMARK    3  A    between atoms: N2_5  and  N3_6 
REMARK       I    between atoms: N3_6  and  C4_8 
REMARK    4  A    between atoms: C4_8  and  C5_10 
REMARK    5  A    between atoms: C5_10  and  N4_11 
ROOT
HETATM    1  N1  UNL     1      -0.356  82.385  24.757  1.00  0.00    -0.197 NA
HETATM    2  C1  UNL     1       0.186  81.361  24.759  1.00  0.00     0.060 C 
HETATM    3  C2  UNL     1       0.861  80.047  24.782  1.00  0.00     0.141 C 
ENDROOT
BRANCH   3   4
HETATM    4  C3  UNL     1       0.094  79.182  23.780  1.00  0.00     0.149 C 
BRANCH   4   5
HETATM    5  N2  UNL     1      -0.429  77.965  24.417  1.00  0.00    -0.138 NA
BRANCH   5   6
HETATM    6  N3  UNL     1      -1.727  78.281  24.816  1.00  0.00    -0.273 N 
HETATM    7  C4  UNL     1      -2.521  77.401  25.602  1.00  0.00     0.251 C 
HETATM    8  O1  UNL     1      -2.035  76.295  25.956  1.00  0.00    -0.270 OA
ATOM      9  H3  UNL     1      -2.123  79.177  24.532  1.00  0.00     0.185 HD
BRANCH   7  10
HETATM   10  C5  UNL     1      -3.891  77.784  25.993  1.00  0.00     0.239 C 
BRANCH  10  11
HETATM   11  N4  UNL     1      -4.832  77.727  24.894  1.00  0.00    -0.274 N 
HETATM   12  C6  UNL     1      -5.811  78.606  24.626  1.00  0.00     0.329 A 
HETATM   13  O2  UNL     1      -6.135  79.645  25.253  1.00  0.00    -0.246 OA
HETATM   14  N5  UNL     1      -6.466  78.218  23.516  1.00  0.00    -0.300 N 
HETATM   15  C7  UNL     1      -5.910  77.066  23.046  1.00  0.00     0.150 A 
ATOM     16  H5  UNL     1      -7.255  78.709  23.092  1.00  0.00     0.171 HD
HETATM   17  C8  UNL     1      -6.188  76.260  21.956  1.00  0.00     0.290 A 
HETATM   18  C10 UNL     1      -4.890  76.781  23.927  1.00  0.00     0.160 A 
HETATM   19  O3  UNL     1      -7.131  76.559  21.174  1.00  0.00    -0.265 OA
HETATM   20  N6  UNL     1      -5.451  75.156  21.730  1.00  0.00    -0.154 N 
HETATM   21  C9  UNL     1      -4.453  74.892  22.607  1.00  0.00     0.680 A 
ATOM     22  H6  UNL     1      -5.636  74.545  20.934  1.00  0.00     0.187 HD
HETATM   23  N7  UNL     1      -3.740  73.830  22.400  1.00  0.00    -0.234 N 
HETATM   24  N8  UNL     1      -4.170  75.661  23.667  1.00  0.00    -0.174 N 
ATOM     25  H72 UNL     1      -3.955  73.245  21.592  1.00  0.00     0.174 HD
ATOM     26  H71 UNL     1      -2.988  73.632  23.060  1.00  0.00     0.174 HD
ATOM     27  H8  UNL     1      -3.403  75.401  24.286  1.00  0.00     0.186 HD
ENDBRANCH  10  11
ENDBRANCH   7  10
ENDBRANCH   5   6
ENDBRANCH   4   5
ENDBRANCH   3   4
TORSDOF 5
ENDMDL
