MODEL 1
REMARK VINA RESULT: -7.964109616      0.000      0.000
REMARK  8 active torsions:
REMARK  status: ('A' for Active; 'I' for Inactive)
REMARK    1  A    between atoms: N1_1  and  C1_4 
REMARK    2  A    between atoms: C4_12  and  C5_13 
REMARK    3  A    between atoms: C5_13  and  N4_14 
REMARK    4  A    between atoms: C8_20  and  N7_21 
REMARK    5  A    between atoms: N7_21  and  C9_23 
REMARK    6  A    between atoms: C9_23  and  C10_24 
REMARK    7  A    between atoms: C10_24  and  C11_25 
REMARK    8  A    between atoms: C11_25  and  O2_26 
ROOT
HETATM    1  N4  UNL     1      -6.228  76.700  22.921  1.00  0.00    -0.250 N 
HETATM    2  N5  UNL     1      -6.871  77.841  22.812  1.00  0.00    -0.282 N 
ATOM      3  H5  UNL     1      -7.568  77.929  22.073  1.00  0.00     0.188 HD
HETATM    4  C6  UNL     1      -6.666  78.905  23.619  1.00  0.00     0.133 A 
HETATM    5  N6  UNL     1      -7.381  80.124  23.471  1.00  0.00    -0.081 NA
HETATM    6  C7  UNL     1      -5.706  78.762  24.628  1.00  0.00     0.081 A 
HETATM    7  C8  UNL     1      -5.008  77.582  24.777  1.00  0.00     0.101 A 
HETATM    8  C12 UNL     1      -5.292  76.556  23.901  1.00  0.00     0.288 A 
HETATM    9  O3  UNL     1      -4.687  75.454  23.989  1.00  0.00    -0.264 OA
ENDROOT
BRANCH   1  10
HETATM   10  C5  UNL     1      -6.474  75.600  22.048  1.00  0.00     0.196 C 
BRANCH  10  11
HETATM   11  C4  UNL     1      -6.062  75.810  20.666  1.00  0.00     0.021 A 
HETATM   12  C1  UNL     1      -6.751  75.204  19.643  1.00  0.00     0.112 A 
HETATM   13  N2  UNL     1      -6.409  75.368  18.347  1.00  0.00    -0.294 N 
HETATM   14  C2  UNL     1      -5.368  76.142  18.046  1.00  0.00     0.325 A 
ATOM     15  H2  UNL     1      -6.940  74.905  17.609  1.00  0.00     0.172 HD
HETATM   16  O1  UNL     1      -5.050  76.293  16.835  1.00  0.00    -0.247 OA
HETATM   17  N3  UNL     1      -4.660  76.759  19.024  1.00  0.00    -0.318 N 
HETATM   18  C3  UNL     1      -4.991  76.606  20.339  1.00  0.00     0.105 A 
ATOM     19  H3  UNL     1      -3.867  77.348  18.773  1.00  0.00     0.170 HD
BRANCH  12  20
HETATM   20  N1  UNL     1      -7.760  74.450  19.884  1.00  0.00    -0.385 N 
ATOM     21  H12 UNL     1      -8.688  74.848  20.027  1.00  0.00     0.157 HD
ATOM     22  H11 UNL     1      -7.585  73.446  19.924  1.00  0.00     0.157 HD
ENDBRANCH  12  20
ENDBRANCH  10  11
ENDBRANCH   1  10
BRANCH   7  23
HETATM   23  N7  UNL     1      -4.133  77.451  25.696  1.00  0.00    -0.385 N 
ATOM     24  H7  UNL     1      -4.456  77.539  26.659  1.00  0.00     0.159 HD
BRANCH  23  25
HETATM   25  C9  UNL     1      -2.745  77.191  25.496  1.00  0.00     0.122 C 
BRANCH  25  26
HETATM   26  C10 UNL     1      -2.173  78.269  24.581  1.00  0.00     0.045 C 
BRANCH  26  27
HETATM   27  C11 UNL     1      -0.696  78.501  24.909  1.00  0.00     0.165 C 
BRANCH  27  28
HETATM   28  O2  UNL     1      -0.351  77.710  25.978  1.00  0.00    -0.401 OA
ATOM     29  H2  UNL     1       0.545  77.416  25.865  1.00  0.00     0.209 HD
ENDBRANCH  27  28
ENDBRANCH  26  27
ENDBRANCH  25  26
ENDBRANCH  23  25
ENDBRANCH   7  23
TORSDOF 8
ENDMDL
MODEL 2
REMARK VINA RESULT: -7.874914267      2.773      4.689
REMARK  8 active torsions:
REMARK  status: ('A' for Active; 'I' for Inactive)
REMARK    1  A    between atoms: N1_1  and  C1_4 
REMARK    2  A    between atoms: C4_12  and  C5_13 
REMARK    3  A    between atoms: C5_13  and  N4_14 
REMARK    4  A    between atoms: C8_20  and  N7_21 
REMARK    5  A    between atoms: N7_21  and  C9_23 
REMARK    6  A    between atoms: C9_23  and  C10_24 
REMARK    7  A    between atoms: C10_24  and  C11_25 
REMARK    8  A    between atoms: C11_25  and  O2_26 
ROOT
HETATM    1  N4  UNL     1      -2.788  78.637  24.479  1.00  0.00    -0.250 N 
HETATM    2  N5  UNL     1      -3.065  79.657  23.698  1.00  0.00    -0.282 N 
ATOM      3  H5  UNL     1      -4.046  79.866  23.513  1.00  0.00     0.188 HD
HETATM    4  C6  UNL     1      -2.131  80.447  23.126  1.00  0.00     0.133 A 
HETATM    5  N6  UNL     1      -2.469  81.543  22.286  1.00  0.00    -0.081 NA
HETATM    6  C7  UNL     1      -0.791  80.144  23.394  1.00  0.00     0.081 A 
HETATM    7  C8  UNL     1      -0.456  79.082  24.208  1.00  0.00     0.101 A 
HETATM    8  C12 UNL     1      -1.485  78.337  24.742  1.00  0.00     0.288 A 
HETATM    9  O3  UNL     1      -1.240  77.355  25.494  1.00  0.00    -0.264 OA
ENDROOT
BRANCH   1  10
HETATM   10  C5  UNL     1      -3.805  77.827  25.065  1.00  0.00     0.196 C 
BRANCH  10  11
HETATM   11  C4  UNL     1      -4.701  77.183  24.113  1.00  0.00     0.021 A 
HETATM   12  C1  UNL     1      -4.392  75.944  23.606  1.00  0.00     0.112 A 
HETATM   13  N2  UNL     1      -5.189  75.307  22.722  1.00  0.00    -0.294 N 
HETATM   14  C2  UNL     1      -6.316  75.897  22.325  1.00  0.00     0.325 A 
ATOM     15  H2  UNL     1      -4.933  74.387  22.363  1.00  0.00     0.172 HD
HETATM   16  O1  UNL     1      -7.059  75.300  21.500  1.00  0.00    -0.247 OA
HETATM   17  N3  UNL     1      -6.659  77.119  22.801  1.00  0.00    -0.318 N 
HETATM   18  C3  UNL     1      -5.866  77.779  23.694  1.00  0.00     0.105 A 
ATOM     19  H3  UNL     1      -7.526  77.554  22.485  1.00  0.00     0.170 HD
BRANCH  12  20
HETATM   20  N1  UNL     1      -3.318  75.337  23.959  1.00  0.00    -0.385 N 
ATOM     21  H12 UNL     1      -2.783  74.788  23.287  1.00  0.00     0.157 HD
ATOM     22  H11 UNL     1      -3.035  75.433  24.934  1.00  0.00     0.157 HD
ENDBRANCH  12  20
ENDBRANCH  10  11
ENDBRANCH   1  10
BRANCH   7  23
HETATM   23  N7  UNL     1       0.765  78.805  24.452  1.00  0.00    -0.385 N 
ATOM     24  H7  UNL     1       0.948  77.977  25.019  1.00  0.00     0.159 HD
BRANCH  23  25
HETATM   25  C9  UNL     1       1.896  79.548  24.003  1.00  0.00     0.122 C 
BRANCH  25  26
HETATM   26  C10 UNL     1       2.617  78.741  22.929  1.00  0.00     0.045 C 
BRANCH  26  27
HETATM   27  C11 UNL     1       2.681  77.267  23.340  1.00  0.00     0.165 C 
BRANCH  27  28
HETATM   28  O2  UNL     1       1.755  76.563  22.609  1.00  0.00    -0.401 OA
ATOM     29  H2  UNL     1       1.530  75.771  23.082  1.00  0.00     0.209 HD
ENDBRANCH  27  28
ENDBRANCH  26  27
ENDBRANCH  25  26
ENDBRANCH  23  25
ENDBRANCH   7  23
TORSDOF 8
ENDMDL
MODEL 3
REMARK VINA RESULT: -7.816679996      2.384      4.046
REMARK  8 active torsions:
REMARK  status: ('A' for Active; 'I' for Inactive)
REMARK    1  A    between atoms: N1_1  and  C1_4 
REMARK    2  A    between atoms: C4_12  and  C5_13 
REMARK    3  A    between atoms: C5_13  and  N4_14 
REMARK    4  A    between atoms: C8_20  and  N7_21 
REMARK    5  A    between atoms: N7_21  and  C9_23 
REMARK    6  A    between atoms: C9_23  and  C10_24 
REMARK    7  A    between atoms: C10_24  and  C11_25 
REMARK    8  A    between atoms: C11_25  and  O2_26 
ROOT
HETATM    1  N4  UNL     1      -6.129  76.737  23.367  1.00  0.00    -0.250 N 
HETATM    2  N5  UNL     1      -5.221  76.654  24.313  1.00  0.00    -0.282 N 
ATOM      3  H5  UNL     1      -4.751  75.759  24.449  1.00  0.00     0.188 HD
HETATM    4  C6  UNL     1      -4.872  77.681  25.119  1.00  0.00     0.133 A 
HETATM    5  N6  UNL     1      -3.885  77.553  26.133  1.00  0.00    -0.081 NA
HETATM    6  C7  UNL     1      -5.529  78.900  24.915  1.00  0.00     0.081 A 
HETATM    7  C8  UNL     1      -6.488  79.031  23.932  1.00  0.00     0.101 A 
HETATM    8  C12 UNL     1      -6.772  77.922  23.165  1.00  0.00     0.288 A 
HETATM    9  O3  UNL     1      -7.638  77.981  22.252  1.00  0.00    -0.264 OA
ENDROOT
BRANCH   1  10
HETATM   10  C5  UNL     1      -6.469  75.628  22.537  1.00  0.00     0.196 C 
BRANCH  10  11
HETATM   11  C4  UNL     1      -6.123  75.785  21.130  1.00  0.00     0.021 A 
HETATM   12  C1  UNL     1      -7.004  75.382  20.156  1.00  0.00     0.112 A 
HETATM   13  N2  UNL     1      -6.729  75.507  18.840  1.00  0.00    -0.294 N 
HETATM   14  C2  UNL     1      -5.566  76.039  18.469  1.00  0.00     0.325 A 
ATOM     15  H2  UNL     1      -7.403  75.198  18.139  1.00  0.00     0.172 HD
HETATM   16  O1  UNL     1      -5.312  76.155  17.240  1.00  0.00    -0.247 OA
HETATM   17  N3  UNL     1      -4.668  76.451  19.398  1.00  0.00    -0.318 N 
HETATM   18  C3  UNL     1      -4.927  76.332  20.732  1.00  0.00     0.105 A 
ATOM     19  H3  UNL     1      -3.783  76.856  19.094  1.00  0.00     0.170 HD
BRANCH  12  20
HETATM   20  N1  UNL     1      -8.136  74.864  20.464  1.00  0.00    -0.385 N 
ATOM     21  H12 UNL     1      -8.645  74.284  19.798  1.00  0.00     0.157 HD
ATOM     22  H11 UNL     1      -8.493  75.062  21.399  1.00  0.00     0.157 HD
ENDBRANCH  12  20
ENDBRANCH  10  11
ENDBRANCH   1  10
BRANCH   7  23
HETATM   23  N7  UNL     1      -7.087  80.141  23.747  1.00  0.00    -0.385 N 
ATOM     24  H7  UNL     1      -8.070  80.188  24.013  1.00  0.00     0.159 HD
BRANCH  23  25
HETATM   25  C9  UNL     1      -6.504  81.323  23.199  1.00  0.00     0.122 C 
BRANCH  25  26
HETATM   26  C10 UNL     1      -7.516  81.979  22.266  1.00  0.00     0.045 C 
BRANCH  26  27
HETATM   27  C11 UNL     1      -8.928  81.495  22.605  1.00  0.00     0.165 C 
BRANCH  27  28
HETATM   28  O2  UNL     1      -9.241  80.438  21.785  1.00  0.00    -0.401 OA
ATOM     29  H2  UNL     1      -9.119  80.704  20.881  1.00  0.00     0.209 HD
ENDBRANCH  27  28
ENDBRANCH  26  27
ENDBRANCH  25  26
ENDBRANCH  23  25
ENDBRANCH   7  23
TORSDOF 8
ENDMDL
MODEL 4
REMARK VINA RESULT: -7.749384373      2.277      3.557
REMARK  8 active torsions:
REMARK  status: ('A' for Active; 'I' for Inactive)
REMARK    1  A    between atoms: N1_1  and  C1_4 
REMARK    2  A    between atoms: C4_12  and  C5_13 
REMARK    3  A    between atoms: C5_13  and  N4_14 
REMARK    4  A    between atoms: C8_20  and  N7_21 
REMARK    5  A    between atoms: N7_21  and  C9_23 
REMARK    6  A    between atoms: C9_23  and  C10_24 
REMARK    7  A    between atoms: C10_24  and  C11_25 
REMARK    8  A    between atoms: C11_25  and  O2_26 
ROOT
HETATM    1  N4  UNL     1      -6.004  76.683  23.480  1.00  0.00    -0.250 N 
HETATM    2  N5  UNL     1      -5.049  76.517  24.368  1.00  0.00    -0.282 N 
ATOM      3  H5  UNL     1      -4.628  75.592  24.450  1.00  0.00     0.188 HD
HETATM    4  C6  UNL     1      -4.591  77.496  25.177  1.00  0.00     0.133 A 
HETATM    5  N6  UNL     1      -3.555  77.279  26.126  1.00  0.00    -0.081 NA
HETATM    6  C7  UNL     1      -5.182  78.757  25.047  1.00  0.00     0.081 A 
HETATM    7  C8  UNL     1      -6.188  78.976  24.129  1.00  0.00     0.101 A 
HETATM    8  C12 UNL     1      -6.584  77.909  23.350  1.00  0.00     0.288 A 
HETATM    9  O3  UNL     1      -7.498  78.048  22.493  1.00  0.00    -0.264 OA
ENDROOT
BRANCH   1  10
HETATM   10  C5  UNL     1      -6.461  75.622  22.643  1.00  0.00     0.196 C 
BRANCH  10  11
HETATM   11  C4  UNL     1      -6.132  75.770  21.232  1.00  0.00     0.021 A 
HETATM   12  C1  UNL     1      -7.035  75.384  20.271  1.00  0.00     0.112 A 
HETATM   13  N2  UNL     1      -6.778  75.501  18.951  1.00  0.00    -0.294 N 
HETATM   14  C2  UNL     1      -5.608  76.008  18.562  1.00  0.00     0.325 A 
ATOM     15  H2  UNL     1      -7.468  75.206  18.260  1.00  0.00     0.172 HD
HETATM   16  O1  UNL     1      -5.370  76.116  17.329  1.00  0.00    -0.247 OA
HETATM   17  N3  UNL     1      -4.688  76.401  19.477  1.00  0.00    -0.318 N 
HETATM   18  C3  UNL     1      -4.930  76.290  20.816  1.00  0.00     0.105 A 
ATOM     19  H3  UNL     1      -3.799  76.787  19.160  1.00  0.00     0.170 HD
BRANCH  12  20
HETATM   20  N1  UNL     1      -8.174  74.892  20.596  1.00  0.00    -0.385 N 
ATOM     21  H12 UNL     1      -8.378  73.903  20.449  1.00  0.00     0.157 HD
ATOM     22  H11 UNL     1      -8.853  75.534  21.005  1.00  0.00     0.157 HD
ENDBRANCH  12  20
ENDBRANCH  10  11
ENDBRANCH   1  10
BRANCH   7  23
HETATM   23  N7  UNL     1      -6.727  80.125  24.010  1.00  0.00    -0.385 N 
ATOM     24  H7  UNL     1      -7.689  80.153  23.671  1.00  0.00     0.159 HD
BRANCH  23  25
HETATM   25  C9  UNL     1      -6.106  81.374  24.308  1.00  0.00     0.122 C 
BRANCH  25  26
HETATM   26  C10 UNL     1      -7.176  82.350  24.786  1.00  0.00     0.045 C 
BRANCH  26  27
HETATM   27  C11 UNL     1      -7.105  82.497  26.308  1.00  0.00     0.165 C 
BRANCH  27  28
HETATM   28  O2  UNL     1      -6.834  81.268  26.858  1.00  0.00    -0.401 OA
ATOM     29  H2  UNL     1      -6.555  81.390  27.758  1.00  0.00     0.209 HD
ENDBRANCH  27  28
ENDBRANCH  26  27
ENDBRANCH  25  26
ENDBRANCH  23  25
ENDBRANCH   7  23
TORSDOF 8
ENDMDL
MODEL 5
REMARK VINA RESULT: -7.658137141      2.809      4.795
REMARK  8 active torsions:
REMARK  status: ('A' for Active; 'I' for Inactive)
REMARK    1  A    between atoms: N1_1  and  C1_4 
REMARK    2  A    between atoms: C4_12  and  C5_13 
REMARK    3  A    between atoms: C5_13  and  N4_14 
REMARK    4  A    between atoms: C8_20  and  N7_21 
REMARK    5  A    between atoms: N7_21  and  C9_23 
REMARK    6  A    between atoms: C9_23  and  C10_24 
REMARK    7  A    between atoms: C10_24  and  C11_25 
REMARK    8  A    between atoms: C11_25  and  O2_26 
ROOT
HETATM    1  N4  UNL     1      -2.635  78.703  24.430  1.00  0.00    -0.250 N 
HETATM    2  N5  UNL     1      -2.894  79.701  23.616  1.00  0.00    -0.282 N 
ATOM      3  H5  UNL     1      -3.871  79.907  23.406  1.00  0.00     0.188 HD
HETATM    4  C6  UNL     1      -1.948  80.473  23.039  1.00  0.00     0.133 A 
HETATM    5  N6  UNL     1      -2.266  81.545  22.162  1.00  0.00    -0.081 NA
HETATM    6  C7  UNL     1      -0.614  80.174  23.340  1.00  0.00     0.081 A 
HETATM    7  C8  UNL     1      -0.297  79.134  24.190  1.00  0.00     0.101 A 
HETATM    8  C12 UNL     1      -1.338  78.407  24.726  1.00  0.00     0.288 A 
HETATM    9  O3  UNL     1      -1.110  77.447  25.509  1.00  0.00    -0.264 OA
ENDROOT
BRANCH   1  10
HETATM   10  C5  UNL     1      -3.665  77.912  25.019  1.00  0.00     0.196 C 
BRANCH  10  11
HETATM   11  C4  UNL     1      -4.546  77.245  24.069  1.00  0.00     0.021 A 
HETATM   12  C1  UNL     1      -5.801  77.747  23.824  1.00  0.00     0.112 A 
HETATM   13  N2  UNL     1      -6.653  77.165  22.953  1.00  0.00    -0.294 N 
HETATM   14  C2  UNL     1      -6.267  76.066  22.306  1.00  0.00     0.325 A 
ATOM     15  H2  UNL     1      -7.580  77.561  22.792  1.00  0.00     0.172 HD
HETATM   16  O1  UNL     1      -7.064  75.525  21.493  1.00  0.00    -0.247 OA
HETATM   17  N3  UNL     1      -5.036  75.538  22.517  1.00  0.00    -0.318 N 
HETATM   18  C3  UNL     1      -4.162  76.111  23.394  1.00  0.00     0.105 A 
ATOM     19  H3  UNL     1      -4.759  74.696  22.012  1.00  0.00     0.170 HD
BRANCH  12  20
HETATM   20  N1  UNL     1      -6.217  78.802  24.423  1.00  0.00    -0.385 N 
ATOM     21  H12 UNL     1      -7.173  79.133  24.296  1.00  0.00     0.157 HD
ATOM     22  H11 UNL     1      -5.548  79.284  25.023  1.00  0.00     0.157 HD
ENDBRANCH  12  20
ENDBRANCH  10  11
ENDBRANCH   1  10
BRANCH   7  23
HETATM   23  N7  UNL     1       0.918  78.861  24.465  1.00  0.00    -0.385 N 
ATOM     24  H7  UNL     1       1.085  78.089  25.110  1.00  0.00     0.159 HD
BRANCH  23  25
HETATM   25  C9  UNL     1       2.063  79.539  23.951  1.00  0.00     0.122 C 
BRANCH  25  26
HETATM   26  C10 UNL     1       2.708  78.665  22.880  1.00  0.00     0.045 C 
BRANCH  26  27
HETATM   27  C11 UNL     1       2.735  77.207  23.344  1.00  0.00     0.165 C 
BRANCH  27  28
HETATM   28  O2  UNL     1       1.770  76.507  22.661  1.00  0.00    -0.401 OA
ATOM     29  H2  UNL     1       0.934  76.946  22.777  1.00  0.00     0.209 HD
ENDBRANCH  27  28
ENDBRANCH  26  27
ENDBRANCH  25  26
ENDBRANCH  23  25
ENDBRANCH   7  23
TORSDOF 8
ENDMDL
