MODEL 1
REMARK VINA RESULT: -7.190758119      0.000      0.000
REMARK  6 active torsions:
REMARK  status: ('A' for Active; 'I' for Inactive)
REMARK    1  A    between atoms: N1_1  and  C1_5 
REMARK    2  A    between atoms: C1_5  and  C2_6 
REMARK    3  A    between atoms: C2_6  and  C3_7 
REMARK    4  A    between atoms: C3_7  and  N2_8 
REMARK    5  A    between atoms: C4_10  and  C5_11 
REMARK    6  A    between atoms: N6_21  and  C9_23 
ROOT
HETATM    1  C5  UNL     1      -5.138  77.325  23.422  1.00  0.00     0.074 C 
HETATM    2  C6  UNL     1      -4.453  76.735  24.464  1.00  0.00     0.136 C 
HETATM    3  N3  UNL     1      -4.673  77.360  25.712  1.00  0.00    -0.082 NA
HETATM    4  N4  UNL     1      -3.636  75.669  24.396  1.00  0.00    -0.296 N 
ATOM      5  H4  UNL     1      -3.281  75.340  25.294  1.00  0.00     0.171 HD
HETATM    6  C7  UNL     1      -3.210  74.962  23.311  1.00  0.00     0.327 C 
HETATM    7  O1  UNL     1      -2.144  74.318  23.447  1.00  0.00    -0.247 OA
HETATM    8  N5  UNL     1      -3.821  74.883  22.102  1.00  0.00    -0.291 N 
ATOM      9  H5  UNL     1      -3.482  74.146  21.484  1.00  0.00     0.172 HD
HETATM   10  C8  UNL     1      -4.836  75.665  21.596  1.00  0.00     0.157 C 
HETATM   11  N6  UNL     1      -5.494  75.205  20.636  1.00  0.00    -0.365 N 
ATOM     12  H6  UNL     1      -5.222  74.280  20.302  1.00  0.00     0.161 HD
HETATM   13  C12 UNL     1      -5.159  76.907  22.085  1.00  0.00     0.230 C 
HETATM   14  O2  UNL     1      -5.510  77.748  21.228  1.00  0.00    -0.283 OA
ENDROOT
BRANCH   1  15
HETATM   15  C4  UNL     1      -5.924  78.501  23.701  1.00  0.00     0.102 C 
HETATM   16  N2  UNL     1      -5.345  79.635  23.827  1.00  0.00    -0.398 N 
ATOM     17  H2  UNL     1      -4.333  79.705  23.730  1.00  0.00     0.158 HD
BRANCH  16  18
HETATM   18  C3  UNL     1      -6.121  80.808  24.105  1.00  0.00     0.120 C 
BRANCH  18  19
HETATM   19  C2  UNL     1      -6.676  81.388  22.837  1.00  0.00     0.047 C 
BRANCH  19  20
HETATM   20  C1  UNL     1      -8.178  81.641  23.033  1.00  0.00     0.231 C 
BRANCH  20  21
HETATM   21  N1  UNL     1      -8.909  80.397  23.016  1.00  0.00    -0.079 N 
ATOM     22  H13 UNL     1      -9.146  80.110  22.065  1.00  0.00     0.274 HD
ATOM     23  H12 UNL     1      -8.316  79.606  23.271  1.00  0.00     0.274 HD
ATOM     24  H11 UNL     1      -9.735  80.457  23.611  1.00  0.00     0.274 HD
ENDBRANCH  20  21
ENDBRANCH  19  20
ENDBRANCH  18  19
ENDBRANCH  16  18
ENDBRANCH   1  15
BRANCH  11  25
HETATM   25  C9  UNL     1      -6.568  75.821  19.966  1.00  0.00     0.134 C 
HETATM   26  C10 UNL     1      -7.794  74.872  20.035  1.00  0.00     0.259 C 
HETATM   27  N7  UNL     1      -7.205  74.183  18.902  1.00  0.00    -0.071 N 
HETATM   28  C11 UNL     1      -6.730  75.511  18.477  1.00  0.00     0.259 C 
ATOM     29  H72 UNL     1      -6.567  73.397  19.023  1.00  0.00     0.277 HD
ATOM     30  H71 UNL     1      -7.760  73.589  18.287  1.00  0.00     0.277 HD
ENDBRANCH  11  25
TORSDOF 6
ENDMDL
MODEL 2
REMARK VINA RESULT: -7.127280123      1.041      1.409
REMARK  6 active torsions:
REMARK  status: ('A' for Active; 'I' for Inactive)
REMARK    1  A    between atoms: N1_1  and  C1_5 
REMARK    2  A    between atoms: C1_5  and  C2_6 
REMARK    3  A    between atoms: C2_6  and  C3_7 
REMARK    4  A    between atoms: C3_7  and  N2_8 
REMARK    5  A    between atoms: C4_10  and  C5_11 
REMARK    6  A    between atoms: N6_21  and  C9_23 
ROOT
HETATM    1  C5  UNL     1      -5.072  77.346  23.384  1.00  0.00     0.074 C 
HETATM    2  C6  UNL     1      -4.382  76.771  24.431  1.00  0.00     0.136 C 
HETATM    3  N3  UNL     1      -4.570  77.435  25.664  1.00  0.00    -0.082 NA
HETATM    4  N4  UNL     1      -3.589  75.687  24.380  1.00  0.00    -0.296 N 
ATOM      5  H4  UNL     1      -3.226  75.375  25.281  1.00  0.00     0.171 HD
HETATM    6  C7  UNL     1      -3.194  74.942  23.309  1.00  0.00     0.327 C 
HETATM    7  O1  UNL     1      -2.140  74.280  23.446  1.00  0.00    -0.247 OA
HETATM    8  N5  UNL     1      -3.826  74.842  22.112  1.00  0.00    -0.291 N 
ATOM      9  H5  UNL     1      -3.513  74.081  21.510  1.00  0.00     0.172 HD
HETATM   10  C8  UNL     1      -4.834  75.631  21.599  1.00  0.00     0.157 C 
HETATM   11  N6  UNL     1      -5.516  75.158  20.663  1.00  0.00    -0.365 N 
ATOM     12  H6  UNL     1      -5.268  74.219  20.351  1.00  0.00     0.161 HD
HETATM   13  C12 UNL     1      -5.123  76.892  22.060  1.00  0.00     0.230 C 
HETATM   14  O2  UNL     1      -5.471  77.716  21.184  1.00  0.00    -0.283 OA
ENDROOT
BRANCH   1  15
HETATM   15  C4  UNL     1      -5.829  78.546  23.642  1.00  0.00     0.102 C 
HETATM   16  N2  UNL     1      -5.279  79.690  23.483  1.00  0.00    -0.398 N 
ATOM     17  H2  UNL     1      -4.309  79.750  23.174  1.00  0.00     0.158 HD
BRANCH  16  18
HETATM   18  C3  UNL     1      -6.027  80.886  23.739  1.00  0.00     0.120 C 
BRANCH  18  19
HETATM   19  C2  UNL     1      -5.868  81.861  22.609  1.00  0.00     0.047 C 
BRANCH  19  20
HETATM   20  C1  UNL     1      -4.547  81.559  21.886  1.00  0.00     0.231 C 
BRANCH  20  21
HETATM   21  N1  UNL     1      -4.705  81.701  20.459  1.00  0.00    -0.079 N 
ATOM     22  H13 UNL     1      -5.268  80.948  20.063  1.00  0.00     0.274 HD
ATOM     23  H12 UNL     1      -5.313  82.486  20.222  1.00  0.00     0.274 HD
ATOM     24  H11 UNL     1      -3.796  81.775  20.003  1.00  0.00     0.274 HD
ENDBRANCH  20  21
ENDBRANCH  19  20
ENDBRANCH  18  19
ENDBRANCH  16  18
ENDBRANCH   1  15
BRANCH  11  25
HETATM   25  C9  UNL     1      -6.588  75.778  19.993  1.00  0.00     0.134 C 
HETATM   26  C10 UNL     1      -7.796  74.803  20.001  1.00  0.00     0.259 C 
HETATM   27  N7  UNL     1      -7.170  74.168  18.857  1.00  0.00    -0.071 N 
HETATM   28  C11 UNL     1      -6.713  75.520  18.491  1.00  0.00     0.259 C 
ATOM     29  H72 UNL     1      -6.519  73.391  18.963  1.00  0.00     0.277 HD
ATOM     30  H71 UNL     1      -7.700  73.587  18.208  1.00  0.00     0.277 HD
ENDBRANCH  11  25
TORSDOF 6
ENDMDL
MODEL 3
REMARK VINA RESULT: -7.102053344      1.010      1.199
REMARK  6 active torsions:
REMARK  status: ('A' for Active; 'I' for Inactive)
REMARK    1  A    between atoms: N1_1  and  C1_5 
REMARK    2  A    between atoms: C1_5  and  C2_6 
REMARK    3  A    between atoms: C2_6  and  C3_7 
REMARK    4  A    between atoms: C3_7  and  N2_8 
REMARK    5  A    between atoms: C4_10  and  C5_11 
REMARK    6  A    between atoms: N6_21  and  C9_23 
ROOT
HETATM    1  C5  UNL     1      -5.255  77.452  23.418  1.00  0.00     0.074 C 
HETATM    2  C6  UNL     1      -4.588  76.917  24.502  1.00  0.00     0.136 C 
HETATM    3  N3  UNL     1      -4.867  77.576  25.719  1.00  0.00    -0.082 NA
HETATM    4  N4  UNL     1      -3.740  75.874  24.496  1.00  0.00    -0.296 N 
ATOM      5  H4  UNL     1      -3.406  75.585  25.416  1.00  0.00     0.171 HD
HETATM    6  C7  UNL     1      -3.258  75.144  23.451  1.00  0.00     0.327 C 
HETATM    7  O1  UNL     1      -2.180  74.536  23.643  1.00  0.00    -0.247 OA
HETATM    8  N5  UNL     1      -3.826  75.007  22.226  1.00  0.00    -0.291 N 
ATOM      9  H5  UNL     1      -3.447  74.259  21.645  1.00  0.00     0.172 HD
HETATM   10  C8  UNL     1      -4.846  75.741  21.660  1.00  0.00     0.157 C 
HETATM   11  N6  UNL     1      -5.458  75.230  20.696  1.00  0.00    -0.365 N 
ATOM     12  H6  UNL     1      -5.149  74.303  20.403  1.00  0.00     0.161 HD
HETATM   13  C12 UNL     1      -5.220  76.988  22.097  1.00  0.00     0.230 C 
HETATM   14  O2  UNL     1      -5.565  77.790  21.200  1.00  0.00    -0.283 OA
ENDROOT
BRANCH   1  15
HETATM   15  C4  UNL     1      -6.082  78.613  23.631  1.00  0.00     0.102 C 
HETATM   16  N2  UNL     1      -5.651  79.769  23.295  1.00  0.00    -0.398 N 
ATOM     17  H2  UNL     1      -4.726  79.867  22.878  1.00  0.00     0.158 HD
BRANCH  16  18
HETATM   18  C3  UNL     1      -6.469  80.928  23.505  1.00  0.00     0.120 C 
BRANCH  18  19
HETATM   19  C2  UNL     1      -5.755  81.931  24.363  1.00  0.00     0.047 C 
BRANCH  19  20
HETATM   20  C1  UNL     1      -6.765  82.531  25.353  1.00  0.00     0.231 C 
BRANCH  20  21
HETATM   21  N1  UNL     1      -6.984  81.633  26.461  1.00  0.00    -0.079 N 
ATOM     22  H13 UNL     1      -6.908  80.656  26.177  1.00  0.00     0.274 HD
ATOM     23  H12 UNL     1      -6.213  81.659  27.129  1.00  0.00     0.274 HD
ATOM     24  H11 UNL     1      -7.879  81.828  26.910  1.00  0.00     0.274 HD
ENDBRANCH  20  21
ENDBRANCH  19  20
ENDBRANCH  18  19
ENDBRANCH  16  18
ENDBRANCH   1  15
BRANCH  11  25
HETATM   25  C9  UNL     1      -6.526  75.792  19.971  1.00  0.00     0.134 C 
HETATM   26  C10 UNL     1      -7.740  74.830  20.068  1.00  0.00     0.259 C 
HETATM   27  N7  UNL     1      -7.117  74.089  18.987  1.00  0.00    -0.071 N 
HETATM   28  C11 UNL     1      -6.652  75.398  18.499  1.00  0.00     0.259 C 
ATOM     29  H72 UNL     1      -6.471  73.320  19.165  1.00  0.00     0.277 HD
ATOM     30  H71 UNL     1      -7.651  73.453  18.394  1.00  0.00     0.277 HD
ENDBRANCH  11  25
TORSDOF 6
ENDMDL
MODEL 4
REMARK VINA RESULT: -7.046041753      1.791      5.370
REMARK  6 active torsions:
REMARK  status: ('A' for Active; 'I' for Inactive)
REMARK    1  A    between atoms: N1_1  and  C1_5 
REMARK    2  A    between atoms: C1_5  and  C2_6 
REMARK    3  A    between atoms: C2_6  and  C3_7 
REMARK    4  A    between atoms: C3_7  and  N2_8 
REMARK    5  A    between atoms: C4_10  and  C5_11 
REMARK    6  A    between atoms: N6_21  and  C9_23 
ROOT
HETATM    1  C5  UNL     1      -4.868  76.044  23.135  1.00  0.00     0.074 C 
HETATM    2  C6  UNL     1      -3.691  75.367  23.382  1.00  0.00     0.136 C 
HETATM    3  N3  UNL     1      -3.481  74.266  22.522  1.00  0.00    -0.082 NA
HETATM    4  N4  UNL     1      -2.775  75.652  24.323  1.00  0.00    -0.296 N 
ATOM      5  H4  UNL     1      -1.935  75.073  24.297  1.00  0.00     0.171 HD
HETATM    6  C7  UNL     1      -2.797  76.595  25.308  1.00  0.00     0.327 C 
HETATM    7  O1  UNL     1      -2.062  76.384  26.300  1.00  0.00    -0.247 OA
HETATM    8  N5  UNL     1      -3.529  77.737  25.322  1.00  0.00    -0.291 N 
ATOM      9  H5  UNL     1      -3.262  78.423  26.028  1.00  0.00     0.172 HD
HETATM   10  C8  UNL     1      -4.586  78.095  24.513  1.00  0.00     0.157 C 
HETATM   11  N6  UNL     1      -4.874  79.311  24.445  1.00  0.00    -0.365 N 
ATOM     12  H6  UNL     1      -4.299  79.945  25.001  1.00  0.00     0.161 HD
HETATM   13  C12 UNL     1      -5.327  77.197  23.786  1.00  0.00     0.230 C 
HETATM   14  O2  UNL     1      -6.550  77.451  23.704  1.00  0.00    -0.283 OA
ENDROOT
BRANCH   1  15
HETATM   15  C4  UNL     1      -5.743  75.539  22.107  1.00  0.00     0.102 C 
HETATM   16  N2  UNL     1      -5.858  76.175  21.003  1.00  0.00    -0.398 N 
ATOM     17  H2  UNL     1      -5.331  77.035  20.853  1.00  0.00     0.158 HD
BRANCH  16  18
HETATM   18  C3  UNL     1      -6.727  75.678  19.977  1.00  0.00     0.120 C 
BRANCH  18  19
HETATM   19  C2  UNL     1      -5.966  75.448  18.704  1.00  0.00     0.047 C 
BRANCH  19  20
HETATM   20  C1  UNL     1      -4.780  76.424  18.663  1.00  0.00     0.231 C 
BRANCH  20  21
HETATM   21  N1  UNL     1      -4.366  76.661  17.301  1.00  0.00    -0.079 N 
ATOM     22  H13 UNL     1      -3.373  76.891  17.242  1.00  0.00     0.274 HD
ATOM     23  H12 UNL     1      -4.357  75.801  16.752  1.00  0.00     0.274 HD
ATOM     24  H11 UNL     1      -4.948  77.379  16.869  1.00  0.00     0.274 HD
ENDBRANCH  20  21
ENDBRANCH  19  20
ENDBRANCH  18  19
ENDBRANCH  16  18
ENDBRANCH   1  15
BRANCH  11  25
HETATM   25  C9  UNL     1      -5.903  79.902  23.687  1.00  0.00     0.134 C 
HETATM   26  C10 UNL     1      -5.254  80.834  22.629  1.00  0.00     0.259 C 
HETATM   27  N7  UNL     1      -5.176  81.823  23.688  1.00  0.00    -0.071 N 
HETATM   28  C11 UNL     1      -6.442  81.247  24.174  1.00  0.00     0.259 C 
ATOM     29  H72 UNL     1      -4.356  81.905  24.288  1.00  0.00     0.277 HD
ATOM     30  H71 UNL     1      -5.081  82.819  23.487  1.00  0.00     0.277 HD
ENDBRANCH  11  25
TORSDOF 6
ENDMDL
MODEL 5
REMARK VINA RESULT: -6.948703861      3.188      6.233
REMARK  6 active torsions:
REMARK  status: ('A' for Active; 'I' for Inactive)
REMARK    1  A    between atoms: N1_1  and  C1_5 
REMARK    2  A    between atoms: C1_5  and  C2_6 
REMARK    3  A    between atoms: C2_6  and  C3_7 
REMARK    4  A    between atoms: C3_7  and  N2_8 
REMARK    5  A    between atoms: C4_10  and  C5_11 
REMARK    6  A    between atoms: N6_21  and  C9_23 
ROOT
HETATM    1  C5  UNL     1      -3.388  77.789  24.285  1.00  0.00     0.074 C 
HETATM    2  C6  UNL     1      -3.665  76.441  24.382  1.00  0.00     0.136 C 
HETATM    3  N3  UNL     1      -2.583  75.675  24.871  1.00  0.00    -0.082 NA
HETATM    4  N4  UNL     1      -4.818  75.827  24.066  1.00  0.00    -0.296 N 
ATOM      5  H4  UNL     1      -4.847  74.829  24.278  1.00  0.00     0.171 HD
HETATM    6  C7  UNL     1      -5.953  76.332  23.506  1.00  0.00     0.327 C 
HETATM    7  O1  UNL     1      -6.699  75.515  22.918  1.00  0.00    -0.247 OA
HETATM    8  N5  UNL     1      -6.359  77.627  23.521  1.00  0.00    -0.291 N 
ATOM      9  H5  UNL     1      -7.328  77.789  23.245  1.00  0.00     0.172 HD
HETATM   10  C8  UNL     1      -5.640  78.753  23.858  1.00  0.00     0.157 C 
HETATM   11  N6  UNL     1      -6.286  79.782  24.157  1.00  0.00    -0.365 N 
ATOM     12  H6  UNL     1      -7.303  79.703  24.126  1.00  0.00     0.161 HD
HETATM   13  C12 UNL     1      -4.268  78.802  23.882  1.00  0.00     0.230 C 
HETATM   14  O2  UNL     1      -3.762  79.880  23.497  1.00  0.00    -0.283 OA
ENDROOT
BRANCH   1  15
HETATM   15  C4  UNL     1      -2.061  78.239  24.626  1.00  0.00     0.102 C 
HETATM   16  N2  UNL     1      -1.151  78.270  23.727  1.00  0.00    -0.398 N 
ATOM     17  H2  UNL     1      -1.366  77.976  22.774  1.00  0.00     0.158 HD
BRANCH  16  18
HETATM   18  C3  UNL     1       0.170  78.716  24.059  1.00  0.00     0.120 C 
BRANCH  18  19
HETATM   19  C2  UNL     1       0.856  79.283  22.851  1.00  0.00     0.047 C 
BRANCH  19  20
HETATM   20  C1  UNL     1       2.182  78.535  22.648  1.00  0.00     0.231 C 
BRANCH  20  21
HETATM   21  N1  UNL     1       1.945  77.123  22.467  1.00  0.00    -0.079 N 
ATOM     22  H13 UNL     1       1.291  76.757  23.160  1.00  0.00     0.274 HD
ATOM     23  H12 UNL     1       1.398  76.935  21.626  1.00  0.00     0.274 HD
ATOM     24  H11 UNL     1       2.826  76.608  22.468  1.00  0.00     0.274 HD
ENDBRANCH  20  21
ENDBRANCH  19  20
ENDBRANCH  18  19
ENDBRANCH  16  18
ENDBRANCH   1  15
BRANCH  11  25
HETATM   25  C9  UNL     1      -5.766  81.035  24.533  1.00  0.00     0.134 C 
HETATM   26  C10 UNL     1      -6.605  81.573  25.722  1.00  0.00     0.259 C 
HETATM   27  N7  UNL     1      -7.554  82.028  24.724  1.00  0.00    -0.071 N 
HETATM   28  C11 UNL     1      -6.378  82.270  23.870  1.00  0.00     0.259 C 
ATOM     29  H72 UNL     1      -8.332  81.445  24.416  1.00  0.00     0.277 HD
ATOM     30  H71 UNL     1      -8.233  82.763  24.923  1.00  0.00     0.277 HD
ENDBRANCH  11  25
TORSDOF 6
ENDMDL
