MODEL 1
REMARK VINA RESULT: -6.600151157      0.000      0.000
REMARK  4 active torsions:
REMARK  status: ('A' for Active; 'I' for Inactive)
REMARK    1  A    between atoms: C2_2  and  C4_4 
REMARK    2  A    between atoms: C6_8  and  C7_9 
REMARK    3  A    between atoms: C7_9  and  N2_10 
REMARK    4  A    between atoms: C7_9  and  C8_14 
ROOT
HETATM    1  C4  UNL     1      -5.831  79.316  23.561  1.00  0.00     0.034 A 
HETATM    2  N1  UNL     1      -6.688  79.137  22.557  1.00  0.00    -0.367 N 
ATOM      3  H1  UNL     1      -7.139  79.892  22.039  1.00  0.00     0.165 HD
HETATM    4  C5  UNL     1      -6.877  77.842  22.320  1.00  0.00     0.099 A 
HETATM    5  C6  UNL     1      -6.100  77.112  23.218  1.00  0.00     0.017 A 
HETATM    6  C9  UNL     1      -5.451  78.048  23.990  1.00  0.00     0.077 A 
HETATM    7  C10 UNL     1      -4.540  77.826  25.086  1.00  0.00     0.102 C 
HETATM    8  N5  UNL     1      -3.815  77.630  25.970  1.00  0.00    -0.191 NA
ENDROOT
BRANCH   1   9
HETATM    9  C2  UNL     1      -5.369  80.601  24.120  1.00  0.00     0.029 C 
HETATM   10  C1  UNL     1      -4.205  81.116  23.267  1.00  0.00     0.016 C 
HETATM   11  C3  UNL     1      -6.438  81.673  24.044  1.00  0.00     0.016 C 
ENDBRANCH   1   9
BRANCH   5  12
HETATM   12  C7  UNL     1      -5.982  75.649  23.300  1.00  0.00     0.283 C 
BRANCH  12  13
HETATM   13  N2  UNL     1      -7.208  74.977  22.908  1.00  0.00    -0.064 N 
ATOM     14  H23 UNL     1      -7.153  73.975  23.087  1.00  0.00     0.275 HD
ATOM     15  H22 UNL     1      -7.976  75.212  23.537  1.00  0.00     0.275 HD
ATOM     16  H21 UNL     1      -7.457  75.165  21.937  1.00  0.00     0.275 HD
ENDBRANCH  12  13
BRANCH  12  17
HETATM   17  C8  UNL     1      -4.820  75.067  22.613  1.00  0.00     0.122 C 
HETATM   18  N3  UNL     1      -4.794  74.778  21.353  1.00  0.00    -0.389 N 
ATOM     19  H32 UNL     1      -5.605  74.985  20.770  1.00  0.00     0.157 HD
ATOM     20  H31 UNL     1      -3.988  74.375  20.876  1.00  0.00     0.157 HD
HETATM   21  N4  UNL     1      -3.681  74.775  23.433  1.00  0.00    -0.086 NA
ENDBRANCH  12  17
ENDBRANCH   5  12
TORSDOF 4
ENDMDL
MODEL 2
REMARK VINA RESULT: -6.324855202      2.001      4.498
REMARK  4 active torsions:
REMARK  status: ('A' for Active; 'I' for Inactive)
REMARK    1  A    between atoms: C2_2  and  C4_4 
REMARK    2  A    between atoms: C6_8  and  C7_9 
REMARK    3  A    between atoms: C7_9  and  N2_10 
REMARK    4  A    between atoms: C7_9  and  C8_14 
ROOT
HETATM    1  C4  UNL     1      -6.814  76.770  21.371  1.00  0.00     0.034 A 
HETATM    2  N1  UNL     1      -6.872  75.883  22.363  1.00  0.00    -0.367 N 
ATOM      3  H1  UNL     1      -7.405  75.014  22.332  1.00  0.00     0.165 HD
HETATM    4  C5  UNL     1      -6.141  76.284  23.399  1.00  0.00     0.099 A 
HETATM    5  C6  UNL     1      -5.560  77.510  23.082  1.00  0.00     0.017 A 
HETATM    6  C9  UNL     1      -5.990  77.802  21.808  1.00  0.00     0.077 A 
HETATM    7  C10 UNL     1      -5.699  78.970  21.012  1.00  0.00     0.102 C 
HETATM    8  N5  UNL     1      -5.461  79.919  20.389  1.00  0.00    -0.191 NA
ENDROOT
BRANCH   1   9
HETATM    9  C2  UNL     1      -7.487  76.687  20.061  1.00  0.00     0.029 C 
HETATM   10  C1  UNL     1      -7.816  75.218  19.771  1.00  0.00     0.016 C 
HETATM   11  C3  UNL     1      -8.819  77.412  20.057  1.00  0.00     0.016 C 
ENDBRANCH   1   9
BRANCH   5  12
HETATM   12  C7  UNL     1      -4.655  78.305  23.924  1.00  0.00     0.283 C 
BRANCH  12  13
HETATM   13  N2  UNL     1      -5.376  79.189  24.822  1.00  0.00    -0.064 N 
ATOM     14  H23 UNL     1      -6.172  78.714  25.246  1.00  0.00     0.275 HD
ATOM     15  H22 UNL     1      -4.835  79.382  25.665  1.00  0.00     0.275 HD
ATOM     16  H21 UNL     1      -5.664  80.054  24.363  1.00  0.00     0.275 HD
ENDBRANCH  12  13
BRANCH  12  17
HETATM   17  C8  UNL     1      -3.628  77.542  24.649  1.00  0.00     0.122 C 
HETATM   18  N3  UNL     1      -2.680  76.879  24.074  1.00  0.00    -0.389 N 
ATOM     19  H32 UNL     1      -2.595  76.895  23.058  1.00  0.00     0.157 HD
ATOM     20  H31 UNL     1      -1.968  76.350  24.577  1.00  0.00     0.157 HD
HETATM   21  N4  UNL     1      -3.748  77.519  26.078  1.00  0.00    -0.086 NA
ENDBRANCH  12  17
ENDBRANCH   5  12
TORSDOF 4
ENDMDL
MODEL 3
REMARK VINA RESULT: -6.208107260      2.981      4.247
REMARK  4 active torsions:
REMARK  status: ('A' for Active; 'I' for Inactive)
REMARK    1  A    between atoms: C2_2  and  C4_4 
REMARK    2  A    between atoms: C6_8  and  C7_9 
REMARK    3  A    between atoms: C7_9  and  N2_10 
REMARK    4  A    between atoms: C7_9  and  C8_14 
ROOT
HETATM    1  C4  UNL     1      -1.586  79.379  23.844  1.00  0.00     0.034 A 
HETATM    2  N1  UNL     1      -2.144  80.326  23.092  1.00  0.00    -0.367 N 
ATOM      3  H1  UNL     1      -1.624  81.041  22.581  1.00  0.00     0.165 HD
HETATM    4  C5  UNL     1      -3.469  80.216  23.098  1.00  0.00     0.099 A 
HETATM    5  C6  UNL     1      -3.819  79.131  23.899  1.00  0.00     0.017 A 
HETATM    6  C9  UNL     1      -2.629  78.616  24.361  1.00  0.00     0.077 A 
HETATM    7  C10 UNL     1      -2.423  77.498  25.249  1.00  0.00     0.102 C 
HETATM    8  N5  UNL     1      -2.276  76.601  25.970  1.00  0.00    -0.191 NA
ENDROOT
BRANCH   1   9
HETATM    9  C2  UNL     1      -0.147  79.169  24.091  1.00  0.00     0.029 C 
HETATM   10  C1  UNL     1       0.567  79.035  22.741  1.00  0.00     0.016 C 
HETATM   11  C3  UNL     1       0.494  80.361  24.775  1.00  0.00     0.016 C 
ENDBRANCH   1   9
BRANCH   5  12
HETATM   12  C7  UNL     1      -5.174  78.629  24.169  1.00  0.00     0.283 C 
BRANCH  12  13
HETATM   13  N2  UNL     1      -6.028  79.646  24.756  1.00  0.00    -0.064 N 
ATOM     14  H23 UNL     1      -6.031  79.582  25.774  1.00  0.00     0.275 HD
ATOM     15  H22 UNL     1      -5.621  80.575  24.654  1.00  0.00     0.275 HD
ATOM     16  H21 UNL     1      -6.977  79.616  24.382  1.00  0.00     0.275 HD
ENDBRANCH  12  13
BRANCH  12  17
HETATM   17  C8  UNL     1      -5.842  77.969  23.038  1.00  0.00     0.122 C 
HETATM   18  N3  UNL     1      -5.327  76.996  22.361  1.00  0.00    -0.389 N 
ATOM     19  H32 UNL     1      -4.416  76.623  22.626  1.00  0.00     0.157 HD
ATOM     20  H31 UNL     1      -5.791  76.538  21.577  1.00  0.00     0.157 HD
HETATM   21  N4  UNL     1      -7.123  78.495  22.666  1.00  0.00    -0.086 NA
ENDBRANCH  12  17
ENDBRANCH   5  12
TORSDOF 4
ENDMDL
MODEL 4
REMARK VINA RESULT: -6.037861011      6.659      7.962
REMARK  4 active torsions:
REMARK  status: ('A' for Active; 'I' for Inactive)
REMARK    1  A    between atoms: C2_2  and  C4_4 
REMARK    2  A    between atoms: C6_8  and  C7_9 
REMARK    3  A    between atoms: C7_9  and  N2_10 
REMARK    4  A    between atoms: C7_9  and  C8_14 
ROOT
HETATM    1  C4  UNL     1      -0.205  79.601  22.184  1.00  0.00     0.034 A 
HETATM    2  N1  UNL     1      -1.336  80.019  21.619  1.00  0.00    -0.367 N 
ATOM      3  H1  UNL     1      -2.237  80.071  22.096  1.00  0.00     0.165 HD
HETATM    4  C5  UNL     1      -1.133  80.361  20.350  1.00  0.00     0.099 A 
HETATM    5  C6  UNL     1       0.212  80.160  20.048  1.00  0.00     0.017 A 
HETATM    6  C9  UNL     1       0.782  79.683  21.206  1.00  0.00     0.077 A 
HETATM    7  C10 UNL     1       2.152  79.291  21.433  1.00  0.00     0.102 C 
HETATM    8  N5  UNL     1       3.255  78.973  21.596  1.00  0.00    -0.191 NA
ENDROOT
BRANCH   1   9
HETATM    9  C2  UNL     1      -0.020  79.136  23.572  1.00  0.00     0.029 C 
HETATM   10  C1  UNL     1       0.259  80.351  24.463  1.00  0.00     0.016 C 
HETATM   11  C3  UNL     1      -1.277  78.500  24.132  1.00  0.00     0.016 C 
ENDBRANCH   1   9
BRANCH   5  12
HETATM   12  C7  UNL     1       0.882  80.430  18.768  1.00  0.00     0.283 C 
BRANCH  12  13
HETATM   13  N2  UNL     1       0.069  80.038  17.630  1.00  0.00    -0.064 N 
ATOM     14  H23 UNL     1       0.216  79.058  17.392  1.00  0.00     0.275 HD
ATOM     15  H22 UNL     1      -0.919  79.998  17.879  1.00  0.00     0.275 HD
ATOM     16  H21 UNL     1       0.221  80.642  16.822  1.00  0.00     0.275 HD
ENDBRANCH  12  13
BRANCH  12  17
HETATM   17  C8  UNL     1       1.401  81.795  18.599  1.00  0.00     0.122 C 
HETATM   18  N3  UNL     1       0.827  82.704  17.882  1.00  0.00    -0.389 N 
ATOM     19  H32 UNL     1      -0.059  82.498  17.419  1.00  0.00     0.157 HD
ATOM     20  H31 UNL     1       1.187  83.651  17.765  1.00  0.00     0.157 HD
HETATM   21  N4  UNL     1       2.646  82.084  19.249  1.00  0.00    -0.086 NA
ENDBRANCH  12  17
ENDBRANCH   5  12
TORSDOF 4
ENDMDL
MODEL 5
REMARK VINA RESULT: -5.953425768      1.409      1.458
REMARK  4 active torsions:
REMARK  status: ('A' for Active; 'I' for Inactive)
REMARK    1  A    between atoms: C2_2  and  C4_4 
REMARK    2  A    between atoms: C6_8  and  C7_9 
REMARK    3  A    between atoms: C7_9  and  N2_10 
REMARK    4  A    between atoms: C7_9  and  C8_14 
ROOT
HETATM    1  C4  UNL     1      -5.988  79.156  21.942  1.00  0.00     0.034 A 
HETATM    2  N1  UNL     1      -6.297  78.518  20.815  1.00  0.00    -0.367 N 
ATOM      3  H1  UNL     1      -6.495  78.976  19.925  1.00  0.00     0.165 HD
HETATM    4  C5  UNL     1      -6.311  77.201  21.005  1.00  0.00     0.099 A 
HETATM    5  C6  UNL     1      -5.992  76.944  22.337  1.00  0.00     0.017 A 
HETATM    6  C9  UNL     1      -5.794  78.178  22.912  1.00  0.00     0.077 A 
HETATM    7  C10 UNL     1      -5.463  78.482  24.284  1.00  0.00     0.102 C 
HETATM    8  N5  UNL     1      -5.205  78.709  25.391  1.00  0.00    -0.191 NA
ENDROOT
BRANCH   1   9
HETATM    9  C2  UNL     1      -5.874  80.614  22.138  1.00  0.00     0.029 C 
HETATM   10  C1  UNL     1      -5.097  81.208  20.958  1.00  0.00     0.016 C 
HETATM   11  C3  UNL     1      -7.227  81.299  22.122  1.00  0.00     0.016 C 
ENDBRANCH   1   9
BRANCH   5  12
HETATM   12  C7  UNL     1      -5.869  75.628  22.979  1.00  0.00     0.283 C 
BRANCH  12  13
HETATM   13  N2  UNL     1      -7.040  74.798  22.758  1.00  0.00    -0.064 N 
ATOM     14  H23 UNL     1      -7.498  75.033  21.878  1.00  0.00     0.275 HD
ATOM     15  H22 UNL     1      -6.776  73.835  22.550  1.00  0.00     0.275 HD
ATOM     16  H21 UNL     1      -7.695  74.840  23.539  1.00  0.00     0.275 HD
ENDBRANCH  12  13
BRANCH  12  17
HETATM   17  C8  UNL     1      -4.635  74.888  22.678  1.00  0.00     0.122 C 
HETATM   18  N3  UNL     1      -4.474  74.145  21.633  1.00  0.00    -0.389 N 
ATOM     19  H32 UNL     1      -5.221  74.075  20.942  1.00  0.00     0.157 HD
ATOM     20  H31 UNL     1      -3.618  73.633  21.423  1.00  0.00     0.157 HD
HETATM   21  N4  UNL     1      -3.585  74.986  23.649  1.00  0.00    -0.086 NA
ENDBRANCH  12  17
ENDBRANCH   5  12
TORSDOF 4
ENDMDL
