MODEL 1
REMARK VINA RESULT: -6.522882580      0.000      0.000
REMARK  6 active torsions:
REMARK  status: ('A' for Active; 'I' for Inactive)
REMARK    1  A    between atoms: C2_2  and  C3_3 
REMARK    2  A    between atoms: C3_3  and  N2_7 
REMARK    3  A    between atoms: N2_7  and  C4_9 
REMARK    4  A    between atoms: C7_12  and  C8_13 
REMARK    5  A    between atoms: C8_13  and  N4_17 
REMARK    6  A    between atoms: N4_17  and  O1_19 
ROOT
HETATM    1  C4  UNL     1      -6.360  75.599  22.263  1.00  0.00     0.033 A 
HETATM    2  C5  UNL     1      -5.235  74.832  22.358  1.00  0.00     0.030 A 
HETATM    3  C6  UNL     1      -4.143  75.320  23.076  1.00  0.00     0.017 A 
HETATM    4  C7  UNL     1      -4.127  76.542  23.704  1.00  0.00     0.009 A 
HETATM    5  C10 UNL     1      -5.292  77.307  23.589  1.00  0.00     0.017 A 
HETATM    6  C11 UNL     1      -6.371  76.834  22.885  1.00  0.00     0.030 A 
ENDROOT
BRANCH   1   7
HETATM    7  N2  UNL     1      -7.497  75.161  21.550  1.00  0.00    -0.343 N 
ATOM      8  H2  UNL     1      -8.286  74.746  22.046  1.00  0.00     0.167 HD
BRANCH   7   9
HETATM    9  C3  UNL     1      -7.533  75.305  20.124  1.00  0.00     0.098 C 
HETATM   10  N1  UNL     1      -7.300  74.272  19.430  1.00  0.00    -0.386 N 
ATOM     11  H12 UNL     1      -7.325  74.375  18.416  1.00  0.00     0.157 HD
ATOM     12  H11 UNL     1      -7.091  73.363  19.843  1.00  0.00     0.157 HD
BRANCH   9  13
HETATM   13  C2  UNL     1      -7.827  76.587  19.541  1.00  0.00     0.038 C 
HETATM   14  C1  UNL     1      -8.736  77.390  20.040  1.00  0.00     0.015 C 
ENDBRANCH   9  13
ENDBRANCH   7   9
ENDBRANCH   1   7
BRANCH   4  15
HETATM   15  C8  UNL     1      -2.982  77.043  24.450  1.00  0.00     0.129 C 
HETATM   16  N3  UNL     1      -2.844  76.799  25.693  1.00  0.00    -0.383 N 
ATOM     17  H32 UNL     1      -3.564  76.239  26.150  1.00  0.00     0.157 HD
ATOM     18  H31 UNL     1      -2.042  77.150  26.216  1.00  0.00     0.157 HD
BRANCH  15  19
HETATM   19  N4  UNL     1      -1.971  77.830  23.808  1.00  0.00    -0.251 N 
ATOM     20  H4  UNL     1      -2.207  78.329  22.951  1.00  0.00     0.196 HD
BRANCH  19  21
HETATM   21  O1  UNL     1      -0.716  77.934  24.297  1.00  0.00    -0.284 OA
HETATM   22  C9  UNL     1      -0.358  79.279  24.501  1.00  0.00     0.237 C 
ENDBRANCH  19  21
ENDBRANCH  15  19
ENDBRANCH   4  15
TORSDOF 6
ENDMDL
MODEL 2
REMARK VINA RESULT: -6.519761527      0.043      1.179
REMARK  6 active torsions:
REMARK  status: ('A' for Active; 'I' for Inactive)
REMARK    1  A    between atoms: C2_2  and  C3_3 
REMARK    2  A    between atoms: C3_3  and  N2_7 
REMARK    3  A    between atoms: N2_7  and  C4_9 
REMARK    4  A    between atoms: C7_12  and  C8_13 
REMARK    5  A    between atoms: C8_13  and  N4_17 
REMARK    6  A    between atoms: N4_17  and  O1_19 
ROOT
HETATM    1  C4  UNL     1      -6.380  75.657  22.272  1.00  0.00     0.033 A 
HETATM    2  C5  UNL     1      -6.394  76.896  22.845  1.00  0.00     0.030 A 
HETATM    3  C6  UNL     1      -5.271  77.330  23.549  1.00  0.00     0.017 A 
HETATM    4  C7  UNL     1      -4.131  76.577  23.705  1.00  0.00     0.009 A 
HETATM    5  C10 UNL     1      -4.144  75.312  23.109  1.00  0.00     0.017 A 
HETATM    6  C11 UNL     1      -5.246  74.879  22.415  1.00  0.00     0.030 A 
ENDROOT
BRANCH   1   7
HETATM    7  N2  UNL     1      -7.485  75.162  21.548  1.00  0.00    -0.343 N 
ATOM      8  H2  UNL     1      -8.258  74.709  22.036  1.00  0.00     0.167 HD
BRANCH   7   9
HETATM    9  C3  UNL     1      -7.512  75.301  20.121  1.00  0.00     0.098 C 
HETATM   10  N1  UNL     1      -7.260  74.270  19.432  1.00  0.00    -0.386 N 
ATOM     11  H12 UNL     1      -7.278  74.370  18.418  1.00  0.00     0.157 HD
ATOM     12  H11 UNL     1      -7.042  73.365  19.849  1.00  0.00     0.157 HD
BRANCH   9  13
HETATM   13  C2  UNL     1      -7.819  76.578  19.532  1.00  0.00     0.038 C 
HETATM   14  C1  UNL     1      -8.738  77.374  20.025  1.00  0.00     0.015 C 
ENDBRANCH   9  13
ENDBRANCH   7   9
ENDBRANCH   1   7
BRANCH   4  15
HETATM   15  C8  UNL     1      -2.965  77.038  24.442  1.00  0.00     0.129 C 
HETATM   16  N3  UNL     1      -2.825  76.790  25.684  1.00  0.00    -0.383 N 
ATOM     17  H32 UNL     1      -3.559  76.254  26.147  1.00  0.00     0.157 HD
ATOM     18  H31 UNL     1      -2.006  77.113  26.201  1.00  0.00     0.157 HD
BRANCH  15  19
HETATM   19  N4  UNL     1      -1.933  77.792  23.792  1.00  0.00    -0.251 N 
ATOM     20  H4  UNL     1      -2.134  78.227  22.893  1.00  0.00     0.196 HD
BRANCH  19  21
HETATM   21  O1  UNL     1      -0.702  77.945  24.328  1.00  0.00    -0.284 OA
HETATM   22  C9  UNL     1      -0.386  79.305  24.501  1.00  0.00     0.237 C 
ENDBRANCH  19  21
ENDBRANCH  15  19
ENDBRANCH   4  15
TORSDOF 6
ENDMDL
MODEL 3
REMARK VINA RESULT: -6.291935833      2.533      3.389
REMARK  6 active torsions:
REMARK  status: ('A' for Active; 'I' for Inactive)
REMARK    1  A    between atoms: C2_2  and  C3_3 
REMARK    2  A    between atoms: C3_3  and  N2_7 
REMARK    3  A    between atoms: N2_7  and  C4_9 
REMARK    4  A    between atoms: C7_12  and  C8_13 
REMARK    5  A    between atoms: C8_13  and  N4_17 
REMARK    6  A    between atoms: N4_17  and  O1_19 
ROOT
HETATM    1  C4  UNL     1      -7.255  77.314  21.061  1.00  0.00     0.033 A 
HETATM    2  C5  UNL     1      -6.630  76.325  20.358  1.00  0.00     0.030 A 
HETATM    3  C6  UNL     1      -5.740  75.481  21.022  1.00  0.00     0.017 A 
HETATM    4  C7  UNL     1      -5.445  75.585  22.361  1.00  0.00     0.009 A 
HETATM    5  C10 UNL     1      -6.099  76.607  23.056  1.00  0.00     0.017 A 
HETATM    6  C11 UNL     1      -6.977  77.440  22.410  1.00  0.00     0.030 A 
ENDROOT
BRANCH   1   7
HETATM    7  N2  UNL     1      -8.167  78.199  20.446  1.00  0.00    -0.343 N 
ATOM      8  H2  UNL     1      -8.322  78.159  19.439  1.00  0.00     0.167 HD
BRANCH   7   9
HETATM    9  C3  UNL     1      -8.873  79.154  21.250  1.00  0.00     0.098 C 
HETATM   10  N1  UNL     1      -8.233  80.177  21.632  1.00  0.00    -0.386 N 
ATOM     11  H12 UNL     1      -8.735  80.856  22.203  1.00  0.00     0.157 HD
ATOM     12  H11 UNL     1      -7.255  80.339  21.393  1.00  0.00     0.157 HD
BRANCH   9  13
HETATM   13  C2  UNL     1     -10.253  78.925  21.587  1.00  0.00     0.038 C 
HETATM   14  C1  UNL     1     -11.209  79.743  21.216  1.00  0.00     0.015 C 
ENDBRANCH   9  13
ENDBRANCH   7   9
ENDBRANCH   1   7
BRANCH   4  15
HETATM   15  C8  UNL     1      -4.514  74.700  23.044  1.00  0.00     0.129 C 
HETATM   16  N3  UNL     1      -4.887  73.573  23.505  1.00  0.00    -0.383 N 
ATOM     17  H32 UNL     1      -5.864  73.308  23.378  1.00  0.00     0.157 HD
ATOM     18  H31 UNL     1      -4.234  72.953  23.984  1.00  0.00     0.157 HD
BRANCH  15  19
HETATM   19  N4  UNL     1      -3.141  75.072  23.224  1.00  0.00    -0.251 N 
ATOM     20  H4  UNL     1      -2.506  75.004  22.429  1.00  0.00     0.196 HD
BRANCH  19  21
HETATM   21  O1  UNL     1      -2.658  75.510  24.407  1.00  0.00    -0.284 OA
HETATM   22  C9  UNL     1      -2.629  76.915  24.459  1.00  0.00     0.237 C 
ENDBRANCH  19  21
ENDBRANCH  15  19
ENDBRANCH   4  15
TORSDOF 6
ENDMDL
MODEL 4
REMARK VINA RESULT: -6.230713693      2.069      2.604
REMARK  6 active torsions:
REMARK  status: ('A' for Active; 'I' for Inactive)
REMARK    1  A    between atoms: C2_2  and  C3_3 
REMARK    2  A    between atoms: C3_3  and  N2_7 
REMARK    3  A    between atoms: N2_7  and  C4_9 
REMARK    4  A    between atoms: C7_12  and  C8_13 
REMARK    5  A    between atoms: C8_13  and  N4_17 
REMARK    6  A    between atoms: N4_17  and  O1_19 
ROOT
HETATM    1  C4  UNL     1      -7.262  76.412  21.360  1.00  0.00     0.033 A 
HETATM    2  C5  UNL     1      -6.477  75.833  22.315  1.00  0.00     0.030 A 
HETATM    3  C6  UNL     1      -5.899  76.640  23.295  1.00  0.00     0.017 A 
HETATM    4  C7  UNL     1      -6.072  78.002  23.362  1.00  0.00     0.009 A 
HETATM    5  C10 UNL     1      -6.881  78.568  22.372  1.00  0.00     0.017 A 
HETATM    6  C11 UNL     1      -7.453  77.781  21.403  1.00  0.00     0.030 A 
ENDROOT
BRANCH   1   7
HETATM    7  N2  UNL     1      -7.874  75.649  20.342  1.00  0.00    -0.343 N 
ATOM      8  H2  UNL     1      -8.869  75.433  20.389  1.00  0.00     0.167 HD
BRANCH   7   9
HETATM    9  C3  UNL     1      -7.083  75.181  19.240  1.00  0.00     0.098 C 
HETATM   10  N1  UNL     1      -6.865  73.937  19.169  1.00  0.00    -0.386 N 
ATOM     11  H12 UNL     1      -6.303  73.604  18.386  1.00  0.00     0.157 HD
ATOM     12  H11 UNL     1      -7.225  73.272  19.854  1.00  0.00     0.157 HD
BRANCH   9  13
HETATM   13  C2  UNL     1      -6.575  76.119  18.274  1.00  0.00     0.038 C 
HETATM   14  C1  UNL     1      -5.327  76.524  18.280  1.00  0.00     0.015 C 
ENDBRANCH   9  13
ENDBRANCH   7   9
ENDBRANCH   1   7
BRANCH   4  15
HETATM   15  C8  UNL     1      -5.465  78.835  24.389  1.00  0.00     0.129 C 
HETATM   16  N3  UNL     1      -6.090  79.822  24.896  1.00  0.00    -0.383 N 
ATOM     17  H32 UNL     1      -7.034  80.010  24.560  1.00  0.00     0.157 HD
ATOM     18  H31 UNL     1      -5.664  80.406  25.616  1.00  0.00     0.157 HD
BRANCH  15  19
HETATM   19  N4  UNL     1      -4.137  78.571  24.862  1.00  0.00    -0.251 N 
ATOM     20  H4  UNL     1      -3.353  79.044  24.414  1.00  0.00     0.196 HD
BRANCH  19  21
HETATM   21  O1  UNL     1      -3.887  77.720  25.880  1.00  0.00    -0.284 OA
HETATM   22  C9  UNL     1      -2.720  76.971  25.645  1.00  0.00     0.237 C 
ENDBRANCH  19  21
ENDBRANCH  15  19
ENDBRANCH   4  15
TORSDOF 6
ENDMDL
MODEL 5
REMARK VINA RESULT: -6.219844958      3.698      6.259
REMARK  6 active torsions:
REMARK  status: ('A' for Active; 'I' for Inactive)
REMARK    1  A    between atoms: C2_2  and  C3_3 
REMARK    2  A    between atoms: C3_3  and  N2_7 
REMARK    3  A    between atoms: N2_7  and  C4_9 
REMARK    4  A    between atoms: C7_12  and  C8_13 
REMARK    5  A    between atoms: C8_13  and  N4_17 
REMARK    6  A    between atoms: N4_17  and  O1_19 
ROOT
HETATM    1  C4  UNL     1      -5.850  76.085  21.587  1.00  0.00     0.033 A 
HETATM    2  C5  UNL     1      -6.812  76.121  20.619  1.00  0.00     0.030 A 
HETATM    3  C6  UNL     1      -7.753  77.151  20.636  1.00  0.00     0.017 A 
HETATM    4  C7  UNL     1      -7.774  78.148  21.581  1.00  0.00     0.009 A 
HETATM    5  C10 UNL     1      -6.777  78.088  22.561  1.00  0.00     0.017 A 
HETATM    6  C11 UNL     1      -5.848  77.077  22.550  1.00  0.00     0.030 A 
ENDROOT
BRANCH   1   7
HETATM    7  N2  UNL     1      -4.872  75.069  21.623  1.00  0.00    -0.343 N 
ATOM      8  H2  UNL     1      -4.439  74.741  20.759  1.00  0.00     0.167 HD
BRANCH   7   9
HETATM    9  C3  UNL     1      -4.491  74.502  22.884  1.00  0.00     0.098 C 
HETATM   10  N1  UNL     1      -5.353  73.800  23.488  1.00  0.00    -0.386 N 
ATOM     11  H12 UNL     1      -5.082  73.397  24.385  1.00  0.00     0.157 HD
ATOM     12  H11 UNL     1      -6.287  73.629  23.117  1.00  0.00     0.157 HD
BRANCH   9  13
HETATM   13  C2  UNL     1      -3.173  74.743  23.408  1.00  0.00     0.038 C 
HETATM   14  C1  UNL     1      -2.868  75.840  24.059  1.00  0.00     0.015 C 
ENDBRANCH   9  13
ENDBRANCH   7   9
ENDBRANCH   1   7
BRANCH   4  15
HETATM   15  C8  UNL     1      -8.759  79.218  21.592  1.00  0.00     0.129 C 
HETATM   16  N3  UNL     1      -8.425  80.429  21.380  1.00  0.00    -0.383 N 
ATOM     17  H32 UNL     1      -7.440  80.626  21.202  1.00  0.00     0.157 HD
ATOM     18  H31 UNL     1      -9.116  81.180  21.388  1.00  0.00     0.157 HD
BRANCH  15  19
HETATM   19  N4  UNL     1     -10.143  78.943  21.843  1.00  0.00    -0.251 N 
ATOM     20  H4  UNL     1     -10.575  78.139  21.390  1.00  0.00     0.196 HD
BRANCH  19  21
HETATM   21  O1  UNL     1     -10.897  79.712  22.659  1.00  0.00    -0.284 OA
HETATM   22  C9  UNL     1     -12.011  80.237  21.981  1.00  0.00     0.237 C 
ENDBRANCH  19  21
ENDBRANCH  15  19
ENDBRANCH   4  15
TORSDOF 6
ENDMDL
