MODEL 1
REMARK VINA RESULT: -7.250946683      0.000      0.000
REMARK  5 active torsions:
REMARK  status: ('A' for Active; 'I' for Inactive)
REMARK    1  A    between atoms: C3_4  and  C4_5 
REMARK    2  A    between atoms: C4_5  and  N2_6 
REMARK    3  A    between atoms: C4_5  and  N3_10 
REMARK    4  A    between atoms: N3_10  and  C5_12 
REMARK    5  A    between atoms: C9_16  and  C10_17 
ROOT
HETATM    1  N1  UNL     1      -1.837  77.078  25.665  1.00  0.00    -0.192 NA
HETATM    2  C1  UNL     1      -2.623  76.713  24.871  1.00  0.00     0.087 C 
HETATM    3  C2  UNL     1      -3.570  76.255  23.904  1.00  0.00     0.093 C 
HETATM    4  C3  UNL     1      -3.547  74.995  23.527  1.00  0.00     0.037 C 
ENDROOT
BRANCH   4   5
HETATM    5  C4  UNL     1      -4.496  74.435  22.525  1.00  0.00     0.306 C 
BRANCH   5   6
HETATM    6  N2  UNL     1      -5.857  74.441  23.068  1.00  0.00    -0.055 N 
ATOM      7  H23 UNL     1      -6.391  73.625  22.771  1.00  0.00     0.277 HD
ATOM      8  H22 UNL     1      -5.868  74.269  24.074  1.00  0.00     0.277 HD
ATOM      9  H21 UNL     1      -6.325  75.314  22.824  1.00  0.00     0.277 HD
ENDBRANCH   5   6
BRANCH   5  10
HETATM   10  N3  UNL     1      -4.526  75.209  21.320  1.00  0.00    -0.360 N 
ATOM     11  H3  UNL     1      -3.651  75.430  20.845  1.00  0.00     0.162 HD
BRANCH  10  12
HETATM   12  C5  UNL     1      -5.737  75.669  20.782  1.00  0.00     0.030 A 
HETATM   13  C6  UNL     1      -6.422  75.051  19.766  1.00  0.00     0.029 A 
HETATM   14  C7  UNL     1      -7.611  75.538  19.274  1.00  0.00     0.003 A 
HETATM   15  C8  UNL     1      -8.154  76.678  19.798  1.00  0.00     0.015 A 
HETATM   16  C9  UNL     1      -7.509  77.340  20.823  1.00  0.00     0.007 A 
HETATM   17  C11 UNL     1      -6.333  76.834  21.289  1.00  0.00     0.044 A 
BRANCH  16  18
HETATM   18  C10 UNL     1      -8.082  78.554  21.385  1.00  0.00     0.120 C 
HETATM   19  N4  UNL     1      -7.447  79.668  21.286  1.00  0.00    -0.387 N 
ATOM     20  H42 UNL     1      -6.546  79.665  20.807  1.00  0.00     0.157 HD
ATOM     21  H41 UNL     1      -7.848  80.519  21.681  1.00  0.00     0.157 HD
HETATM   22  N5  UNL     1      -9.330  78.558  22.049  1.00  0.00    -0.082 NA
ENDBRANCH  16  18
ENDBRANCH  10  12
ENDBRANCH   5  10
ENDBRANCH   4   5
TORSDOF 5
ENDMDL
MODEL 2
REMARK VINA RESULT: -7.229053299      2.314      5.323
REMARK  5 active torsions:
REMARK  status: ('A' for Active; 'I' for Inactive)
REMARK    1  A    between atoms: C3_4  and  C4_5 
REMARK    2  A    between atoms: C4_5  and  N2_6 
REMARK    3  A    between atoms: C4_5  and  N3_10 
REMARK    4  A    between atoms: N3_10  and  C5_12 
REMARK    5  A    between atoms: C9_16  and  C10_17 
ROOT
HETATM    1  N1  UNL     1      -4.683  76.318  16.796  1.00  0.00    -0.192 NA
HETATM    2  C1  UNL     1      -5.465  76.397  17.669  1.00  0.00     0.087 C 
HETATM    3  C2  UNL     1      -6.418  76.476  18.731  1.00  0.00     0.093 C 
HETATM    4  C3  UNL     1      -6.759  75.379  19.372  1.00  0.00     0.037 C 
ENDROOT
BRANCH   4   5
HETATM    5  C4  UNL     1      -7.744  75.371  20.490  1.00  0.00     0.306 C 
BRANCH   5   6
HETATM    6  N2  UNL     1      -8.592  74.180  20.401  1.00  0.00    -0.055 N 
ATOM      7  H23 UNL     1      -9.251  74.121  21.177  1.00  0.00     0.277 HD
ATOM      8  H22 UNL     1      -9.267  74.248  19.638  1.00  0.00     0.277 HD
ATOM      9  H21 UNL     1      -8.012  73.345  20.326  1.00  0.00     0.277 HD
ENDBRANCH   5   6
BRANCH   5  10
HETATM   10  N3  UNL     1      -7.103  75.330  21.771  1.00  0.00    -0.360 N 
ATOM     11  H3  UNL     1      -7.027  74.441  22.265  1.00  0.00     0.162 HD
BRANCH  10  12
HETATM   12  C5  UNL     1      -6.578  76.491  22.359  1.00  0.00     0.030 A 
HETATM   13  C6  UNL     1      -7.098  77.751  22.192  1.00  0.00     0.029 A 
HETATM   14  C7  UNL     1      -6.550  78.860  22.794  1.00  0.00     0.003 A 
HETATM   15  C8  UNL     1      -5.447  78.733  23.593  1.00  0.00     0.015 A 
HETATM   16  C9  UNL     1      -4.884  77.490  23.796  1.00  0.00     0.007 A 
HETATM   17  C11 UNL     1      -5.449  76.409  23.187  1.00  0.00     0.044 A 
BRANCH  16  18
HETATM   18  C10 UNL     1      -3.711  77.347  24.645  1.00  0.00     0.120 C 
HETATM   19  N4  UNL     1      -2.583  77.010  24.127  1.00  0.00    -0.387 N 
ATOM     20  H42 UNL     1      -2.546  76.851  23.120  1.00  0.00     0.157 HD
ATOM     21  H41 UNL     1      -1.760  76.910  24.722  1.00  0.00     0.157 HD
HETATM   22  N5  UNL     1      -3.763  77.568  26.040  1.00  0.00    -0.082 NA
ENDBRANCH  16  18
ENDBRANCH  10  12
ENDBRANCH   5  10
ENDBRANCH   4   5
TORSDOF 5
ENDMDL
MODEL 3
REMARK VINA RESULT: -7.165804341      1.160      1.276
REMARK  5 active torsions:
REMARK  status: ('A' for Active; 'I' for Inactive)
REMARK    1  A    between atoms: C3_4  and  C4_5 
REMARK    2  A    between atoms: C4_5  and  N2_6 
REMARK    3  A    between atoms: C4_5  and  N3_10 
REMARK    4  A    between atoms: N3_10  and  C5_12 
REMARK    5  A    between atoms: C9_16  and  C10_17 
ROOT
HETATM    1  N1  UNL     1      -1.318  77.503  25.640  1.00  0.00    -0.192 NA
HETATM    2  C1  UNL     1      -2.287  77.204  25.046  1.00  0.00     0.087 C 
HETATM    3  C2  UNL     1      -3.456  76.827  24.317  1.00  0.00     0.093 C 
HETATM    4  C3  UNL     1      -3.517  75.632  23.772  1.00  0.00     0.037 C 
ENDROOT
BRANCH   4   5
HETATM    5  C4  UNL     1      -4.698  75.158  22.996  1.00  0.00     0.306 C 
BRANCH   5   6
HETATM    6  N2  UNL     1      -5.053  73.797  23.406  1.00  0.00    -0.055 N 
ATOM      7  H23 UNL     1      -6.051  73.615  23.304  1.00  0.00     0.277 HD
ATOM      8  H22 UNL     1      -4.705  73.097  22.751  1.00  0.00     0.277 HD
ATOM      9  H21 UNL     1      -4.728  73.625  24.358  1.00  0.00     0.277 HD
ENDBRANCH   5   6
BRANCH   5  10
HETATM   10  N3  UNL     1      -5.853  75.975  23.222  1.00  0.00    -0.360 N 
ATOM     11  H3  UNL     1      -6.086  76.262  24.173  1.00  0.00     0.162 HD
BRANCH  10  12
HETATM   12  C5  UNL     1      -6.670  76.388  22.158  1.00  0.00     0.030 A 
HETATM   13  C6  UNL     1      -6.872  75.668  21.007  1.00  0.00     0.029 A 
HETATM   14  C7  UNL     1      -7.688  76.112  19.993  1.00  0.00     0.003 A 
HETATM   15  C8  UNL     1      -8.333  77.312  20.107  1.00  0.00     0.015 A 
HETATM   16  C9  UNL     1      -8.167  78.078  21.244  1.00  0.00     0.007 A 
HETATM   17  C11 UNL     1      -7.353  77.611  22.232  1.00  0.00     0.044 A 
BRANCH  16  18
HETATM   18  C10 UNL     1      -8.850  79.355  21.372  1.00  0.00     0.120 C 
HETATM   19  N4  UNL     1      -8.259  80.344  21.943  1.00  0.00    -0.387 N 
ATOM     20  H42 UNL     1      -7.311  80.199  22.293  1.00  0.00     0.157 HD
ATOM     21  H41 UNL     1      -8.738  81.240  22.034  1.00  0.00     0.157 HD
HETATM   22  N5  UNL     1     -10.163  79.557  20.887  1.00  0.00    -0.082 NA
ENDBRANCH  16  18
ENDBRANCH  10  12
ENDBRANCH   5  10
ENDBRANCH   4   5
TORSDOF 5
ENDMDL
MODEL 4
REMARK VINA RESULT: -7.142673540      2.170      5.378
REMARK  5 active torsions:
REMARK  status: ('A' for Active; 'I' for Inactive)
REMARK    1  A    between atoms: C3_4  and  C4_5 
REMARK    2  A    between atoms: C4_5  and  N2_6 
REMARK    3  A    between atoms: C4_5  and  N3_10 
REMARK    4  A    between atoms: N3_10  and  C5_12 
REMARK    5  A    between atoms: C9_16  and  C10_17 
ROOT
HETATM    1  N1  UNL     1      -4.830  76.729  16.783  1.00  0.00    -0.192 NA
HETATM    2  C1  UNL     1      -5.571  76.370  17.622  1.00  0.00     0.087 C 
HETATM    3  C2  UNL     1      -6.459  75.938  18.654  1.00  0.00     0.093 C 
HETATM    4  C3  UNL     1      -6.187  76.239  19.905  1.00  0.00     0.037 C 
ENDROOT
BRANCH   4   5
HETATM    5  C4  UNL     1      -7.058  75.827  21.042  1.00  0.00     0.306 C 
BRANCH   5   6
HETATM    6  N2  UNL     1      -8.294  75.227  20.533  1.00  0.00    -0.055 N 
ATOM      7  H23 UNL     1      -8.547  75.593  19.615  1.00  0.00     0.277 HD
ATOM      8  H22 UNL     1      -8.165  74.249  20.273  1.00  0.00     0.277 HD
ATOM      9  H21 UNL     1      -9.045  75.348  21.213  1.00  0.00     0.277 HD
ENDBRANCH   5   6
BRANCH   5  10
HETATM   10  N3  UNL     1      -6.430  74.843  21.872  1.00  0.00    -0.360 N 
ATOM     11  H3  UNL     1      -6.838  73.911  21.941  1.00  0.00     0.162 HD
BRANCH  10  12
HETATM   12  C5  UNL     1      -5.262  75.139  22.592  1.00  0.00     0.030 A 
HETATM   13  C6  UNL     1      -4.127  74.368  22.586  1.00  0.00     0.029 A 
HETATM   14  C7  UNL     1      -3.004  74.702  23.305  1.00  0.00     0.003 A 
HETATM   15  C8  UNL     1      -2.988  75.839  24.064  1.00  0.00     0.015 A 
HETATM   16  C9  UNL     1      -4.102  76.653  24.107  1.00  0.00     0.007 A 
HETATM   17  C11 UNL     1      -5.200  76.296  23.384  1.00  0.00     0.044 A 
BRANCH  16  18
HETATM   18  C10 UNL     1      -4.093  77.865  24.913  1.00  0.00     0.120 C 
HETATM   19  N4  UNL     1      -4.466  78.981  24.395  1.00  0.00    -0.387 N 
ATOM     20  H42 UNL     1      -4.763  78.981  23.419  1.00  0.00     0.157 HD
ATOM     21  H41 UNL     1      -4.459  79.831  24.959  1.00  0.00     0.157 HD
HETATM   22  N5  UNL     1      -3.681  77.864  26.265  1.00  0.00    -0.082 NA
ENDBRANCH  16  18
ENDBRANCH  10  12
ENDBRANCH   5  10
ENDBRANCH   4   5
TORSDOF 5
ENDMDL
MODEL 5
REMARK VINA RESULT: -7.063357701      2.178      6.542
REMARK  5 active torsions:
REMARK  status: ('A' for Active; 'I' for Inactive)
REMARK    1  A    between atoms: C3_4  and  C4_5 
REMARK    2  A    between atoms: C4_5  and  N2_6 
REMARK    3  A    between atoms: C4_5  and  N3_10 
REMARK    4  A    between atoms: N3_10  and  C5_12 
REMARK    5  A    between atoms: C9_16  and  C10_17 
ROOT
HETATM    1  N1  UNL     1     -13.664  79.559  21.408  1.00  0.00    -0.192 NA
HETATM    2  C1  UNL     1     -12.504  79.728  21.487  1.00  0.00     0.087 C 
HETATM    3  C2  UNL     1     -11.090  79.914  21.580  1.00  0.00     0.093 C 
HETATM    4  C3  UNL     1     -10.286  78.961  21.165  1.00  0.00     0.037 C 
ENDROOT
BRANCH   4   5
HETATM    5  C4  UNL     1      -8.801  79.073  21.226  1.00  0.00     0.306 C 
BRANCH   5   6
HETATM    6  N2  UNL     1      -8.421  80.390  21.742  1.00  0.00    -0.055 N 
ATOM      7  H23 UNL     1      -8.340  80.394  22.759  1.00  0.00     0.277 HD
ATOM      8  H22 UNL     1      -7.454  80.626  21.515  1.00  0.00     0.277 HD
ATOM      9  H21 UNL     1      -9.076  81.097  21.408  1.00  0.00     0.277 HD
ENDBRANCH   5   6
BRANCH   5  10
HETATM   10  N3  UNL     1      -8.224  78.100  22.105  1.00  0.00    -0.360 N 
ATOM     11  H3  UNL     1      -8.478  78.103  23.093  1.00  0.00     0.162 HD
BRANCH  10  12
HETATM   12  C5  UNL     1      -7.315  77.142  21.631  1.00  0.00     0.030 A 
HETATM   13  C6  UNL     1      -7.172  76.790  20.312  1.00  0.00     0.029 A 
HETATM   14  C7  UNL     1      -6.262  75.848  19.894  1.00  0.00     0.003 A 
HETATM   15  C8  UNL     1      -5.456  75.221  20.804  1.00  0.00     0.015 A 
HETATM   16  C9  UNL     1      -5.556  75.537  22.144  1.00  0.00     0.007 A 
HETATM   17  C11 UNL     1      -6.467  76.475  22.528  1.00  0.00     0.044 A 
BRANCH  16  18
HETATM   18  C10 UNL     1      -4.701  74.875  23.118  1.00  0.00     0.120 C 
HETATM   19  N4  UNL     1      -4.943  73.659  23.461  1.00  0.00    -0.387 N 
ATOM     20  H42 UNL     1      -5.740  73.189  23.031  1.00  0.00     0.157 HD
ATOM     21  H41 UNL     1      -4.344  73.195  24.144  1.00  0.00     0.157 HD
HETATM   22  N5  UNL     1      -3.597  75.526  23.713  1.00  0.00    -0.082 NA
ENDBRANCH  16  18
ENDBRANCH  10  12
ENDBRANCH   5  10
ENDBRANCH   4   5
TORSDOF 5
ENDMDL
