MODEL 1
REMARK VINA RESULT: -6.337840460      0.000      0.000
REMARK  3 active torsions:
REMARK  status: ('A' for Active; 'I' for Inactive)
REMARK    1  A    between atoms: O1_2  and  C2_3 
REMARK    2  A    between atoms: C5_6  and  C6_7 
REMARK    3  A    between atoms: C8_13  and  N3_14 
REMARK       I    between atoms: N3_14  and  C9_16 
ROOT
HETATM    1  C2  UNL     1      -0.878  80.252  23.029  1.00  0.00     0.095 A 
HETATM    2  C3  UNL     1      -2.199  80.581  22.934  1.00  0.00     0.040 A 
HETATM    3  C4  UNL     1      -3.123  79.741  23.553  1.00  0.00     0.018 A 
HETATM    4  C5  UNL     1      -2.735  78.616  24.239  1.00  0.00     0.007 A 
HETATM    5  C7  UNL     1      -1.359  78.344  24.293  1.00  0.00     0.047 A 
HETATM    6  C8  UNL     1      -0.401  79.125  23.708  1.00  0.00     0.069 A 
ENDROOT
BRANCH   4   7
HETATM    7  C6  UNL     1      -3.676  77.725  24.892  1.00  0.00     0.120 C 
HETATM    8  N1  UNL     1      -4.621  77.181  24.241  1.00  0.00    -0.387 N 
ATOM      9  H12 UNL     1      -4.724  77.369  23.244  1.00  0.00     0.157 HD
ATOM     10  H11 UNL     1      -5.282  76.554  24.701  1.00  0.00     0.157 HD
HETATM   11  N2  UNL     1      -3.534  77.465  26.275  1.00  0.00    -0.082 NA
ENDBRANCH   4   7
BRANCH   6  12
HETATM   12  N3  UNL     1       0.966  78.856  23.760  1.00  0.00    -0.325 N 
HETATM   13  C9  UNL     1       1.747  78.068  22.920  1.00  0.00     0.218 C 
HETATM   14  C10 UNL     1       3.220  77.935  23.193  1.00  0.00     0.117 C 
HETATM   15  O2  UNL     1       1.354  77.426  21.917  1.00  0.00    -0.274 OA
ATOM     16  H3  UNL     1       1.468  79.302  24.528  1.00  0.00     0.169 HD
ENDBRANCH   6  12
BRANCH   1  17
HETATM   17  O1  UNL     1       0.043  81.073  22.423  1.00  0.00    -0.354 OA
HETATM   18  C1  UNL     1       0.197  81.189  21.029  1.00  0.00     0.210 C 
ENDBRANCH   1  17
TORSDOF 3
ENDMDL
MODEL 2
REMARK VINA RESULT: -6.269786021      5.452      6.963
REMARK  3 active torsions:
REMARK  status: ('A' for Active; 'I' for Inactive)
REMARK    1  A    between atoms: O1_2  and  C2_3 
REMARK    2  A    between atoms: C5_6  and  C6_7 
REMARK    3  A    between atoms: C8_13  and  N3_14 
REMARK       I    between atoms: N3_14  and  C9_16 
ROOT
HETATM    1  C2  UNL     1      -7.241  78.654  21.849  1.00  0.00     0.095 A 
HETATM    2  C3  UNL     1      -8.351  78.493  21.070  1.00  0.00     0.040 A 
HETATM    3  C4  UNL     1      -8.454  77.322  20.322  1.00  0.00     0.018 A 
HETATM    4  C5  UNL     1      -7.482  76.352  20.354  1.00  0.00     0.007 A 
HETATM    5  C7  UNL     1      -6.370  76.589  21.179  1.00  0.00     0.047 A 
HETATM    6  C8  UNL     1      -6.206  77.716  21.937  1.00  0.00     0.069 A 
ENDROOT
BRANCH   4   7
HETATM    7  C6  UNL     1      -7.565  75.124  19.585  1.00  0.00     0.120 C 
HETATM    8  N1  UNL     1      -8.266  74.146  19.989  1.00  0.00    -0.387 N 
ATOM      9  H12 UNL     1      -8.781  74.219  20.866  1.00  0.00     0.157 HD
ATOM     10  H11 UNL     1      -8.324  73.283  19.448  1.00  0.00     0.157 HD
HETATM   11  N2  UNL     1      -6.851  75.023  18.369  1.00  0.00    -0.082 NA
ENDBRANCH   4   7
BRANCH   6  12
HETATM   12  N3  UNL     1      -5.103  77.952  22.756  1.00  0.00    -0.325 N 
HETATM   13  C9  UNL     1      -4.863  77.536  24.062  1.00  0.00     0.218 C 
HETATM   14  C10 UNL     1      -3.577  77.928  24.735  1.00  0.00     0.117 C 
HETATM   15  O2  UNL     1      -5.624  76.841  24.778  1.00  0.00    -0.274 OA
ATOM     16  H3  UNL     1      -4.362  78.514  22.336  1.00  0.00     0.169 HD
ENDBRANCH   6  12
BRANCH   1  17
HETATM   17  O1  UNL     1      -7.128  79.805  22.592  1.00  0.00    -0.354 OA
HETATM   18  C1  UNL     1      -7.474  81.084  22.119  1.00  0.00     0.210 C 
ENDBRANCH   1  17
TORSDOF 3
ENDMDL
MODEL 3
REMARK VINA RESULT: -6.134062938      4.156      5.949
REMARK  3 active torsions:
REMARK  status: ('A' for Active; 'I' for Inactive)
REMARK    1  A    between atoms: O1_2  and  C2_3 
REMARK    2  A    between atoms: C5_6  and  C6_7 
REMARK    3  A    between atoms: C8_13  and  N3_14 
REMARK       I    between atoms: N3_14  and  C9_16 
ROOT
HETATM    1  C2  UNL     1      -5.152  75.896  23.155  1.00  0.00     0.095 A 
HETATM    2  C3  UNL     1      -6.351  75.497  22.639  1.00  0.00     0.040 A 
HETATM    3  C4  UNL     1      -7.231  76.486  22.205  1.00  0.00     0.018 A 
HETATM    4  C5  UNL     1      -6.920  77.822  22.287  1.00  0.00     0.007 A 
HETATM    5  C7  UNL     1      -5.668  78.153  22.830  1.00  0.00     0.047 A 
HETATM    6  C8  UNL     1      -4.759  77.233  23.274  1.00  0.00     0.069 A 
ENDROOT
BRANCH   4   7
HETATM    7  C6  UNL     1      -7.819  78.871  21.843  1.00  0.00     0.120 C 
HETATM    8  N1  UNL     1      -7.369  79.962  21.376  1.00  0.00    -0.387 N 
ATOM      9  H12 UNL     1      -6.361  80.108  21.309  1.00  0.00     0.157 HD
ATOM     10  H11 UNL     1      -8.000  80.700  21.064  1.00  0.00     0.157 HD
HETATM   11  N2  UNL     1      -9.215  78.669  21.937  1.00  0.00    -0.082 NA
ENDBRANCH   4   7
BRANCH   6  12
HETATM   12  N3  UNL     1      -3.516  77.562  23.814  1.00  0.00    -0.325 N 
HETATM   13  C9  UNL     1      -3.132  77.683  25.146  1.00  0.00     0.218 C 
HETATM   14  C10 UNL     1      -1.711  78.053  25.472  1.00  0.00     0.117 C 
HETATM   15  O2  UNL     1      -3.860  77.513  26.153  1.00  0.00    -0.274 OA
ATOM     16  H3  UNL     1      -2.779  77.739  23.131  1.00  0.00     0.169 HD
ENDBRANCH   6  12
BRANCH   1  17
HETATM   17  O1  UNL     1      -4.275  74.928  23.587  1.00  0.00    -0.354 OA
HETATM   18  C1  UNL     1      -3.615  74.027  22.732  1.00  0.00     0.210 C 
ENDBRANCH   1  17
TORSDOF 3
ENDMDL
MODEL 4
REMARK VINA RESULT: -6.128761780      4.520      6.265
REMARK  3 active torsions:
REMARK  status: ('A' for Active; 'I' for Inactive)
REMARK    1  A    between atoms: O1_2  and  C2_3 
REMARK    2  A    between atoms: C5_6  and  C6_7 
REMARK    3  A    between atoms: C8_13  and  N3_14 
REMARK       I    between atoms: N3_14  and  C9_16 
ROOT
HETATM    1  C2  UNL     1      -6.086  79.178  23.433  1.00  0.00     0.095 A 
HETATM    2  C3  UNL     1      -5.069  79.594  24.243  1.00  0.00     0.040 A 
HETATM    3  C4  UNL     1      -4.081  78.669  24.569  1.00  0.00     0.018 A 
HETATM    4  C5  UNL     1      -4.111  77.378  24.102  1.00  0.00     0.007 A 
HETATM    5  C7  UNL     1      -5.188  77.024  23.273  1.00  0.00     0.047 A 
HETATM    6  C8  UNL     1      -6.191  77.882  22.915  1.00  0.00     0.069 A 
ENDROOT
BRANCH   4   7
HETATM    7  C6  UNL     1      -3.094  76.394  24.427  1.00  0.00     0.120 C 
HETATM    8  N1  UNL     1      -2.897  75.386  23.681  1.00  0.00    -0.387 N 
ATOM      9  H12 UNL     1      -3.460  75.261  22.839  1.00  0.00     0.157 HD
ATOM     10  H11 UNL     1      -2.183  74.696  23.910  1.00  0.00     0.157 HD
HETATM   11  N2  UNL     1      -2.315  76.568  25.594  1.00  0.00    -0.082 NA
ENDBRANCH   4   7
BRANCH   6  12
HETATM   12  N3  UNL     1      -7.262  77.532  22.092  1.00  0.00    -0.325 N 
HETATM   13  C9  UNL     1      -7.322  77.449  20.704  1.00  0.00     0.218 C 
HETATM   14  C10 UNL     1      -8.612  77.043  20.047  1.00  0.00     0.117 C 
HETATM   15  O2  UNL     1      -6.389  77.682  19.899  1.00  0.00    -0.274 OA
ATOM     16  H3  UNL     1      -8.128  77.304  22.579  1.00  0.00     0.169 HD
ENDBRANCH   6  12
BRANCH   1  17
HETATM   17  O1  UNL     1      -7.068  80.082  23.103  1.00  0.00    -0.354 OA
HETATM   18  C1  UNL     1      -6.896  81.129  22.180  1.00  0.00     0.210 C 
ENDBRANCH   1  17
TORSDOF 3
ENDMDL
MODEL 5
REMARK VINA RESULT: -6.017506400      4.742      7.246
REMARK  3 active torsions:
REMARK  status: ('A' for Active; 'I' for Inactive)
REMARK    1  A    between atoms: O1_2  and  C2_3 
REMARK    2  A    between atoms: C5_6  and  C6_7 
REMARK    3  A    between atoms: C8_13  and  N3_14 
REMARK       I    between atoms: N3_14  and  C9_16 
ROOT
HETATM    1  C2  UNL     1      -6.530  75.897  22.117  1.00  0.00     0.095 A 
HETATM    2  C3  UNL     1      -5.451  75.100  22.365  1.00  0.00     0.040 A 
HETATM    3  C4  UNL     1      -4.452  75.601  23.197  1.00  0.00     0.018 A 
HETATM    4  C5  UNL     1      -4.534  76.853  23.757  1.00  0.00     0.007 A 
HETATM    5  C7  UNL     1      -5.675  77.614  23.455  1.00  0.00     0.047 A 
HETATM    6  C8  UNL     1      -6.690  77.183  22.646  1.00  0.00     0.069 A 
ENDROOT
BRANCH   4   7
HETATM    7  C6  UNL     1      -3.508  77.399  24.626  1.00  0.00     0.120 C 
HETATM    8  N1  UNL     1      -2.368  77.721  24.170  1.00  0.00    -0.387 N 
ATOM      9  H12 UNL     1      -2.165  77.597  23.178  1.00  0.00     0.157 HD
ATOM     10  H11 UNL     1      -1.648  78.105  24.781  1.00  0.00     0.157 HD
HETATM   11  N2  UNL     1      -3.790  77.571  26.001  1.00  0.00    -0.082 NA
ENDBRANCH   4   7
BRANCH   6  12
HETATM   12  N3  UNL     1      -7.824  77.937  22.345  1.00  0.00    -0.325 N 
HETATM   13  C9  UNL     1      -7.930  79.133  21.641  1.00  0.00     0.218 C 
HETATM   14  C10 UNL     1      -9.286  79.755  21.449  1.00  0.00     0.117 C 
HETATM   15  O2  UNL     1      -6.991  79.783  21.123  1.00  0.00    -0.274 OA
ATOM     16  H3  UNL     1      -8.704  77.557  22.693  1.00  0.00     0.169 HD
ENDBRANCH   6  12
BRANCH   1  17
HETATM   17  O1  UNL     1      -7.523  75.413  21.297  1.00  0.00    -0.354 OA
HETATM   18  C1  UNL     1      -7.417  75.332  19.897  1.00  0.00     0.210 C 
ENDBRANCH   1  17
TORSDOF 3
ENDMDL
