MODEL 1
REMARK VINA RESULT: -9.903133033      0.000      0.000
REMARK  6 active torsions:
REMARK  status: ('A' for Active; 'I' for Inactive)
REMARK    1  A    between atoms: C6_6  and  O1_7 
REMARK    2  A    between atoms: C7_9  and  C8_10 
REMARK    3  A    between atoms: C13_15  and  C14_16 
REMARK    4  A    between atoms: C22_25  and  O2_26 
REMARK    5  A    between atoms: C24_29  and  O3_30 
REMARK    6  A    between atoms: C31_40  and  O4_42 
ROOT
HETATM    1  C8  UNL     1      40.663  -9.696  36.565  1.00  0.00    -0.007 C 
HETATM    2  C9  UNL     1      41.990  -9.548  36.071  1.00  0.00     0.015 C 
HETATM    3  C10 UNL     1      42.588 -10.285  35.072  1.00  0.00     0.031 C 
HETATM    4  C11 UNL     1      42.006 -10.824  33.944  1.00  0.00     0.040 A 
HETATM    5  C12 UNL     1      42.722 -11.028  32.793  1.00  0.00     0.043 A 
HETATM    6  C13 UNL     1      41.803 -11.540  31.895  1.00  0.00    -0.008 A 
HETATM    7  C20 UNL     1      40.568 -11.637  32.505  1.00  0.00     0.110 A 
HETATM    8  N1  UNL     1      40.725 -11.192  33.760  1.00  0.00    -0.318 N 
HETATM    9  C21 UNL     1      39.753 -11.122  34.709  1.00  0.00     0.085 A 
HETATM   10  C22 UNL     1      38.516 -11.759  34.570  1.00  0.00     0.107 A 
HETATM   11  C23 UNL     1      37.751 -11.460  35.698  1.00  0.00     0.044 A 
HETATM   12  C24 UNL     1      36.464 -11.849  36.016  1.00  0.00     0.079 A 
HETATM   13  C25 UNL     1      35.879 -11.413  37.224  1.00  0.00     0.037 A 
HETATM   14  C26 UNL     1      36.590 -10.624  38.049  1.00  0.00     0.004 A 
HETATM   15  C27 UNL     1      37.901 -10.212  37.754  1.00  0.00     0.013 A 
HETATM   16  C28 UNL     1      38.461 -10.635  36.586  1.00  0.00    -0.007 A 
HETATM   17  C29 UNL     1      39.685 -10.425  35.994  1.00  0.00     0.017 A 
ENDROOT
BRANCH   1  18
HETATM   18  C7  UNL     1      40.566  -8.963  37.797  1.00  0.00     0.035 A 
HETATM   19  C6  UNL     1      40.761  -9.556  39.020  1.00  0.00     0.079 A 
HETATM   20  C5  UNL     1      40.752  -8.791  40.164  1.00  0.00     0.038 A 
HETATM   21  C4  UNL     1      40.547  -7.429  40.075  1.00  0.00     0.017 A 
HETATM   22  C3  UNL     1      40.349  -6.821  38.841  1.00  0.00    -0.002 A 
HETATM   23  C2  UNL     1      40.141  -5.554  38.560  1.00  0.00    -0.017 A 
HETATM   24  C30 UNL     1      40.361  -7.595  37.715  1.00  0.00     0.055 A 
HETATM   25  C1  UNL     1      40.066  -4.447  39.525  1.00  0.00     0.049 C 
HETATM   26  C31 UNL     1      39.995  -5.450  37.087  1.00  0.00     0.153 A 
HETATM   27  N2  UNL     1      40.156  -6.821  36.672  1.00  0.00    -0.354 N 
HETATM   28  C32 UNL     1      41.144  -4.636  36.505  1.00  0.00     0.076 C 
ATOM     29  H2  UNL     1      40.117  -7.145  35.706  1.00  0.00     0.163 HD
BRANCH  19  30
HETATM   30  O1  UNL     1      40.972 -10.922  39.166  1.00  0.00    -0.360 OA
ATOM     31  H1  UNL     1      41.867 -11.234  39.109  1.00  0.00     0.217 HD
ENDBRANCH  19  30
BRANCH  26  32
HETATM   32  O4  UNL     1      38.764  -4.919  36.706  1.00  0.00    -0.367 OA
ATOM     33  H4  UNL     1      38.689  -4.807  35.766  1.00  0.00     0.213 HD
ENDBRANCH  26  32
ENDBRANCH   1  18
BRANCH  10  34
HETATM   34  O2  UNL     1      38.218 -12.507  33.500  1.00  0.00    -0.357 OA
ATOM     35  H2  UNL     1      37.686 -12.176  32.786  1.00  0.00     0.217 HD
ENDBRANCH  10  34
BRANCH  12  36
HETATM   36  O3  UNL     1      35.701 -12.645  35.221  1.00  0.00    -0.360 OA
ATOM     37  H3  UNL     1      34.750 -12.639  35.227  1.00  0.00     0.217 HD
ENDBRANCH  12  36
BRANCH   6  38
HETATM   38  C14 UNL     1      42.152 -11.899  30.527  1.00  0.00    -0.025 A 
HETATM   39  C15 UNL     1      42.317 -10.894  29.602  1.00  0.00     0.012 A 
HETATM   40  C16 UNL     1      42.650 -11.252  28.311  1.00  0.00     0.001 A 
HETATM   41  C17 UNL     1      42.811 -12.590  27.971  1.00  0.00     0.000 A 
HETATM   42  C18 UNL     1      42.636 -13.579  28.934  1.00  0.00     0.001 A 
HETATM   43  C19 UNL     1      42.306 -13.234  30.212  1.00  0.00     0.012 A 
ENDBRANCH   6  38
TORSDOF 6
ENDMDL
MODEL 2
REMARK VINA RESULT: -9.284549834      1.068      1.237
REMARK  6 active torsions:
REMARK  status: ('A' for Active; 'I' for Inactive)
REMARK    1  A    between atoms: C6_6  and  O1_7 
REMARK    2  A    between atoms: C7_9  and  C8_10 
REMARK    3  A    between atoms: C13_15  and  C14_16 
REMARK    4  A    between atoms: C22_25  and  O2_26 
REMARK    5  A    between atoms: C24_29  and  O3_30 
REMARK    6  A    between atoms: C31_40  and  O4_42 
ROOT
HETATM    1  C8  UNL     1      40.793  -8.429  36.809  1.00  0.00    -0.007 C 
HETATM    2  C9  UNL     1      42.054  -8.173  36.201  1.00  0.00     0.015 C 
HETATM    3  C10 UNL     1      42.689  -8.948  35.255  1.00  0.00     0.031 C 
HETATM    4  C11 UNL     1      42.122  -9.701  34.249  1.00  0.00     0.040 A 
HETATM    5  C12 UNL     1      42.790  -9.957  33.079  1.00  0.00     0.043 A 
HETATM    6  C13 UNL     1      41.900 -10.699  32.323  1.00  0.00    -0.008 A 
HETATM    7  C20 UNL     1      40.730 -10.877  33.033  1.00  0.00     0.110 A 
HETATM    8  N1  UNL     1      40.897 -10.256  34.210  1.00  0.00    -0.318 N 
HETATM    9  C21 UNL     1      39.984 -10.192  35.215  1.00  0.00     0.085 A 
HETATM   10  C22 UNL     1      38.843 -10.999  35.250  1.00  0.00     0.107 A 
HETATM   11  C23 UNL     1      38.112 -10.660  36.389  1.00  0.00     0.044 A 
HETATM   12  C24 UNL     1      36.913 -11.171  36.849  1.00  0.00     0.079 A 
HETATM   13  C25 UNL     1      36.346 -10.662  38.038  1.00  0.00     0.037 A 
HETATM   14  C26 UNL     1      36.987  -9.685  38.704  1.00  0.00     0.004 A 
HETATM   15  C27 UNL     1      38.207  -9.146  38.261  1.00  0.00     0.013 A 
HETATM   16  C28 UNL     1      38.750  -9.640  37.113  1.00  0.00    -0.007 A 
HETATM   17  C29 UNL     1      39.895  -9.348  36.408  1.00  0.00     0.017 A 
ENDROOT
BRANCH   1  18
HETATM   18  C7  UNL     1      40.667  -7.561  37.948  1.00  0.00     0.035 A 
HETATM   19  C6  UNL     1      40.972  -7.974  39.221  1.00  0.00     0.079 A 
HETATM   20  C5  UNL     1      40.927  -7.076  40.264  1.00  0.00     0.038 A 
HETATM   21  C4  UNL     1      40.576  -5.764  40.022  1.00  0.00     0.017 A 
HETATM   22  C3  UNL     1      40.266  -5.337  38.736  1.00  0.00    -0.002 A 
HETATM   23  C2  UNL     1      39.913  -4.143  38.316  1.00  0.00    -0.017 A 
HETATM   24  C30 UNL     1      40.316  -6.242  37.712  1.00  0.00     0.055 A 
HETATM   25  C1  UNL     1      39.760  -2.938  39.144  1.00  0.00     0.049 C 
HETATM   26  C31 UNL     1      39.699  -4.239  36.851  1.00  0.00     0.153 A 
HETATM   27  N2  UNL     1      39.988  -5.629  36.596  1.00  0.00    -0.354 N 
HETATM   28  C32 UNL     1      40.732  -3.393  36.116  1.00  0.00     0.076 C 
ATOM     29  H2  UNL     1      39.945  -6.073  35.679  1.00  0.00     0.163 HD
BRANCH  19  30
HETATM   30  O1  UNL     1      41.333  -9.282  39.519  1.00  0.00    -0.360 OA
ATOM     31  H1  UNL     1      40.702  -9.964  39.322  1.00  0.00     0.217 HD
ENDBRANCH  19  30
BRANCH  26  32
HETATM   32  O4  UNL     1      38.404  -3.887  36.474  1.00  0.00    -0.367 OA
ATOM     33  H4  UNL     1      37.926  -3.453  37.171  1.00  0.00     0.213 HD
ENDBRANCH  26  32
ENDBRANCH   1  18
BRANCH  10  34
HETATM   34  O2  UNL     1      38.589 -11.913  34.304  1.00  0.00    -0.357 OA
ATOM     35  H2  UNL     1      37.725 -12.289  34.185  1.00  0.00     0.217 HD
ENDBRANCH  10  34
BRANCH  12  36
HETATM   36  O3  UNL     1      36.224 -12.157  36.218  1.00  0.00    -0.360 OA
ATOM     37  H3  UNL     1      35.973 -12.974  36.634  1.00  0.00     0.217 HD
ENDBRANCH  12  36
BRANCH   6  38
HETATM   38  C14 UNL     1      42.214 -11.184  30.985  1.00  0.00    -0.025 A 
HETATM   39  C15 UNL     1      42.789 -10.315  30.086  1.00  0.00     0.012 A 
HETATM   40  C16 UNL     1      43.082 -10.792  28.824  1.00  0.00     0.001 A 
HETATM   41  C17 UNL     1      42.799 -12.110  28.486  1.00  0.00     0.000 A 
HETATM   42  C18 UNL     1      42.217 -12.959  29.422  1.00  0.00     0.001 A 
HETATM   43  C19 UNL     1      41.924 -12.496  30.672  1.00  0.00     0.012 A 
ENDBRANCH   6  38
TORSDOF 6
ENDMDL
MODEL 3
REMARK VINA RESULT: -9.150358659      1.157      1.289
REMARK  6 active torsions:
REMARK  status: ('A' for Active; 'I' for Inactive)
REMARK    1  A    between atoms: C6_6  and  O1_7 
REMARK    2  A    between atoms: C7_9  and  C8_10 
REMARK    3  A    between atoms: C13_15  and  C14_16 
REMARK    4  A    between atoms: C22_25  and  O2_26 
REMARK    5  A    between atoms: C24_29  and  O3_30 
REMARK    6  A    between atoms: C31_40  and  O4_42 
ROOT
HETATM    1  C8  UNL     1      41.292  -8.874  35.676  1.00  0.00    -0.007 C 
HETATM    2  C9  UNL     1      42.514  -8.627  34.990  1.00  0.00     0.015 C 
HETATM    3  C10 UNL     1      43.085  -9.407  34.009  1.00  0.00     0.031 C 
HETATM    4  C11 UNL     1      42.452 -10.159  33.041  1.00  0.00     0.040 A 
HETATM    5  C12 UNL     1      43.044 -10.420  31.832  1.00  0.00     0.043 A 
HETATM    6  C13 UNL     1      42.105 -11.158  31.134  1.00  0.00    -0.008 A 
HETATM    7  C20 UNL     1      40.980 -11.328  31.916  1.00  0.00     0.110 A 
HETATM    8  N1  UNL     1      41.223 -10.706  33.078  1.00  0.00    -0.318 N 
HETATM    9  C21 UNL     1      40.374 -10.634  34.137  1.00  0.00     0.085 A 
HETATM   10  C22 UNL     1      39.232 -11.434  34.244  1.00  0.00     0.107 A 
HETATM   11  C23 UNL     1      38.575 -11.089  35.426  1.00  0.00     0.044 A 
HETATM   12  C24 UNL     1      37.404 -11.591  35.960  1.00  0.00     0.079 A 
HETATM   13  C25 UNL     1      36.915 -11.077  37.181  1.00  0.00     0.037 A 
HETATM   14  C26 UNL     1      37.602 -10.103  37.804  1.00  0.00     0.004 A 
HETATM   15  C27 UNL     1      38.795  -9.573  37.286  1.00  0.00     0.013 A 
HETATM   16  C28 UNL     1      39.264 -10.072  36.108  1.00  0.00    -0.007 A 
HETATM   17  C29 UNL     1      40.364  -9.788  35.332  1.00  0.00     0.017 A 
ENDROOT
BRANCH   1  18
HETATM   18  C7  UNL     1      41.242  -8.003  36.818  1.00  0.00     0.035 A 
HETATM   19  C6  UNL     1      41.842  -8.324  38.011  1.00  0.00     0.079 A 
HETATM   20  C5  UNL     1      41.848  -7.414  39.044  1.00  0.00     0.038 A 
HETATM   21  C4  UNL     1      41.249  -6.182  38.874  1.00  0.00     0.017 A 
HETATM   22  C3  UNL     1      40.639  -5.850  37.670  1.00  0.00    -0.002 A 
HETATM   23  C2  UNL     1      40.025  -4.740  37.325  1.00  0.00    -0.017 A 
HETATM   24  C30 UNL     1      40.643  -6.765  36.655  1.00  0.00     0.055 A 
HETATM   25  C1  UNL     1      39.836  -3.551  38.168  1.00  0.00     0.049 C 
HETATM   26  C31 UNL     1      39.559  -4.913  35.927  1.00  0.00     0.153 A 
HETATM   27  N2  UNL     1      40.018  -6.246  35.621  1.00  0.00    -0.354 N 
HETATM   28  C32 UNL     1      40.285  -3.936  35.010  1.00  0.00     0.076 C 
ATOM     29  H2  UNL     1      39.876  -6.719  34.728  1.00  0.00     0.163 HD
BRANCH  19  30
HETATM   30  O1  UNL     1      42.459  -9.549  38.234  1.00  0.00    -0.360 OA
ATOM     31  H1  UNL     1      42.227 -10.267  37.658  1.00  0.00     0.217 HD
ENDBRANCH  19  30
BRANCH  26  32
HETATM   32  O4  UNL     1      38.177  -4.783  35.803  1.00  0.00    -0.367 OA
ATOM     33  H4  UNL     1      37.858  -3.950  36.128  1.00  0.00     0.213 HD
ENDBRANCH  26  32
ENDBRANCH   1  18
BRANCH  10  34
HETATM   34  O2  UNL     1      38.916 -12.348  33.318  1.00  0.00    -0.357 OA
ATOM     35  H2  UNL     1      38.015 -12.589  33.136  1.00  0.00     0.217 HD
ENDBRANCH  10  34
BRANCH  12  36
HETATM   36  O3  UNL     1      36.671 -12.574  35.375  1.00  0.00    -0.360 OA
ATOM     37  H3  UNL     1      35.792 -12.809  35.648  1.00  0.00     0.217 HD
ENDBRANCH  12  36
BRANCH   6  38
HETATM   38  C14 UNL     1      42.333 -11.647  29.780  1.00  0.00    -0.025 A 
HETATM   39  C15 UNL     1      42.048 -10.816  28.722  1.00  0.00     0.012 A 
HETATM   40  C16 UNL     1      42.272 -11.295  27.446  1.00  0.00     0.001 A 
HETATM   41  C17 UNL     1      42.770 -12.578  27.253  1.00  0.00     0.000 A 
HETATM   42  C18 UNL     1      43.047 -13.389  28.349  1.00  0.00     0.001 A 
HETATM   43  C19 UNL     1      42.828 -12.924  29.613  1.00  0.00     0.012 A 
ENDBRANCH   6  38
TORSDOF 6
ENDMDL
MODEL 4
REMARK VINA RESULT: -8.869614009      1.372      2.607
REMARK  6 active torsions:
REMARK  status: ('A' for Active; 'I' for Inactive)
REMARK    1  A    between atoms: C6_6  and  O1_7 
REMARK    2  A    between atoms: C7_9  and  C8_10 
REMARK    3  A    between atoms: C13_15  and  C14_16 
REMARK    4  A    between atoms: C22_25  and  O2_26 
REMARK    5  A    between atoms: C24_29  and  O3_30 
REMARK    6  A    between atoms: C31_40  and  O4_42 
ROOT
HETATM    1  C8  UNL     1      40.877  -8.205  35.832  1.00  0.00    -0.007 C 
HETATM    2  C9  UNL     1      42.089  -7.948  35.131  1.00  0.00     0.015 C 
HETATM    3  C10 UNL     1      42.737  -8.797  34.261  1.00  0.00     0.031 C 
HETATM    4  C11 UNL     1      42.184  -9.713  33.391  1.00  0.00     0.040 A 
HETATM    5  C12 UNL     1      42.818 -10.076  32.231  1.00  0.00     0.043 A 
HETATM    6  C13 UNL     1      41.953 -10.969  31.624  1.00  0.00    -0.008 A 
HETATM    7  C20 UNL     1      40.830 -11.130  32.412  1.00  0.00     0.110 A 
HETATM    8  N1  UNL     1      41.002 -10.349  33.488  1.00  0.00    -0.318 N 
HETATM    9  C21 UNL     1      40.130 -10.213  34.522  1.00  0.00     0.085 A 
HETATM   10  C22 UNL     1      39.053 -11.083  34.720  1.00  0.00     0.107 A 
HETATM   11  C23 UNL     1      38.349 -10.645  35.842  1.00  0.00     0.044 A 
HETATM   12  C24 UNL     1      37.211 -11.169  36.426  1.00  0.00     0.079 A 
HETATM   13  C25 UNL     1      36.660 -10.547  37.567  1.00  0.00     0.037 A 
HETATM   14  C26 UNL     1      37.256  -9.449  38.067  1.00  0.00     0.004 A 
HETATM   15  C27 UNL     1      38.413  -8.894  37.496  1.00  0.00     0.013 A 
HETATM   16  C28 UNL     1      38.942  -9.498  36.395  1.00  0.00    -0.007 A 
HETATM   17  C29 UNL     1      40.031  -9.227  35.599  1.00  0.00     0.017 A 
ENDROOT
BRANCH   1  18
HETATM   18  C7  UNL     1      40.737  -7.204  36.854  1.00  0.00     0.035 A 
HETATM   19  C6  UNL     1      39.955  -6.088  36.684  1.00  0.00     0.079 A 
HETATM   20  C5  UNL     1      39.777  -5.208  37.728  1.00  0.00     0.038 A 
HETATM   21  C4  UNL     1      40.387  -5.454  38.941  1.00  0.00     0.017 A 
HETATM   22  C3  UNL     1      41.179  -6.581  39.121  1.00  0.00    -0.002 A 
HETATM   23  C2  UNL     1      41.832  -6.978  40.190  1.00  0.00    -0.017 A 
HETATM   24  C30 UNL     1      41.345  -7.445  38.075  1.00  0.00     0.055 A 
HETATM   25  C1  UNL     1      41.876  -6.294  41.490  1.00  0.00     0.049 C 
HETATM   26  C31 UNL     1      42.518  -8.247  39.839  1.00  0.00     0.153 A 
HETATM   27  N2  UNL     1      42.124  -8.430  38.464  1.00  0.00    -0.354 N 
HETATM   28  C32 UNL     1      41.941  -9.396  40.658  1.00  0.00     0.076 C 
ATOM     29  H2  UNL     1      42.410  -9.213  37.876  1.00  0.00     0.163 HD
BRANCH  19  30
HETATM   30  O1  UNL     1      39.319  -5.793  35.484  1.00  0.00    -0.360 OA
ATOM     31  H1  UNL     1      39.869  -5.600  34.734  1.00  0.00     0.217 HD
ENDBRANCH  19  30
BRANCH  26  32
HETATM   32  O4  UNL     1      43.901  -8.169  39.992  1.00  0.00    -0.367 OA
ATOM     33  H4  UNL     1      44.351  -8.926  39.635  1.00  0.00     0.213 HD
ENDBRANCH  26  32
ENDBRANCH   1  18
BRANCH  10  34
HETATM   34  O2  UNL     1      38.827 -12.128  33.915  1.00  0.00    -0.357 OA
ATOM     35  H2  UNL     1      39.369 -12.306  33.155  1.00  0.00     0.217 HD
ENDBRANCH  10  34
BRANCH  12  36
HETATM   36  O3  UNL     1      36.569 -12.274  35.964  1.00  0.00    -0.360 OA
ATOM     37  H3  UNL     1      36.404 -13.046  36.492  1.00  0.00     0.217 HD
ENDBRANCH  12  36
BRANCH   6  38
HETATM   38  C14 UNL     1      42.244 -11.605  30.345  1.00  0.00    -0.025 A 
HETATM   39  C15 UNL     1      42.514 -10.807  29.258  1.00  0.00     0.012 A 
HETATM   40  C16 UNL     1      42.790 -11.426  28.055  1.00  0.00     0.001 A 
HETATM   41  C17 UNL     1      42.791 -12.813  27.961  1.00  0.00     0.000 A 
HETATM   42  C18 UNL     1      42.514 -13.587  29.083  1.00  0.00     0.001 A 
HETATM   43  C19 UNL     1      42.240 -12.983  30.276  1.00  0.00     0.012 A 
ENDBRANCH   6  38
TORSDOF 6
ENDMDL
MODEL 5
REMARK VINA RESULT: -8.019017818      3.636      7.746
REMARK  6 active torsions:
REMARK  status: ('A' for Active; 'I' for Inactive)
REMARK    1  A    between atoms: C6_6  and  O1_7 
REMARK    2  A    between atoms: C7_9  and  C8_10 
REMARK    3  A    between atoms: C13_15  and  C14_16 
REMARK    4  A    between atoms: C22_25  and  O2_26 
REMARK    5  A    between atoms: C24_29  and  O3_30 
REMARK    6  A    between atoms: C31_40  and  O4_42 
ROOT
HETATM    1  C8  UNL     1      39.286  -7.442  35.772  1.00  0.00    -0.007 C 
HETATM    2  C9  UNL     1      38.488  -6.272  35.920  1.00  0.00     0.015 C 
HETATM    3  C10 UNL     1      38.937  -4.985  36.118  1.00  0.00     0.031 C 
HETATM    4  C11 UNL     1      40.081  -4.395  35.624  1.00  0.00     0.040 A 
HETATM    5  C12 UNL     1      40.155  -3.044  35.401  1.00  0.00     0.043 A 
HETATM    6  C13 UNL     1      41.422  -2.844  34.883  1.00  0.00    -0.008 A 
HETATM    7  C20 UNL     1      42.083  -4.053  34.802  1.00  0.00     0.110 A 
HETATM    8  N1  UNL     1      41.237  -4.984  35.264  1.00  0.00    -0.318 N 
HETATM    9  C21 UNL     1      41.492  -6.316  35.363  1.00  0.00     0.085 A 
HETATM   10  C22 UNL     1      42.779  -6.848  35.239  1.00  0.00     0.107 A 
HETATM   11  C23 UNL     1      42.684  -8.235  35.361  1.00  0.00     0.044 A 
HETATM   12  C24 UNL     1      43.677  -9.193  35.300  1.00  0.00     0.079 A 
HETATM   13  C25 UNL     1      43.343 -10.557  35.442  1.00  0.00     0.037 A 
HETATM   14  C26 UNL     1      42.057 -10.900  35.636  1.00  0.00     0.004 A 
HETATM   15  C27 UNL     1      41.025  -9.949  35.703  1.00  0.00     0.013 A 
HETATM   16  C28 UNL     1      41.353  -8.633  35.565  1.00  0.00    -0.007 A 
HETATM   17  C29 UNL     1      40.617  -7.470  35.571  1.00  0.00     0.017 A 
ENDROOT
BRANCH   1  18
HETATM   18  C7  UNL     1      38.425  -8.585  35.912  1.00  0.00     0.035 A 
HETATM   19  C6  UNL     1      37.896  -9.241  34.827  1.00  0.00     0.079 A 
HETATM   20  C5  UNL     1      37.156 -10.387  35.012  1.00  0.00     0.038 A 
HETATM   21  C4  UNL     1      36.950 -10.871  36.288  1.00  0.00     0.017 A 
HETATM   22  C3  UNL     1      37.482 -10.213  37.390  1.00  0.00    -0.002 A 
HETATM   23  C2  UNL     1      37.394 -10.518  38.665  1.00  0.00    -0.017 A 
HETATM   24  C30 UNL     1      38.215  -9.076  37.190  1.00  0.00     0.055 A 
HETATM   25  C1  UNL     1      36.685 -11.671  39.239  1.00  0.00     0.049 C 
HETATM   26  C31 UNL     1      38.145  -9.483  39.417  1.00  0.00     0.153 A 
HETATM   27  N2  UNL     1      38.616  -8.625  38.357  1.00  0.00    -0.354 N 
HETATM   28  C32 UNL     1      39.355 -10.108  40.100  1.00  0.00     0.076 C 
ATOM     29  H2  UNL     1      39.181  -7.787  38.495  1.00  0.00     0.163 HD
BRANCH  19  30
HETATM   30  O1  UNL     1      38.073  -8.797  33.523  1.00  0.00    -0.360 OA
ATOM     31  H1  UNL     1      37.641  -7.988  33.274  1.00  0.00     0.217 HD
ENDBRANCH  19  30
BRANCH  26  32
HETATM   32  O4  UNL     1      37.347  -8.804  40.337  1.00  0.00    -0.367 OA
ATOM     33  H4  UNL     1      37.044  -7.965  40.009  1.00  0.00     0.213 HD
ENDBRANCH  26  32
ENDBRANCH   1  18
BRANCH  10  34
HETATM   34  O2  UNL     1      43.853  -6.072  35.043  1.00  0.00    -0.357 OA
ATOM     35  H2  UNL     1      44.166  -5.856  34.172  1.00  0.00     0.217 HD
ENDBRANCH  10  34
BRANCH  12  36
HETATM   36  O3  UNL     1      44.991  -8.904  35.107  1.00  0.00    -0.360 OA
ATOM     37  H3  UNL     1      45.324  -8.023  34.986  1.00  0.00     0.217 HD
ENDBRANCH  12  36
BRANCH   6  38
HETATM   38  C14 UNL     1      41.918  -1.528  34.500  1.00  0.00    -0.025 A 
HETATM   39  C15 UNL     1      43.205  -1.420  34.026  1.00  0.00     0.012 A 
HETATM   40  C16 UNL     1      43.658  -0.166  33.665  1.00  0.00     0.001 A 
HETATM   41  C17 UNL     1      42.829   0.943  33.784  1.00  0.00     0.000 A 
HETATM   42  C18 UNL     1      41.533   0.794  34.267  1.00  0.00     0.001 A 
HETATM   43  C19 UNL     1      41.077  -0.442  34.626  1.00  0.00     0.012 A 
ENDBRANCH   6  38
TORSDOF 6
ENDMDL
