MODEL 1
REMARK VINA RESULT: -9.696152986      0.000      0.000
REMARK  5 active torsions:
REMARK  status: ('A' for Active; 'I' for Inactive)
REMARK    1  A    between atoms: C5_8  and  N3_9 
REMARK    2  A    between atoms: N3_9  and  C6_11 
REMARK    3  A    between atoms: C6_11  and  N4_13 
REMARK    4  A    between atoms: N4_13  and  C7_15 
REMARK    5  A    between atoms: C22_34  and  C23_35 
ROOT
HETATM    1  N1  UNL     1      36.766 -12.669  35.560  1.00  0.00    -0.062 NA
HETATM    2  C1  UNL     1      37.617 -11.530  35.293  1.00  0.00     0.206 A 
HETATM    3  N2  UNL     1      38.672 -11.463  34.585  1.00  0.00    -0.337 N 
ATOM      4  H2  UNL     1      39.181 -12.162  34.044  1.00  0.00     0.164 HD
HETATM    5  C2  UNL     1      38.893 -10.102  34.803  1.00  0.00     0.243 A 
HETATM    6  C3  UNL     1      39.984  -9.607  35.653  1.00  0.00     0.010 A 
HETATM    7  C4  UNL     1      39.730  -9.015  36.840  1.00  0.00     0.023 A 
HETATM    8  C5  UNL     1      40.799  -8.508  37.616  1.00  0.00     0.117 A 
HETATM    9  N6  UNL     1      42.056  -8.617  37.176  1.00  0.00    -0.341 N 
ATOM     10  H6  UNL     1      42.820  -8.249  37.741  1.00  0.00     0.167 HD
HETATM   11  C16 UNL     1      42.325  -9.202  36.004  1.00  0.00     0.044 A 
HETATM   12  C17 UNL     1      43.639  -9.290  35.587  1.00  0.00     0.030 A 
HETATM   13  C18 UNL     1      43.907  -9.889  34.379  1.00  0.00     0.002 A 
HETATM   14  C19 UNL     1      42.908 -10.398  33.581  1.00  0.00     0.001 A 
HETATM   15  C20 UNL     1      41.612 -10.302  34.011  1.00  0.00     0.014 A 
HETATM   16  C21 UNL     1      41.311  -9.707  35.219  1.00  0.00     0.001 A 
HETATM   17  C22 UNL     1      38.389  -8.861  37.388  1.00  0.00     0.170 C 
HETATM   18  N7  UNL     1      37.311  -9.094  36.409  1.00  0.00    -0.119 NA
HETATM   19  N8  UNL     1      37.711 -10.227  35.669  1.00  0.00    -0.239 N 
ENDROOT
BRANCH   8  20
HETATM   20  N3  UNL     1      40.530  -7.929  38.753  1.00  0.00    -0.319 N 
ATOM     21  H3  UNL     1      39.583  -7.903  39.130  1.00  0.00     0.170 HD
BRANCH  20  22
HETATM   22  C6  UNL     1      41.653  -7.323  39.461  1.00  0.00     0.178 C 
HETATM   23  S1  UNL     1      42.318  -8.086  40.703  1.00  0.00    -0.040 SA
BRANCH  22  24
HETATM   24  N4  UNL     1      42.069  -6.081  38.974  1.00  0.00    -0.319 N 
ATOM     25  H4  UNL     1      43.037  -5.841  39.191  1.00  0.00     0.169 HD
BRANCH  24  26
HETATM   26  C7  UNL     1      41.378  -5.114  38.240  1.00  0.00     0.107 A 
HETATM   27  C8  UNL     1      41.359  -4.919  36.897  1.00  0.00     0.049 A 
HETATM   28  C9  UNL     1      40.622  -3.907  36.270  1.00  0.00     0.017 A 
HETATM   29  C10 UNL     1      39.874  -3.062  37.049  1.00  0.00    -0.009 A 
HETATM   30  C11 UNL     1      39.114  -2.031  36.488  1.00  0.00     0.013 A 
HETATM   31  C15 UNL     1      39.889  -3.254  38.400  1.00  0.00     0.043 A 
HETATM   32  C12 UNL     1      38.388  -1.220  37.313  1.00  0.00     0.001 A 
HETATM   33  C13 UNL     1      38.408  -1.419  38.680  1.00  0.00     0.002 A 
HETATM   34  C14 UNL     1      39.146  -2.422  39.234  1.00  0.00     0.030 A 
HETATM   35  N5  UNL     1      40.603  -4.226  38.960  1.00  0.00    -0.342 N 
ATOM     36  H5  UNL     1      40.576  -4.322  39.975  1.00  0.00     0.167 HD
ENDBRANCH  24  26
ENDBRANCH  22  24
ENDBRANCH  20  22
ENDBRANCH   8  20
BRANCH  17  37
HETATM   37  C23 UNL     1      38.141  -9.848  38.448  1.00  0.00    -0.033 A 
HETATM   38  C24 UNL     1      39.138 -10.620  38.963  1.00  0.00     0.009 A 
HETATM   39  C25 UNL     1      38.895 -11.544  39.984  1.00  0.00     0.001 A 
HETATM   40  C26 UNL     1      37.639 -11.684  40.484  1.00  0.00     0.000 A 
HETATM   41  C27 UNL     1      36.610 -10.919  39.984  1.00  0.00     0.001 A 
HETATM   42  C28 UNL     1      36.873 -10.005  38.968  1.00  0.00     0.009 A 
ENDBRANCH  17  37
TORSDOF 5
ENDMDL
MODEL 2
REMARK VINA RESULT: -9.573974994      2.076      7.450
REMARK  5 active torsions:
REMARK  status: ('A' for Active; 'I' for Inactive)
REMARK    1  A    between atoms: C5_8  and  N3_9 
REMARK    2  A    between atoms: N3_9  and  C6_11 
REMARK    3  A    between atoms: C6_11  and  N4_13 
REMARK    4  A    between atoms: N4_13  and  C7_15 
REMARK    5  A    between atoms: C22_34  and  C23_35 
ROOT
HETATM    1  N1  UNL     1      39.676  -1.570  38.279  1.00  0.00    -0.062 NA
HETATM    2  C1  UNL     1      39.748  -2.984  38.575  1.00  0.00     0.206 A 
HETATM    3  N2  UNL     1      40.167  -3.565  39.628  1.00  0.00    -0.337 N 
ATOM      4  H2  UNL     1      40.551  -3.206  40.502  1.00  0.00     0.164 HD
HETATM    5  C2  UNL     1      39.919  -4.860  39.173  1.00  0.00     0.243 A 
HETATM    6  C3  UNL     1      40.997  -5.780  38.789  1.00  0.00     0.010 A 
HETATM    7  C4  UNL     1      41.181  -6.143  37.500  1.00  0.00     0.023 A 
HETATM    8  C5  UNL     1      42.200  -7.065  37.168  1.00  0.00     0.117 A 
HETATM    9  N6  UNL     1      42.979  -7.576  38.126  1.00  0.00    -0.341 N 
ATOM     10  H6  UNL     1      43.711  -8.241  37.877  1.00  0.00     0.167 HD
HETATM   11  C16 UNL     1      42.812  -7.228  39.405  1.00  0.00     0.044 A 
HETATM   12  C17 UNL     1      43.639  -7.784  40.362  1.00  0.00     0.030 A 
HETATM   13  C18 UNL     1      43.458  -7.424  41.677  1.00  0.00     0.002 A 
HETATM   14  C19 UNL     1      42.481  -6.532  42.060  1.00  0.00     0.001 A 
HETATM   15  C20 UNL     1      41.672  -5.991  41.097  1.00  0.00     0.014 A 
HETATM   16  C21 UNL     1      41.830  -6.333  39.770  1.00  0.00     0.001 A 
HETATM   17  C22 UNL     1      40.375  -5.627  36.401  1.00  0.00     0.170 C 
HETATM   18  N7  UNL     1      39.139  -4.948  36.831  1.00  0.00    -0.119 NA
HETATM   19  N8  UNL     1      39.507  -4.164  37.945  1.00  0.00    -0.239 N 
ENDROOT
BRANCH   8  20
HETATM   20  N3  UNL     1      42.353  -7.409  35.919  1.00  0.00    -0.319 N 
ATOM     21  H3  UNL     1      42.761  -6.773  35.234  1.00  0.00     0.170 HD
BRANCH  20  22
HETATM   22  C6  UNL     1      41.912  -8.750  35.550  1.00  0.00     0.178 C 
HETATM   23  S1  UNL     1      42.976  -9.945  35.471  1.00  0.00    -0.040 SA
BRANCH  22  24
HETATM   24  N4  UNL     1      40.545  -8.883  35.289  1.00  0.00    -0.319 N 
ATOM     25  H4  UNL     1      40.247  -8.515  34.386  1.00  0.00     0.169 HD
BRANCH  24  26
HETATM   26  C7  UNL     1      39.521  -9.436  36.062  1.00  0.00     0.107 A 
HETATM   27  C8  UNL     1      38.216  -9.618  35.739  1.00  0.00     0.049 A 
HETATM   28  C9  UNL     1      37.274 -10.188  36.604  1.00  0.00     0.017 A 
HETATM   29  C10 UNL     1      37.686 -10.587  37.850  1.00  0.00    -0.009 A 
HETATM   30  C11 UNL     1      36.799 -11.164  38.763  1.00  0.00     0.013 A 
HETATM   31  C15 UNL     1      38.997 -10.407  38.180  1.00  0.00     0.043 A 
HETATM   32  C12 UNL     1      37.264 -11.543  39.989  1.00  0.00     0.001 A 
HETATM   33  C13 UNL     1      38.593 -11.356  40.318  1.00  0.00     0.002 A 
HETATM   34  C14 UNL     1      39.465 -10.796  39.433  1.00  0.00     0.030 A 
HETATM   35  N5  UNL     1      39.863  -9.860  37.330  1.00  0.00    -0.342 N 
ATOM     36  H5  UNL     1      40.831  -9.750  37.632  1.00  0.00     0.167 HD
ENDBRANCH  24  26
ENDBRANCH  22  24
ENDBRANCH  20  22
ENDBRANCH   8  20
BRANCH  17  37
HETATM   37  C23 UNL     1      41.112  -4.604  35.647  1.00  0.00    -0.033 A 
HETATM   38  C24 UNL     1      42.135  -3.895  36.203  1.00  0.00     0.009 A 
HETATM   39  C25 UNL     1      42.842  -2.936  35.472  1.00  0.00     0.001 A 
HETATM   40  C26 UNL     1      42.511  -2.694  34.176  1.00  0.00     0.000 A 
HETATM   41  C27 UNL     1      41.482  -3.393  33.587  1.00  0.00     0.001 A 
HETATM   42  C28 UNL     1      40.792  -4.345  34.331  1.00  0.00     0.009 A 
ENDBRANCH  17  37
TORSDOF 5
ENDMDL
MODEL 3
REMARK VINA RESULT: -9.446766331      0.729      1.328
REMARK  5 active torsions:
REMARK  status: ('A' for Active; 'I' for Inactive)
REMARK    1  A    between atoms: C5_8  and  N3_9 
REMARK    2  A    between atoms: N3_9  and  C6_11 
REMARK    3  A    between atoms: C6_11  and  N4_13 
REMARK    4  A    between atoms: N4_13  and  C7_15 
REMARK    5  A    between atoms: C22_34  and  C23_35 
ROOT
HETATM    1  N1  UNL     1      36.905 -12.899  35.486  1.00  0.00    -0.062 NA
HETATM    2  C1  UNL     1      37.658 -11.700  35.188  1.00  0.00     0.206 A 
HETATM    3  N2  UNL     1      38.724 -11.569  34.505  1.00  0.00    -0.337 N 
ATOM      4  H2  UNL     1      39.310 -12.243  34.012  1.00  0.00     0.164 HD
HETATM    5  C2  UNL     1      38.815 -10.186  34.663  1.00  0.00     0.243 A 
HETATM    6  C3  UNL     1      39.830  -9.555  35.517  1.00  0.00     0.010 A 
HETATM    7  C4  UNL     1      39.488  -8.934  36.667  1.00  0.00     0.023 A 
HETATM    8  C5  UNL     1      40.482  -8.298  37.445  1.00  0.00     0.117 A 
HETATM    9  N6  UNL     1      41.758  -8.311  37.044  1.00  0.00    -0.341 N 
ATOM     10  H6  UNL     1      42.468  -7.849  37.610  1.00  0.00     0.167 HD
HETATM   11  C16 UNL     1      42.114  -8.921  35.909  1.00  0.00     0.044 A 
HETATM   12  C17 UNL     1      43.442  -8.908  35.532  1.00  0.00     0.030 A 
HETATM   13  C18 UNL     1      43.800  -9.535  34.361  1.00  0.00     0.002 A 
HETATM   14  C19 UNL     1      42.875 -10.169  33.563  1.00  0.00     0.001 A 
HETATM   15  C20 UNL     1      41.563 -10.172  33.953  1.00  0.00     0.014 A 
HETATM   16  C21 UNL     1      41.174  -9.552  35.123  1.00  0.00     0.001 A 
HETATM   17  C22 UNL     1      38.122  -8.879  37.172  1.00  0.00     0.170 C 
HETATM   18  N7  UNL     1      37.101  -9.254  36.177  1.00  0.00    -0.119 NA
HETATM   19  N8  UNL     1      37.623 -10.378  35.503  1.00  0.00    -0.239 N 
ENDROOT
BRANCH   8  20
HETATM   20  N3  UNL     1      40.129  -7.695  38.546  1.00  0.00    -0.319 N 
ATOM     21  H3  UNL     1      39.158  -7.440  38.729  1.00  0.00     0.170 HD
BRANCH  20  22
HETATM   22  C6  UNL     1      41.190  -7.403  39.503  1.00  0.00     0.178 C 
HETATM   23  S1  UNL     1      41.772  -8.574  40.429  1.00  0.00    -0.040 SA
BRANCH  22  24
HETATM   24  N4  UNL     1      41.626  -6.075  39.531  1.00  0.00    -0.319 N 
ATOM     25  H4  UNL     1      42.566  -5.943  39.905  1.00  0.00     0.169 HD
BRANCH  24  26
HETATM   26  C7  UNL     1      40.987  -4.899  39.131  1.00  0.00     0.107 A 
HETATM   27  C8  UNL     1      40.007  -4.207  39.765  1.00  0.00     0.049 A 
HETATM   28  C9  UNL     1      39.438  -3.031  39.262  1.00  0.00     0.017 A 
HETATM   29  C10 UNL     1      39.891  -2.544  38.063  1.00  0.00    -0.009 A 
HETATM   30  C11 UNL     1      39.368  -1.374  37.504  1.00  0.00     0.013 A 
HETATM   31  C15 UNL     1      40.877  -3.236  37.421  1.00  0.00     0.043 A 
HETATM   32  C12 UNL     1      39.858  -0.936  36.307  1.00  0.00     0.001 A 
HETATM   33  C13 UNL     1      40.855  -1.642  35.662  1.00  0.00     0.002 A 
HETATM   34  C14 UNL     1      41.371  -2.782  36.201  1.00  0.00     0.030 A 
HETATM   35  N5  UNL     1      41.392  -4.351  37.930  1.00  0.00    -0.342 N 
ATOM     36  H5  UNL     1      42.127  -4.827  37.406  1.00  0.00     0.167 HD
ENDBRANCH  24  26
ENDBRANCH  22  24
ENDBRANCH  20  22
ENDBRANCH   8  20
BRANCH  17  37
HETATM   37  C23 UNL     1      37.932  -9.835  38.271  1.00  0.00    -0.033 A 
HETATM   38  C24 UNL     1      38.960 -10.578  38.767  1.00  0.00     0.009 A 
HETATM   39  C25 UNL     1      38.773 -11.472  39.826  1.00  0.00     0.001 A 
HETATM   40  C26 UNL     1      37.540 -11.613  40.381  1.00  0.00     0.000 A 
HETATM   41  C27 UNL     1      36.481 -10.877  39.901  1.00  0.00     0.001 A 
HETATM   42  C28 UNL     1      36.689  -9.992  38.847  1.00  0.00     0.009 A 
ENDBRANCH  17  37
TORSDOF 5
ENDMDL
MODEL 4
REMARK VINA RESULT: -9.399949780      1.502      4.584
REMARK  5 active torsions:
REMARK  status: ('A' for Active; 'I' for Inactive)
REMARK    1  A    between atoms: C5_8  and  N3_9 
REMARK    2  A    between atoms: N3_9  and  C6_11 
REMARK    3  A    between atoms: C6_11  and  N4_13 
REMARK    4  A    between atoms: N4_13  and  C7_15 
REMARK    5  A    between atoms: C22_34  and  C23_35 
ROOT
HETATM    1  N1  UNL     1      39.149  -9.623  32.584  1.00  0.00    -0.062 NA
HETATM    2  C1  UNL     1      39.061 -10.271  33.874  1.00  0.00     0.206 A 
HETATM    3  N2  UNL     1      38.048 -10.428  34.628  1.00  0.00    -0.337 N 
ATOM      4  H2  UNL     1      37.072 -10.147  34.532  1.00  0.00     0.164 HD
HETATM    5  C2  UNL     1      38.732 -11.117  35.630  1.00  0.00     0.243 A 
HETATM    6  C3  UNL     1      39.035 -10.514  36.934  1.00  0.00     0.010 A 
HETATM    7  C4  UNL     1      40.304 -10.209  37.285  1.00  0.00     0.023 A 
HETATM    8  C5  UNL     1      40.569  -9.671  38.565  1.00  0.00     0.117 A 
HETATM    9  N6  UNL     1      39.567  -9.464  39.426  1.00  0.00    -0.341 N 
ATOM     10  H6  UNL     1      39.768  -9.076  40.347  1.00  0.00     0.167 HD
HETATM   11  C16 UNL     1      38.306  -9.759  39.095  1.00  0.00     0.044 A 
HETATM   12  C17 UNL     1      37.303  -9.531  40.016  1.00  0.00     0.030 A 
HETATM   13  C18 UNL     1      36.008  -9.840  39.669  1.00  0.00     0.002 A 
HETATM   14  C19 UNL     1      35.691 -10.368  38.439  1.00  0.00     0.001 A 
HETATM   15  C20 UNL     1      36.699 -10.587  37.538  1.00  0.00     0.014 A 
HETATM   16  C21 UNL     1      38.007 -10.286  37.857  1.00  0.00     0.001 A 
HETATM   17  C22 UNL     1      41.447 -10.403  36.403  1.00  0.00     0.170 C 
HETATM   18  N7  UNL     1      41.166 -11.262  35.238  1.00  0.00    -0.119 NA
HETATM   19  N8  UNL     1      39.897 -10.860  34.770  1.00  0.00    -0.239 N 
ENDROOT
BRANCH   8  20
HETATM   20  N3  UNL     1      41.802  -9.395  38.888  1.00  0.00    -0.319 N 
ATOM     21  H3  UNL     1      42.570 -10.027  38.661  1.00  0.00     0.170 HD
BRANCH  20  22
HETATM   22  C6  UNL     1      42.030  -8.136  39.588  1.00  0.00     0.178 C 
HETATM   23  S1  UNL     1      42.259  -8.137  41.174  1.00  0.00    -0.040 SA
BRANCH  22  24
HETATM   24  N4  UNL     1      42.030  -6.992  38.785  1.00  0.00    -0.319 N 
ATOM     25  H4  UNL     1      42.676  -7.026  37.996  1.00  0.00     0.169 HD
BRANCH  24  26
HETATM   26  C7  UNL     1      41.291  -5.811  38.884  1.00  0.00     0.107 A 
HETATM   27  C8  UNL     1      40.451  -5.415  39.874  1.00  0.00     0.049 A 
HETATM   28  C9  UNL     1      39.760  -4.197  39.863  1.00  0.00     0.017 A 
HETATM   29  C10 UNL     1      39.936  -3.352  38.799  1.00  0.00    -0.009 A 
HETATM   30  C11 UNL     1      39.278  -2.121  38.725  1.00  0.00     0.013 A 
HETATM   31  C15 UNL     1      40.781  -3.744  37.802  1.00  0.00     0.043 A 
HETATM   32  C12 UNL     1      39.493  -1.319  37.641  1.00  0.00     0.001 A 
HETATM   33  C13 UNL     1      40.349  -1.723  36.634  1.00  0.00     0.002 A 
HETATM   34  C14 UNL     1      40.995  -2.921  36.699  1.00  0.00     0.030 A 
HETATM   35  N5  UNL     1      41.421  -4.910  37.846  1.00  0.00    -0.342 N 
ATOM     36  H5  UNL     1      42.039  -5.151  37.072  1.00  0.00     0.167 HD
ENDBRANCH  24  26
ENDBRANCH  22  24
ENDBRANCH  20  22
ENDBRANCH   8  20
BRANCH  17  37
HETATM   37  C23 UNL     1      41.881  -9.126  35.821  1.00  0.00    -0.033 A 
HETATM   38  C24 UNL     1      41.015  -8.095  35.617  1.00  0.00     0.009 A 
HETATM   39  C25 UNL     1      41.442  -6.876  35.079  1.00  0.00     0.001 A 
HETATM   40  C26 UNL     1      42.749  -6.705  34.747  1.00  0.00     0.000 A 
HETATM   41  C27 UNL     1      43.647  -7.729  34.940  1.00  0.00     0.001 A 
HETATM   42  C28 UNL     1      43.203  -8.933  35.477  1.00  0.00     0.009 A 
ENDBRANCH  17  37
TORSDOF 5
ENDMDL
MODEL 5
REMARK VINA RESULT: -9.277453270      1.597      2.301
REMARK  5 active torsions:
REMARK  status: ('A' for Active; 'I' for Inactive)
REMARK    1  A    between atoms: C5_8  and  N3_9 
REMARK    2  A    between atoms: N3_9  and  C6_11 
REMARK    3  A    between atoms: C6_11  and  N4_13 
REMARK    4  A    between atoms: N4_13  and  C7_15 
REMARK    5  A    between atoms: C22_34  and  C23_35 
ROOT
HETATM    1  N1  UNL     1      36.603 -12.294  36.317  1.00  0.00    -0.062 NA
HETATM    2  C1  UNL     1      37.344 -11.505  35.357  1.00  0.00     0.206 A 
HETATM    3  N2  UNL     1      38.047 -11.892  34.369  1.00  0.00    -0.337 N 
ATOM      4  H2  UNL     1      38.270 -12.819  34.007  1.00  0.00     0.164 HD
HETATM    5  C2  UNL     1      38.406 -10.610  33.950  1.00  0.00     0.243 A 
HETATM    6  C3  UNL     1      39.764 -10.078  34.118  1.00  0.00     0.010 A 
HETATM    7  C4  UNL     1      40.020  -9.078  34.989  1.00  0.00     0.023 A 
HETATM    8  C5  UNL     1      41.330  -8.556  35.096  1.00  0.00     0.117 A 
HETATM    9  N6  UNL     1      42.312  -9.053  34.338  1.00  0.00    -0.341 N 
ATOM     10  H6  UNL     1      43.254  -8.670  34.422  1.00  0.00     0.167 HD
HETATM   11  C16 UNL     1      42.078 -10.043  33.472  1.00  0.00     0.044 A 
HETATM   12  C17 UNL     1      43.123 -10.524  32.707  1.00  0.00     0.030 A 
HETATM   13  C18 UNL     1      42.872 -11.541  31.816  1.00  0.00     0.002 A 
HETATM   14  C19 UNL     1      41.617 -12.086  31.668  1.00  0.00     0.001 A 
HETATM   15  C20 UNL     1      40.594 -11.597  32.435  1.00  0.00     0.014 A 
HETATM   16  C21 UNL     1      40.814 -10.578  33.338  1.00  0.00     0.001 A 
HETATM   17  C22 UNL     1      39.004  -8.486  35.850  1.00  0.00     0.170 C 
HETATM   18  N7  UNL     1      37.621  -8.825  35.465  1.00  0.00    -0.119 NA
HETATM   19  N8  UNL     1      37.645 -10.197  35.139  1.00  0.00    -0.239 N 
ENDROOT
BRANCH   8  20
HETATM   20  N3  UNL     1      41.552  -7.582  35.935  1.00  0.00    -0.319 N 
ATOM     21  H3  UNL     1      41.104  -6.672  35.830  1.00  0.00     0.170 HD
BRANCH  20  22
HETATM   22  C6  UNL     1      42.472  -7.860  37.032  1.00  0.00     0.178 C 
HETATM   23  S1  UNL     1      43.179  -9.295  37.135  1.00  0.00    -0.040 SA
BRANCH  22  24
HETATM   24  N4  UNL     1      42.668  -6.810  37.933  1.00  0.00    -0.319 N 
ATOM     25  H4  UNL     1      43.628  -6.702  38.259  1.00  0.00     0.169 HD
BRANCH  24  26
HETATM   26  C7  UNL     1      41.764  -5.886  38.462  1.00  0.00     0.107 A 
HETATM   27  C8  UNL     1      41.110  -5.920  39.651  1.00  0.00     0.049 A 
HETATM   28  C9  UNL     1      40.220  -4.927  40.076  1.00  0.00     0.017 A 
HETATM   29  C10 UNL     1      39.991  -3.855  39.252  1.00  0.00    -0.009 A 
HETATM   30  C11 UNL     1      39.115  -2.828  39.615  1.00  0.00     0.013 A 
HETATM   31  C15 UNL     1      40.646  -3.815  38.056  1.00  0.00     0.043 A 
HETATM   32  C12 UNL     1      38.926  -1.785  38.754  1.00  0.00     0.001 A 
HETATM   33  C13 UNL     1      39.592  -1.750  37.544  1.00  0.00     0.002 A 
HETATM   34  C14 UNL     1      40.448  -2.747  37.184  1.00  0.00     0.030 A 
HETATM   35  N5  UNL     1      41.485  -4.779  37.685  1.00  0.00    -0.342 N 
ATOM     36  H5  UNL     1      41.946  -4.696  36.780  1.00  0.00     0.167 HD
ENDBRANCH  24  26
ENDBRANCH  22  24
ENDBRANCH  20  22
ENDBRANCH   8  20
BRANCH  17  37
HETATM   37  C23 UNL     1      39.132  -8.982  37.227  1.00  0.00    -0.033 A 
HETATM   38  C24 UNL     1      39.634 -10.217  37.505  1.00  0.00     0.009 A 
HETATM   39  C25 UNL     1      39.770 -10.674  38.820  1.00  0.00     0.001 A 
HETATM   40  C26 UNL     1      39.394  -9.875  39.854  1.00  0.00     0.000 A 
HETATM   41  C27 UNL     1      38.882  -8.623  39.605  1.00  0.00     0.001 A 
HETATM   42  C28 UNL     1      38.756  -8.187  38.290  1.00  0.00     0.009 A 
ENDBRANCH  17  37
TORSDOF 5
ENDMDL
