MODEL 1
REMARK VINA RESULT: -10.521287302      0.000      0.000
REMARK  3 active torsions:
REMARK  status: ('A' for Active; 'I' for Inactive)
REMARK    1  A    between atoms: N1_1  and  C1_4 
REMARK    2  A    between atoms: C2_7  and  C3_8 
REMARK    3  A    between atoms: C7_15  and  C8_16 
ROOT
HETATM    1  C3  UNL     1      37.713  -8.754  36.493  1.00  0.00     0.048 C 
HETATM    2  C4  UNL     1      38.671  -8.584  37.380  1.00  0.00     0.049 A 
HETATM    3  C5  UNL     1      39.174  -9.519  38.372  1.00  0.00     0.257 A 
HETATM    4  O1  UNL     1      38.782 -10.696  38.565  1.00  0.00    -0.267 OA
HETATM    5  N3  UNL     1      40.211  -8.849  39.096  1.00  0.00    -0.321 N 
ATOM      6  H3  UNL     1      40.757  -9.245  39.861  1.00  0.00     0.169 HD
HETATM    7  C6  UNL     1      40.350  -7.539  38.569  1.00  0.00     0.059 A 
HETATM    8  C7  UNL     1      41.254  -6.547  38.999  1.00  0.00     0.004 A 
HETATM    9  C13 UNL     1      41.219  -5.339  38.355  1.00  0.00     0.031 A 
HETATM   10  C14 UNL     1      40.335  -5.101  37.328  1.00  0.00     0.029 A 
HETATM   11  C15 UNL     1      39.446  -6.102  36.920  1.00  0.00     0.059 A 
HETATM   12  N5  UNL     1      38.746  -5.559  35.940  1.00  0.00    -0.352 N 
ATOM     13  H5  UNL     1      38.008  -6.048  35.433  1.00  0.00     0.166 HD
HETATM   14  C16 UNL     1      39.117  -4.268  35.681  1.00  0.00     0.069 A 
HETATM   15  C17 UNL     1      38.665  -3.338  34.765  1.00  0.00     0.051 A 
HETATM   16  C18 UNL     1      39.243  -2.092  34.739  1.00  0.00     0.052 A 
HETATM   17  C19 UNL     1      38.802  -1.080  33.807  1.00  0.00    -0.020 A 
HETATM   18  C20 UNL     1      38.589   0.240  34.173  1.00  0.00     0.012 A 
HETATM   19  C21 UNL     1      38.164   1.219  33.299  1.00  0.00     0.001 A 
HETATM   20  C22 UNL     1      37.937   0.859  31.983  1.00  0.00     0.000 A 
HETATM   21  C23 UNL     1      38.133  -0.443  31.562  1.00  0.00     0.001 A 
HETATM   22  C24 UNL     1      38.555  -1.380  32.465  1.00  0.00     0.012 A 
HETATM   23  C25 UNL     1      40.249  -1.848  35.639  1.00  0.00     0.299 A 
HETATM   24  O2  UNL     1      40.812  -0.724  35.654  1.00  0.00    -0.259 OA
HETATM   25  O3  UNL     1      40.655  -2.766  36.501  1.00  0.00    -0.272 OA
HETATM   26  C26 UNL     1      40.127  -3.975  36.561  1.00  0.00     0.118 A 
HETATM   27  C27 UNL     1      39.453  -7.352  37.555  1.00  0.00     0.035 A 
ENDROOT
BRANCH   1  28
HETATM   28  C2  UNL     1      36.917  -9.980  36.325  1.00  0.00     0.051 A 
HETATM   29  N2  UNL     1      37.391 -11.010  35.622  1.00  0.00    -0.192 N 
HETATM   30  C1  UNL     1      36.642 -12.115  35.469  1.00  0.00     0.676 A 
ATOM     31  H2  UNL     1      38.319 -10.958  35.201  1.00  0.00     0.184 HD
HETATM   32  N6  UNL     1      35.421 -12.217  36.005  1.00  0.00    -0.202 N 
HETATM   33  C29 UNL     1      34.920 -11.203  36.714  1.00  0.00     0.108 A 
ATOM     34  H6  UNL     1      34.874 -13.068  35.873  1.00  0.00     0.183 HD
HETATM   35  C28 UNL     1      35.653 -10.067  36.889  1.00  0.00     0.047 A 
BRANCH  30  36
HETATM   36  N1  UNL     1      37.098 -13.110  34.791  1.00  0.00    -0.234 N 
ATOM     37  H12 UNL     1      37.832 -12.934  34.105  1.00  0.00     0.174 HD
ATOM     38  H11 UNL     1      36.725 -14.046  34.949  1.00  0.00     0.174 HD
ENDBRANCH  30  36
ENDBRANCH   1  28
BRANCH   8  39
HETATM   39  C8  UNL     1      42.203  -6.791  40.065  1.00  0.00    -0.008 A 
HETATM   40  C9  UNL     1      42.082  -6.216  41.315  1.00  0.00     0.015 A 
HETATM   41  C10 UNL     1      43.019  -6.477  42.292  1.00  0.00     0.018 A 
HETATM   42  C11 UNL     1      44.071  -7.322  41.985  1.00  0.00     0.087 A 
HETATM   43  N4  UNL     1      44.190  -7.881  40.769  1.00  0.00    -0.374 N 
HETATM   44  C12 UNL     1      43.276  -7.625  39.823  1.00  0.00     0.100 A 
ATOM     45  H4  UNL     1      44.975  -8.500  40.567  1.00  0.00     0.164 HD
ENDBRANCH   8  39
TORSDOF 3
ENDMDL
MODEL 2
REMARK VINA RESULT: -10.129404641      0.667      1.112
REMARK  3 active torsions:
REMARK  status: ('A' for Active; 'I' for Inactive)
REMARK    1  A    between atoms: N1_1  and  C1_4 
REMARK    2  A    between atoms: C2_7  and  C3_8 
REMARK    3  A    between atoms: C7_15  and  C8_16 
ROOT
HETATM    1  C3  UNL     1      37.748  -8.647  36.602  1.00  0.00     0.048 C 
HETATM    2  C4  UNL     1      38.714  -8.488  37.482  1.00  0.00     0.049 A 
HETATM    3  C5  UNL     1      39.174  -9.408  38.508  1.00  0.00     0.257 A 
HETATM    4  O1  UNL     1      38.729 -10.559  38.743  1.00  0.00    -0.267 OA
HETATM    5  N3  UNL     1      40.240  -8.760  39.209  1.00  0.00    -0.321 N 
ATOM      6  H3  UNL     1      40.767  -9.153  39.989  1.00  0.00     0.169 HD
HETATM    7  C6  UNL     1      40.438  -7.478  38.636  1.00  0.00     0.059 A 
HETATM    8  C7  UNL     1      41.386  -6.513  39.030  1.00  0.00     0.004 A 
HETATM    9  C13 UNL     1      41.406  -5.329  38.343  1.00  0.00     0.031 A 
HETATM   10  C14 UNL     1      40.533  -5.088  37.307  1.00  0.00     0.029 A 
HETATM   11  C15 UNL     1      39.601  -6.062  36.934  1.00  0.00     0.059 A 
HETATM   12  N5  UNL     1      38.925  -5.524  35.935  1.00  0.00    -0.352 N 
ATOM     13  H5  UNL     1      38.166  -5.997  35.444  1.00  0.00     0.166 HD
HETATM   14  C16 UNL     1      39.355  -4.261  35.629  1.00  0.00     0.069 A 
HETATM   15  C17 UNL     1      38.945  -3.346  34.680  1.00  0.00     0.051 A 
HETATM   16  C18 UNL     1      39.579  -2.129  34.609  1.00  0.00     0.052 A 
HETATM   17  C19 UNL     1      39.184  -1.132  33.641  1.00  0.00    -0.020 A 
HETATM   18  C20 UNL     1      39.031   0.208  33.958  1.00  0.00     0.012 A 
HETATM   19  C21 UNL     1      38.651   1.173  33.048  1.00  0.00     0.001 A 
HETATM   20  C22 UNL     1      38.408   0.777  31.747  1.00  0.00     0.000 A 
HETATM   21  C23 UNL     1      38.544  -0.548  31.373  1.00  0.00     0.001 A 
HETATM   22  C24 UNL     1      38.923  -1.469  32.310  1.00  0.00     0.012 A 
HETATM   23  C25 UNL     1      40.595  -1.898  35.501  1.00  0.00     0.299 A 
HETATM   24  O2  UNL     1      41.209  -0.801  35.476  1.00  0.00    -0.259 OA
HETATM   25  O3  UNL     1      40.959  -2.802  36.397  1.00  0.00    -0.272 OA
HETATM   26  C26 UNL     1      40.377  -3.982  36.499  1.00  0.00     0.118 A 
HETATM   27  C27 UNL     1      39.551  -7.287  37.615  1.00  0.00     0.035 A 
ENDROOT
BRANCH   1  28
HETATM   28  C2  UNL     1      36.898  -9.840  36.477  1.00  0.00     0.051 A 
HETATM   29  N2  UNL     1      35.790  -9.967  37.209  1.00  0.00    -0.192 N 
HETATM   30  C1  UNL     1      35.033 -11.071  37.090  1.00  0.00     0.676 A 
ATOM     31  H2  UNL     1      35.518  -9.227  37.857  1.00  0.00     0.184 HD
HETATM   32  N6  UNL     1      35.359 -12.060  36.251  1.00  0.00    -0.202 N 
HETATM   33  C29 UNL     1      36.463 -11.962  35.506  1.00  0.00     0.108 A 
ATOM     34  H6  UNL     1      34.767 -12.888  36.182  1.00  0.00     0.183 HD
HETATM   35  C28 UNL     1      37.253 -10.855  35.602  1.00  0.00     0.047 A 
BRANCH  30  36
HETATM   36  N1  UNL     1      33.963 -11.194  37.796  1.00  0.00    -0.234 N 
ATOM     37  H12 UNL     1      33.674 -10.410  38.381  1.00  0.00     0.174 HD
ATOM     38  H11 UNL     1      33.427 -12.062  37.759  1.00  0.00     0.174 HD
ENDBRANCH  30  36
ENDBRANCH   1  28
BRANCH   8  39
HETATM   39  C8  UNL     1      42.324  -6.761  40.107  1.00  0.00    -0.008 A 
HETATM   40  C9  UNL     1      42.198  -6.178  41.352  1.00  0.00     0.015 A 
HETATM   41  C10 UNL     1      43.124  -6.444  42.338  1.00  0.00     0.018 A 
HETATM   42  C11 UNL     1      44.169  -7.300  42.045  1.00  0.00     0.087 A 
HETATM   43  N4  UNL     1      44.293  -7.868  40.833  1.00  0.00    -0.374 N 
HETATM   44  C12 UNL     1      43.390  -7.607  39.877  1.00  0.00     0.100 A 
ATOM     45  H4  UNL     1      45.074  -8.496  40.641  1.00  0.00     0.164 HD
ENDBRANCH   8  39
TORSDOF 3
ENDMDL
MODEL 3
REMARK VINA RESULT: -9.247246998      4.051      6.004
REMARK  3 active torsions:
REMARK  status: ('A' for Active; 'I' for Inactive)
REMARK    1  A    between atoms: N1_1  and  C1_4 
REMARK    2  A    between atoms: C2_7  and  C3_8 
REMARK    3  A    between atoms: C7_15  and  C8_16 
ROOT
HETATM    1  C3  UNL     1      42.345  -9.426  33.804  1.00  0.00     0.048 C 
HETATM    2  C4  UNL     1      41.238  -9.758  34.435  1.00  0.00     0.049 A 
HETATM    3  C5  UNL     1      40.629 -11.069  34.581  1.00  0.00     0.257 A 
HETATM    4  O1  UNL     1      41.064 -12.157  34.128  1.00  0.00    -0.267 OA
HETATM    5  N3  UNL     1      39.432 -10.896  35.345  1.00  0.00    -0.321 N 
ATOM      6  H3  UNL     1      38.783 -11.636  35.614  1.00  0.00     0.169 HD
HETATM    7  C6  UNL     1      39.302  -9.520  35.667  1.00  0.00     0.059 A 
HETATM    8  C7  UNL     1      38.263  -8.920  36.405  1.00  0.00     0.004 A 
HETATM    9  C13 UNL     1      38.324  -7.566  36.596  1.00  0.00     0.031 A 
HETATM   10  C14 UNL     1      39.361  -6.818  36.088  1.00  0.00     0.029 A 
HETATM   11  C15 UNL     1      40.382  -7.437  35.358  1.00  0.00     0.059 A 
HETATM   12  N5  UNL     1      41.199  -6.458  35.014  1.00  0.00    -0.352 N 
ATOM     13  H5  UNL     1      42.049  -6.596  34.467  1.00  0.00     0.166 HD
HETATM   14  C16 UNL     1      40.780  -5.238  35.470  1.00  0.00     0.069 A 
HETATM   15  C17 UNL     1      41.310  -3.969  35.348  1.00  0.00     0.051 A 
HETATM   16  C18 UNL     1      40.651  -2.912  35.925  1.00  0.00     0.052 A 
HETATM   17  C19 UNL     1      41.158  -1.563  35.820  1.00  0.00    -0.020 A 
HETATM   18  C20 UNL     1      40.351  -0.475  35.525  1.00  0.00     0.012 A 
HETATM   19  C21 UNL     1      40.818   0.818  35.416  1.00  0.00     0.001 A 
HETATM   20  C22 UNL     1      42.168   1.039  35.612  1.00  0.00     0.000 A 
HETATM   21  C23 UNL     1      43.021  -0.009  35.909  1.00  0.00     0.001 A 
HETATM   22  C24 UNL     1      42.512  -1.275  36.006  1.00  0.00     0.012 A 
HETATM   23  C25 UNL     1      39.488  -3.190  36.598  1.00  0.00     0.299 A 
HETATM   24  O2  UNL     1      38.847  -2.257  37.147  1.00  0.00    -0.259 OA
HETATM   25  O3  UNL     1      39.012  -4.420  36.694  1.00  0.00    -0.272 OA
HETATM   26  C26 UNL     1      39.613  -5.464  36.153  1.00  0.00     0.118 A 
HETATM   27  C27 UNL     1      40.352  -8.822  35.141  1.00  0.00     0.035 A 
ENDROOT
BRANCH   1  28
HETATM   28  C2  UNL     1      43.225 -10.357  33.082  1.00  0.00     0.051 A 
HETATM   29  N2  UNL     1      44.060 -11.159  33.745  1.00  0.00    -0.192 N 
HETATM   30  C1  UNL     1      44.866 -11.992  33.065  1.00  0.00     0.676 A 
ATOM     31  H2  UNL     1      44.086 -11.140  34.764  1.00  0.00     0.184 HD
HETATM   32  N6  UNL     1      44.859 -12.044  31.728  1.00  0.00    -0.202 N 
HETATM   33  C29 UNL     1      44.035 -11.253  31.038  1.00  0.00     0.108 A 
ATOM     34  H6  UNL     1      45.482 -12.686  31.238  1.00  0.00     0.183 HD
HETATM   35  C28 UNL     1      43.204 -10.395  31.696  1.00  0.00     0.047 A 
BRANCH  30  36
HETATM   36  N1  UNL     1      45.672 -12.768  33.704  1.00  0.00    -0.234 N 
ATOM     37  H12 UNL     1      45.454 -13.002  34.673  1.00  0.00     0.174 HD
ATOM     38  H11 UNL     1      46.503 -13.131  33.238  1.00  0.00     0.174 HD
ENDBRANCH  30  36
ENDBRANCH   1  28
BRANCH   8  39
HETATM   39  C8  UNL     1      37.175  -9.699  36.962  1.00  0.00    -0.008 A 
HETATM   40  C9  UNL     1      37.141 -10.086  38.288  1.00  0.00     0.015 A 
HETATM   41  C10 UNL     1      36.085 -10.833  38.764  1.00  0.00     0.018 A 
HETATM   42  C11 UNL     1      35.074 -11.178  37.885  1.00  0.00     0.087 A 
HETATM   43  N4  UNL     1      35.107 -10.802  36.596  1.00  0.00    -0.374 N 
HETATM   44  C12 UNL     1      36.136 -10.075  36.137  1.00  0.00     0.100 A 
ATOM     45  H4  UNL     1      34.349 -11.069  35.967  1.00  0.00     0.164 HD
ENDBRANCH   8  39
TORSDOF 3
ENDMDL
MODEL 4
REMARK VINA RESULT: -8.876779760      2.425      6.702
REMARK  3 active torsions:
REMARK  status: ('A' for Active; 'I' for Inactive)
REMARK    1  A    between atoms: N1_1  and  C1_4 
REMARK    2  A    between atoms: C2_7  and  C3_8 
REMARK    3  A    between atoms: C7_15  and  C8_16 
ROOT
HETATM    1  C3  UNL     1      43.496  -6.494  40.927  1.00  0.00     0.048 C 
HETATM    2  C4  UNL     1      42.450  -7.247  40.658  1.00  0.00     0.049 A 
HETATM    3  C5  UNL     1      42.014  -8.470  41.311  1.00  0.00     0.257 A 
HETATM    4  O1  UNL     1      42.564  -9.043  42.283  1.00  0.00    -0.267 OA
HETATM    5  N3  UNL     1      40.828  -8.907  40.639  1.00  0.00    -0.321 N 
ATOM      6  H3  UNL     1      40.286  -9.740  40.867  1.00  0.00     0.169 HD
HETATM    7  C6  UNL     1      40.535  -7.984  39.602  1.00  0.00     0.059 A 
HETATM    8  C7  UNL     1      39.456  -8.043  38.699  1.00  0.00     0.004 A 
HETATM    9  C13 UNL     1      39.360  -7.047  37.764  1.00  0.00     0.031 A 
HETATM   10  C14 UNL     1      40.282  -6.027  37.707  1.00  0.00     0.029 A 
HETATM   11  C15 UNL     1      41.345  -5.991  38.615  1.00  0.00     0.059 A 
HETATM   12  N5  UNL     1      42.035  -4.912  38.291  1.00  0.00    -0.352 N 
ATOM     13  H5  UNL     1      42.880  -4.613  38.779  1.00  0.00     0.166 HD
HETATM   14  C16 UNL     1      41.493  -4.240  37.229  1.00  0.00     0.069 A 
HETATM   15  C17 UNL     1      41.874  -3.090  36.567  1.00  0.00     0.051 A 
HETATM   16  C18 UNL     1      41.116  -2.647  35.511  1.00  0.00     0.052 A 
HETATM   17  C19 UNL     1      41.474  -1.455  34.777  1.00  0.00    -0.020 A 
HETATM   18  C20 UNL     1      41.449  -1.385  33.394  1.00  0.00     0.012 A 
HETATM   19  C21 UNL     1      41.792  -0.257  32.677  1.00  0.00     0.001 A 
HETATM   20  C22 UNL     1      42.183   0.866  33.382  1.00  0.00     0.000 A 
HETATM   21  C23 UNL     1      42.227   0.853  34.764  1.00  0.00     0.001 A 
HETATM   22  C24 UNL     1      41.878  -0.289  35.432  1.00  0.00     0.012 A 
HETATM   23  C25 UNL     1      40.010  -3.388  35.177  1.00  0.00     0.299 A 
HETATM   24  O2  UNL     1      39.281  -3.024  34.219  1.00  0.00    -0.259 OA
HETATM   25  O3  UNL     1      39.678  -4.486  35.837  1.00  0.00    -0.272 OA
HETATM   26  C26 UNL     1      40.379  -4.947  36.857  1.00  0.00     0.118 A 
HETATM   27  C27 UNL     1      41.476  -6.993  39.587  1.00  0.00     0.035 A 
ENDROOT
BRANCH   1  28
HETATM   28  C2  UNL     1      44.483  -6.754  41.986  1.00  0.00     0.051 A 
HETATM   29  N2  UNL     1      45.272  -7.828  41.934  1.00  0.00    -0.192 N 
HETATM   30  C1  UNL     1      46.158  -8.054  42.920  1.00  0.00     0.676 A 
ATOM     31  H2  UNL     1      45.204  -8.475  41.149  1.00  0.00     0.184 HD
HETATM   32  N6  UNL     1      46.274  -7.228  43.965  1.00  0.00    -0.202 N 
HETATM   33  C29 UNL     1      45.497  -6.145  44.044  1.00  0.00     0.108 A 
ATOM     34  H6  UNL     1      46.955  -7.424  44.699  1.00  0.00     0.183 HD
HETATM   35  C28 UNL     1      44.588  -5.885  43.062  1.00  0.00     0.047 A 
BRANCH  30  36
HETATM   36  N1  UNL     1      46.921  -9.090  42.869  1.00  0.00    -0.234 N 
ATOM     37  H12 UNL     1      46.625  -9.936  43.356  1.00  0.00     0.174 HD
ATOM     38  H11 UNL     1      47.800  -9.049  42.351  1.00  0.00     0.174 HD
ENDBRANCH  30  36
ENDBRANCH   1  28
BRANCH   8  39
HETATM   39  C8  UNL     1      38.467  -9.100  38.760  1.00  0.00    -0.008 A 
HETATM   40  C9  UNL     1      37.557  -9.208  39.793  1.00  0.00     0.015 A 
HETATM   41  C10 UNL     1      36.642 -10.240  39.805  1.00  0.00     0.018 A 
HETATM   42  C11 UNL     1      36.664 -11.150  38.764  1.00  0.00     0.087 A 
HETATM   43  N4  UNL     1      37.550 -11.046  37.759  1.00  0.00    -0.374 N 
HETATM   44  C12 UNL     1      38.438 -10.042  37.752  1.00  0.00     0.100 A 
ATOM     45  H4  UNL     1      37.547 -11.731  37.003  1.00  0.00     0.164 HD
ENDBRANCH   8  39
TORSDOF 3
ENDMDL
MODEL 5
REMARK VINA RESULT: -8.713561882      1.909      6.350
REMARK  3 active torsions:
REMARK  status: ('A' for Active; 'I' for Inactive)
REMARK    1  A    between atoms: N1_1  and  C1_4 
REMARK    2  A    between atoms: C2_7  and  C3_8 
REMARK    3  A    between atoms: C7_15  and  C8_16 
ROOT
HETATM    1  C3  UNL     1      42.296  -6.894  39.417  1.00  0.00     0.048 C 
HETATM    2  C4  UNL     1      41.578  -7.782  38.761  1.00  0.00     0.049 A 
HETATM    3  C5  UNL     1      41.669  -9.231  38.791  1.00  0.00     0.257 A 
HETATM    4  O1  UNL     1      42.464  -9.923  39.474  1.00  0.00    -0.267 OA
HETATM    5  N3  UNL     1      40.675  -9.735  37.893  1.00  0.00    -0.321 N 
ATOM      6  H3  UNL     1      40.492 -10.719  37.695  1.00  0.00     0.169 HD
HETATM    7  C6  UNL     1      39.986  -8.632  37.324  1.00  0.00     0.059 A 
HETATM    8  C7  UNL     1      38.936  -8.685  36.387  1.00  0.00     0.004 A 
HETATM    9  C13 UNL     1      38.411  -7.495  35.958  1.00  0.00     0.031 A 
HETATM   10  C14 UNL     1      38.892  -6.293  36.423  1.00  0.00     0.029 A 
HETATM   11  C15 UNL     1      39.936  -6.267  37.353  1.00  0.00     0.059 A 
HETATM   12  N5  UNL     1      40.160  -4.985  37.581  1.00  0.00    -0.352 N 
ATOM     13  H5  UNL     1      40.873  -4.640  38.224  1.00  0.00     0.166 HD
HETATM   14  C16 UNL     1      39.329  -4.170  36.860  1.00  0.00     0.069 A 
HETATM   15  C17 UNL     1      39.213  -2.796  36.786  1.00  0.00     0.051 A 
HETATM   16  C18 UNL     1      38.266  -2.251  35.953  1.00  0.00     0.052 A 
HETATM   17  C19 UNL     1      38.108  -0.820  35.831  1.00  0.00    -0.020 A 
HETATM   18  C20 UNL     1      37.952  -0.180  34.612  1.00  0.00     0.012 A 
HETATM   19  C21 UNL     1      37.804   1.184  34.476  1.00  0.00     0.001 A 
HETATM   20  C22 UNL     1      37.814   1.956  35.623  1.00  0.00     0.000 A 
HETATM   21  C23 UNL     1      37.967   1.371  36.867  1.00  0.00     0.001 A 
HETATM   22  C24 UNL     1      38.110   0.013  36.952  1.00  0.00     0.012 A 
HETATM   23  C25 UNL     1      37.483  -3.122  35.238  1.00  0.00     0.299 A 
HETATM   24  O2  UNL     1      36.600  -2.674  34.464  1.00  0.00    -0.259 OA
HETATM   25  O3  UNL     1      37.625  -4.434  35.338  1.00  0.00    -0.272 OA
HETATM   26  C26 UNL     1      38.523  -4.998  36.124  1.00  0.00     0.118 A 
HETATM   27  C27 UNL     1      40.498  -7.465  37.816  1.00  0.00     0.035 A 
ENDROOT
BRANCH   1  28
HETATM   28  C2  UNL     1      43.389  -7.206  40.351  1.00  0.00     0.051 A 
HETATM   29  N2  UNL     1      44.523  -7.757  39.914  1.00  0.00    -0.192 N 
HETATM   30  C1  UNL     1      45.504  -8.046  40.786  1.00  0.00     0.676 A 
ATOM     31  H2  UNL     1      44.645  -7.957  38.922  1.00  0.00     0.184 HD
HETATM   32  N6  UNL     1      45.378  -7.798  42.094  1.00  0.00    -0.202 N 
HETATM   33  C29 UNL     1      44.255  -7.248  42.561  1.00  0.00     0.108 A 
ATOM     34  H6  UNL     1      46.139  -8.029  42.734  1.00  0.00     0.183 HD
HETATM   35  C28 UNL     1      43.240  -6.941  41.704  1.00  0.00     0.047 A 
BRANCH  30  36
HETATM   36  N1  UNL     1      46.599  -8.577  40.365  1.00  0.00    -0.234 N 
ATOM     37  H12 UNL     1      47.369  -7.960  40.105  1.00  0.00     0.174 HD
ATOM     38  H11 UNL     1      46.679  -9.592  40.299  1.00  0.00     0.174 HD
ENDBRANCH  30  36
ENDBRANCH   1  28
BRANCH   8  39
HETATM   39  C8  UNL     1      38.407  -9.945  35.904  1.00  0.00    -0.008 A 
HETATM   40  C9  UNL     1      38.899 -10.574  34.777  1.00  0.00     0.015 A 
HETATM   41  C10 UNL     1      38.353 -11.769  34.358  1.00  0.00     0.018 A 
HETATM   42  C11 UNL     1      37.311 -12.310  35.090  1.00  0.00     0.087 A 
HETATM   43  N4  UNL     1      36.832 -11.697  36.186  1.00  0.00    -0.374 N 
HETATM   44  C12 UNL     1      37.366 -10.536  36.590  1.00  0.00     0.100 A 
ATOM     45  H4  UNL     1      36.062 -12.115  36.709  1.00  0.00     0.164 HD
ENDBRANCH   8  39
TORSDOF 3
ENDMDL
