MODEL 1
REMARK VINA RESULT: -7.962641200      0.000      0.000
REMARK  2 active torsions:
REMARK  status: ('A' for Active; 'I' for Inactive)
REMARK    1  A    between atoms: C2_2  and  C4_4 
REMARK    2  A    between atoms: C4_4  and  C5_5 
ROOT
HETATM    1  C5  UNL     1      38.593 -10.500  35.582  1.00  0.00     0.277 C 
HETATM    2  N1  UNL     1      39.857 -11.042  35.196  1.00  0.00    -0.062 N 
ATOM      3  H11 UNL     1      39.912 -12.030  35.445  1.00  0.00     0.278 HD
ATOM      4  H12 UNL     1      40.599 -10.673  35.790  1.00  0.00     0.278 HD
HETATM    5  C6  UNL     1      40.183 -10.854  33.804  1.00  0.00     0.233 C 
HETATM    6  C7  UNL     1      41.427 -11.668  33.519  1.00  0.00     0.027 C 
HETATM    7  C8  UNL     1      41.401 -12.268  32.133  1.00  0.00     0.002 C 
HETATM    8  C9  UNL     1      41.728 -11.261  31.075  1.00  0.00     0.000 C 
HETATM    9  C10 UNL     1      42.922 -10.410  31.437  1.00  0.00     0.000 C 
HETATM   10  C11 UNL     1      43.479  -9.834  30.159  1.00  0.00     0.000 C 
HETATM   11  C12 UNL     1      44.740  -9.084  30.513  1.00  0.00     0.000 C 
HETATM   12  C13 UNL     1      44.348  -7.728  31.056  1.00  0.00     0.002 C 
HETATM   13  C14 UNL     1      45.217  -6.630  30.469  1.00  0.00     0.027 C 
HETATM   14  C15 UNL     1      46.234  -6.140  31.481  1.00  0.00     0.232 C 
HETATM   15  N2  UNL     1      46.038  -4.728  31.721  1.00  0.00    -0.074 N 
ATOM     16  H21 UNL     1      46.246  -4.179  30.886  1.00  0.00     0.277 HD
ATOM     17  H22 UNL     1      46.757  -4.355  32.342  1.00  0.00     0.277 HD
HETATM   18  C16 UNL     1      44.709  -4.440  32.222  1.00  0.00     0.259 C 
HETATM   19  C17 UNL     1      44.779  -4.122  33.701  1.00  0.00     0.259 C 
HETATM   20  N3  UNL     1      43.849  -3.058  33.965  1.00  0.00    -0.073 N 
ATOM     21  H31 UNL     1      43.499  -2.655  33.095  1.00  0.00     0.277 HD
ATOM     22  H32 UNL     1      44.328  -2.241  34.346  1.00  0.00     0.277 HD
HETATM   23  C18 UNL     1      42.754  -3.464  34.824  1.00  0.00     0.236 C 
HETATM   24  C19 UNL     1      41.541  -3.869  34.000  1.00  0.00     0.054 C 
HETATM   25  C20 UNL     1      40.594  -2.737  34.021  1.00  0.00    -0.023 C 
HETATM   26  C21 UNL     1      39.929  -2.274  35.028  1.00  0.00     0.026 C 
HETATM   27  C22 UNL     1      39.979  -2.801  36.423  1.00  0.00     0.038 A 
HETATM   28  C23 UNL     1      39.895  -2.066  37.608  1.00  0.00     0.081 A 
HETATM   29  S1  UNL     1      40.020  -3.293  38.789  1.00  0.00    -0.086 SA
HETATM   30  C24 UNL     1      40.168  -4.637  37.750  1.00  0.00     0.051 A 
HETATM   31  N4  UNL     1      40.114  -4.079  36.562  1.00  0.00    -0.354 N 
ATOM     32  H4  UNL     1      40.179  -4.667  35.732  1.00  0.00     0.166 HD
HETATM   33  C25 UNL     1      40.326  -6.130  37.916  1.00  0.00     0.066 C 
HETATM   34  C26 UNL     1      39.123  -6.853  37.354  1.00  0.00     0.026 C 
HETATM   35  C27 UNL     1      39.601  -7.673  36.162  1.00  0.00     0.123 C 
HETATM   36  N5  UNL     1      38.513  -7.987  35.257  1.00  0.00    -0.359 N 
ATOM     37  H5  UNL     1      37.896  -7.232  34.957  1.00  0.00     0.162 HD
HETATM   38  C28 UNL     1      38.269  -9.300  34.768  1.00  0.00     0.248 C 
HETATM   39  O1  UNL     1      37.769  -9.478  33.628  1.00  0.00    -0.271 OA
ENDROOT
BRANCH   1  40
HETATM   40  C4  UNL     1      37.454 -11.455  35.461  1.00  0.00     0.046 C 
BRANCH  40  41
HETATM   41  C2  UNL     1      36.531 -11.453  36.658  1.00  0.00    -0.020 C 
HETATM   42  C1  UNL     1      37.355 -10.898  37.826  1.00  0.00     0.009 C 
HETATM   43  C3  UNL     1      35.334 -10.579  36.488  1.00  0.00     0.009 C 
ENDBRANCH  40  41
ENDBRANCH   1  40
TORSDOF 2
ENDMDL
MODEL 2
REMARK VINA RESULT: -7.629098911      0.958      1.182
REMARK  2 active torsions:
REMARK  status: ('A' for Active; 'I' for Inactive)
REMARK    1  A    between atoms: C2_2  and  C4_4 
REMARK    2  A    between atoms: C4_4  and  C5_5 
ROOT
HETATM    1  C5  UNL     1      38.642  -9.983  36.106  1.00  0.00     0.277 C 
HETATM    2  N1  UNL     1      39.862 -10.622  35.727  1.00  0.00    -0.062 N 
ATOM      3  H11 UNL     1      39.936 -11.540  36.168  1.00  0.00     0.278 HD
ATOM      4  H12 UNL     1      40.659 -10.156  36.162  1.00  0.00     0.278 HD
HETATM    5  C6  UNL     1      40.057 -10.731  34.302  1.00  0.00     0.233 C 
HETATM    6  C7  UNL     1      41.266 -11.615  34.079  1.00  0.00     0.027 C 
HETATM    7  C8  UNL     1      41.107 -12.485  32.855  1.00  0.00     0.002 C 
HETATM    8  C9  UNL     1      41.338 -11.724  31.587  1.00  0.00     0.000 C 
HETATM    9  C10 UNL     1      42.564 -10.845  31.656  1.00  0.00     0.000 C 
HETATM   10  C11 UNL     1      43.002 -10.556  30.241  1.00  0.00     0.000 C 
HETATM   11  C12 UNL     1      44.293  -9.779  30.317  1.00  0.00     0.000 C 
HETATM   12  C13 UNL     1      43.960  -8.332  30.603  1.00  0.00     0.002 C 
HETATM   13  C14 UNL     1      44.774  -7.398  29.725  1.00  0.00     0.027 C 
HETATM   14  C15 UNL     1      45.883  -6.735  30.517  1.00  0.00     0.232 C 
HETATM   15  N2  UNL     1      45.717  -5.300  30.478  1.00  0.00    -0.074 N 
ATOM     16  H21 UNL     1      45.847  -4.938  29.533  1.00  0.00     0.277 HD
ATOM     17  H22 UNL     1      46.492  -4.825  30.941  1.00  0.00     0.277 HD
HETATM   18  C16 UNL     1      44.442  -4.885  31.028  1.00  0.00     0.259 C 
HETATM   19  C17 UNL     1      44.651  -4.272  32.397  1.00  0.00     0.259 C 
HETATM   20  N3  UNL     1      43.754  -3.155  32.519  1.00  0.00    -0.073 N 
ATOM     21  H31 UNL     1      43.326  -2.931  31.620  1.00  0.00     0.277 HD
ATOM     22  H32 UNL     1      44.270  -2.289  32.679  1.00  0.00     0.277 HD
HETATM   23  C18 UNL     1      42.743  -3.351  33.539  1.00  0.00     0.236 C 
HETATM   24  C19 UNL     1      41.456  -3.888  32.931  1.00  0.00     0.054 C 
HETATM   25  C20 UNL     1      40.520  -2.754  32.803  1.00  0.00    -0.023 C 
HETATM   26  C21 UNL     1      39.955  -2.079  33.750  1.00  0.00     0.026 C 
HETATM   27  C22 UNL     1      40.133  -2.309  35.213  1.00  0.00     0.038 A 
HETATM   28  C23 UNL     1      40.164  -1.346  36.223  1.00  0.00     0.081 A 
HETATM   29  S1  UNL     1      40.393  -2.307  37.616  1.00  0.00    -0.086 SA
HETATM   30  C24 UNL     1      40.437  -3.839  36.867  1.00  0.00     0.051 A 
HETATM   31  N4  UNL     1      40.275  -3.535  35.600  1.00  0.00    -0.354 N 
ATOM     32  H4  UNL     1      40.260  -4.282  34.906  1.00  0.00     0.166 HD
HETATM   33  C25 UNL     1      40.604  -5.270  37.323  1.00  0.00     0.066 C 
HETATM   34  C26 UNL     1      39.351  -6.064  37.033  1.00  0.00     0.026 C 
HETATM   35  C27 UNL     1      39.712  -7.122  35.997  1.00  0.00     0.123 C 
HETATM   36  N5  UNL     1      38.543  -7.589  35.279  1.00  0.00    -0.359 N 
ATOM     37  H5  UNL     1      37.903  -6.898  34.887  1.00  0.00     0.162 HD
HETATM   38  C28 UNL     1      38.248  -8.968  35.095  1.00  0.00     0.248 C 
HETATM   39  O1  UNL     1      37.643  -9.364  34.066  1.00  0.00    -0.271 OA
ENDROOT
BRANCH   1  40
HETATM   40  C4  UNL     1      37.493 -10.916  36.289  1.00  0.00     0.046 C 
BRANCH  40  41
HETATM   41  C2  UNL     1      36.483 -10.442  37.307  1.00  0.00    -0.020 C 
HETATM   42  C1  UNL     1      35.124 -10.462  36.597  1.00  0.00     0.009 C 
HETATM   43  C3  UNL     1      36.384 -11.324  38.507  1.00  0.00     0.009 C 
ENDBRANCH  40  41
ENDBRANCH   1  40
TORSDOF 2
ENDMDL
MODEL 3
REMARK VINA RESULT: -7.230194847      1.828      2.127
REMARK  2 active torsions:
REMARK  status: ('A' for Active; 'I' for Inactive)
REMARK    1  A    between atoms: C2_2  and  C4_4 
REMARK    2  A    between atoms: C4_4  and  C5_5 
ROOT
HETATM    1  C5  UNL     1      39.133  -9.958  36.454  1.00  0.00     0.277 C 
HETATM    2  N1  UNL     1      40.467 -10.393  36.717  1.00  0.00    -0.062 N 
ATOM      3  H11 UNL     1      40.466 -11.168  37.382  1.00  0.00     0.278 HD
ATOM      4  H12 UNL     1      40.969  -9.695  37.266  1.00  0.00     0.278 HD
HETATM    5  C6  UNL     1      41.220 -10.744  35.538  1.00  0.00     0.233 C 
HETATM    6  C7  UNL     1      42.511 -11.384  36.001  1.00  0.00     0.027 C 
HETATM    7  C8  UNL     1      42.949 -12.497  35.078  1.00  0.00     0.002 C 
HETATM    8  C9  UNL     1      43.573 -11.975  33.821  1.00  0.00     0.000 C 
HETATM    9  C10 UNL     1      44.563 -10.866  34.085  1.00  0.00     0.000 C 
HETATM   10  C11 UNL     1      45.487 -10.783  32.895  1.00  0.00     0.000 C 
HETATM   11  C12 UNL     1      46.546  -9.756  33.215  1.00  0.00     0.000 C 
HETATM   12  C13 UNL     1      45.963  -8.382  32.969  1.00  0.00     0.002 C 
HETATM   13  C14 UNL     1      46.945  -7.496  32.224  1.00  0.00     0.027 C 
HETATM   14  C15 UNL     1      47.568  -6.472  33.151  1.00  0.00     0.232 C 
HETATM   15  N2  UNL     1      47.267  -5.140  32.677  1.00  0.00    -0.074 N 
ATOM     16  H21 UNL     1      47.718  -4.957  31.780  1.00  0.00     0.277 HD
ATOM     17  H22 UNL     1      47.737  -4.431  33.241  1.00  0.00     0.277 HD
HETATM   18  C16 UNL     1      45.840  -4.896  32.608  1.00  0.00     0.259 C 
HETATM   19  C17 UNL     1      45.421  -3.991  33.747  1.00  0.00     0.259 C 
HETATM   20  N3  UNL     1      44.427  -3.083  33.242  1.00  0.00    -0.073 N 
ATOM     21  H31 UNL     1      44.366  -3.138  32.225  1.00  0.00     0.277 HD
ATOM     22  H32 UNL     1      44.735  -2.115  33.338  1.00  0.00     0.277 HD
HETATM   23  C18 UNL     1      43.125  -3.275  33.850  1.00  0.00     0.236 C 
HETATM   24  C19 UNL     1      42.254  -4.178  32.990  1.00  0.00     0.054 C 
HETATM   25  C20 UNL     1      41.320  -3.312  32.243  1.00  0.00    -0.023 C 
HETATM   26  C21 UNL     1      40.354  -2.592  32.712  1.00  0.00     0.026 C 
HETATM   27  C22 UNL     1      39.966  -2.482  34.149  1.00  0.00     0.038 A 
HETATM   28  C23 UNL     1      39.485  -1.349  34.809  1.00  0.00     0.081 A 
HETATM   29  S1  UNL     1      39.255  -1.943  36.394  1.00  0.00    -0.086 SA
HETATM   30  C24 UNL     1      39.766  -3.550  36.144  1.00  0.00     0.051 A 
HETATM   31  N4  UNL     1      40.083  -3.548  34.870  1.00  0.00    -0.354 N 
ATOM     32  H4  UNL     1      40.428  -4.406  34.441  1.00  0.00     0.166 HD
HETATM   33  C25 UNL     1      39.902  -4.794  36.992  1.00  0.00     0.066 C 
HETATM   34  C26 UNL     1      38.965  -5.873  36.498  1.00  0.00     0.026 C 
HETATM   35  C27 UNL     1      39.823  -7.019  35.978  1.00  0.00     0.123 C 
HETATM   36  N5  UNL     1      39.095  -7.852  35.043  1.00  0.00    -0.359 N 
ATOM     37  H5  UNL     1      38.587  -7.402  34.281  1.00  0.00     0.162 HD
HETATM   38  C28 UNL     1      39.056  -9.271  35.139  1.00  0.00     0.248 C 
HETATM   39  O1  UNL     1      38.956  -9.983  34.107  1.00  0.00    -0.271 OA
ENDROOT
BRANCH   1  40
HETATM   40  C4  UNL     1      38.120 -11.053  36.458  1.00  0.00     0.046 C 
BRANCH  40  41
HETATM   41  C2  UNL     1      36.758 -10.617  36.948  1.00  0.00    -0.020 C 
HETATM   42  C1  UNL     1      35.747 -11.555  36.276  1.00  0.00     0.009 C 
HETATM   43  C3  UNL     1      36.586 -10.743  38.425  1.00  0.00     0.009 C 
ENDBRANCH  40  41
ENDBRANCH   1  40
TORSDOF 2
ENDMDL
MODEL 4
REMARK VINA RESULT: -7.124542884      1.711      2.064
REMARK  2 active torsions:
REMARK  status: ('A' for Active; 'I' for Inactive)
REMARK    1  A    between atoms: C2_2  and  C4_4 
REMARK    2  A    between atoms: C4_4  and  C5_5 
ROOT
HETATM    1  C5  UNL     1      39.664  -9.679  37.937  1.00  0.00     0.277 C 
HETATM    2  N1  UNL     1      40.979 -10.131  37.615  1.00  0.00    -0.062 N 
ATOM      3  H11 UNL     1      41.237 -10.926  38.201  1.00  0.00     0.278 HD
ATOM      4  H12 UNL     1      41.676  -9.454  37.926  1.00  0.00     0.278 HD
HETATM    5  C6  UNL     1      41.172 -10.449  36.222  1.00  0.00     0.233 C 
HETATM    6  C7  UNL     1      42.527 -11.113  36.094  1.00  0.00     0.027 C 
HETATM    7  C8  UNL     1      42.525 -12.199  35.044  1.00  0.00     0.002 C 
HETATM    8  C9  UNL     1      42.586 -11.642  33.656  1.00  0.00     0.000 C 
HETATM    9  C10 UNL     1      43.617 -10.548  33.517  1.00  0.00     0.000 C 
HETATM   10  C11 UNL     1      43.971 -10.434  32.055  1.00  0.00     0.000 C 
HETATM   11  C12 UNL     1      45.087  -9.425  31.937  1.00  0.00     0.000 C 
HETATM   12  C13 UNL     1      44.481  -8.040  31.989  1.00  0.00     0.002 C 
HETATM   13  C14 UNL     1      45.086  -7.137  30.928  1.00  0.00     0.027 C 
HETATM   14  C15 UNL     1      46.055  -6.147  31.543  1.00  0.00     0.232 C 
HETATM   15  N2  UNL     1      45.611  -4.799  31.269  1.00  0.00    -0.074 N 
ATOM     16  H21 UNL     1      45.656  -4.591  30.271  1.00  0.00     0.277 HD
ATOM     17  H22 UNL     1      46.285  -4.112  31.608  1.00  0.00     0.277 HD
HETATM   18  C16 UNL     1      44.287  -4.543  31.801  1.00  0.00     0.259 C 
HETATM   19  C17 UNL     1      44.392  -3.672  33.034  1.00  0.00     0.259 C 
HETATM   20  N3  UNL     1      43.296  -2.742  33.008  1.00  0.00    -0.073 N 
ATOM     21  H31 UNL     1      42.820  -2.764  32.106  1.00  0.00     0.277 HD
ATOM     22  H32 UNL     1      43.635  -1.779  32.994  1.00  0.00     0.277 HD
HETATM   23  C18 UNL     1      42.356  -2.944  34.094  1.00  0.00     0.236 C 
HETATM   24  C19 UNL     1      41.191  -3.813  33.646  1.00  0.00     0.054 C 
HETATM   25  C20 UNL     1      40.050  -2.918  33.373  1.00  0.00    -0.023 C 
HETATM   26  C21 UNL     1      39.377  -2.207  34.218  1.00  0.00     0.026 C 
HETATM   27  C22 UNL     1      39.617  -2.139  35.689  1.00  0.00     0.038 A 
HETATM   28  C23 UNL     1      39.472  -1.025  36.518  1.00  0.00     0.081 A 
HETATM   29  S1  UNL     1      39.904  -1.667  38.041  1.00  0.00    -0.086 SA
HETATM   30  C24 UNL     1      40.236  -3.269  37.561  1.00  0.00     0.051 A 
HETATM   31  N4  UNL     1      40.000  -3.229  36.270  1.00  0.00    -0.354 N 
ATOM     32  H4  UNL     1      40.121  -4.075  35.714  1.00  0.00     0.166 HD
HETATM   33  C25 UNL     1      40.685  -4.540  38.244  1.00  0.00     0.066 C 
HETATM   34  C26 UNL     1      39.607  -5.596  38.153  1.00  0.00     0.026 C 
HETATM   35  C27 UNL     1      40.153  -6.731  37.295  1.00  0.00     0.123 C 
HETATM   36  N5  UNL     1      39.088  -7.530  36.723  1.00  0.00    -0.359 N 
ATOM     37  H5  UNL     1      38.320  -7.052  36.250  1.00  0.00     0.162 HD
HETATM   38  C28 UNL     1      39.065  -8.950  36.789  1.00  0.00     0.248 C 
HETATM   39  O1  UNL     1      38.535  -9.628  35.872  1.00  0.00    -0.271 OA
ENDROOT
BRANCH   1  40
HETATM   40  C4  UNL     1      38.721 -10.766  38.330  1.00  0.00     0.046 C 
BRANCH  40  41
HETATM   41  C2  UNL     1      38.182 -10.624  39.735  1.00  0.00    -0.020 C 
HETATM   42  C1  UNL     1      36.779 -10.024  39.590  1.00  0.00     0.009 C 
HETATM   43  C3  UNL     1      38.052 -11.922  40.460  1.00  0.00     0.009 C 
ENDBRANCH  40  41
ENDBRANCH   1  40
TORSDOF 2
ENDMDL
MODEL 5
REMARK VINA RESULT: -6.886277024      1.087      1.452
REMARK  2 active torsions:
REMARK  status: ('A' for Active; 'I' for Inactive)
REMARK    1  A    between atoms: C2_2  and  C4_4 
REMARK    2  A    between atoms: C4_4  and  C5_5 
ROOT
HETATM    1  C5  UNL     1      39.750 -10.631  34.734  1.00  0.00     0.277 C 
HETATM    2  N1  UNL     1      41.085 -10.893  34.300  1.00  0.00    -0.062 N 
ATOM      3  H11 UNL     1      41.300 -11.887  34.386  1.00  0.00     0.278 HD
ATOM      4  H12 UNL     1      41.757 -10.512  34.965  1.00  0.00     0.278 HD
HETATM    5  C6  UNL     1      41.377 -10.428  32.966  1.00  0.00     0.233 C 
HETATM    6  C7  UNL     1      42.738 -10.973  32.586  1.00  0.00     0.027 C 
HETATM    7  C8  UNL     1      42.810 -11.334  31.121  1.00  0.00     0.002 C 
HETATM    8  C9  UNL     1      42.969 -10.127  30.250  1.00  0.00     0.000 C 
HETATM    9  C10 UNL     1      44.008  -9.166  30.778  1.00  0.00     0.000 C 
HETATM   10  C11 UNL     1      44.464  -8.305  29.626  1.00  0.00     0.000 C 
HETATM   11  C12 UNL     1      45.586  -7.431  30.131  1.00  0.00     0.000 C 
HETATM   12  C13 UNL     1      44.978  -6.264  30.877  1.00  0.00     0.002 C 
HETATM   13  C14 UNL     1      45.656  -4.959  30.499  1.00  0.00     0.027 C 
HETATM   14  C15 UNL     1      46.579  -4.485  31.604  1.00  0.00     0.232 C 
HETATM   15  N2  UNL     1      46.156  -3.182  32.065  1.00  0.00    -0.074 N 
ATOM     16  H21 UNL     1      46.271  -2.477  31.337  1.00  0.00     0.277 HD
ATOM     17  H22 UNL     1      46.804  -2.806  32.758  1.00  0.00     0.277 HD
HETATM   18  C16 UNL     1      44.798  -3.199  32.571  1.00  0.00     0.259 C 
HETATM   19  C17 UNL     1      44.814  -3.121  34.083  1.00  0.00     0.259 C 
HETATM   20  N3  UNL     1      43.723  -2.279  34.490  1.00  0.00    -0.073 N 
ATOM     21  H31 UNL     1      43.313  -1.800  33.688  1.00  0.00     0.277 HD
ATOM     22  H32 UNL     1      44.062  -1.470  35.012  1.00  0.00     0.277 HD
HETATM   23  C18 UNL     1      42.708  -2.991  35.242  1.00  0.00     0.236 C 
HETATM   24  C19 UNL     1      41.578  -3.445  34.331  1.00  0.00     0.054 C 
HETATM   25  C20 UNL     1      40.459  -2.499  34.509  1.00  0.00    -0.023 C 
HETATM   26  C21 UNL     1      39.727  -2.321  35.560  1.00  0.00     0.026 C 
HETATM   27  C22 UNL     1      39.862  -3.055  36.852  1.00  0.00     0.038 A 
HETATM   28  C23 UNL     1      39.659  -2.548  38.137  1.00  0.00     0.081 A 
HETATM   29  S1  UNL     1      39.982  -3.917  39.107  1.00  0.00    -0.086 SA
HETATM   30  C24 UNL     1      40.347  -5.030  37.867  1.00  0.00     0.051 A 
HETATM   31  N4  UNL     1      40.203  -4.301  36.785  1.00  0.00    -0.354 N 
ATOM     32  H4  UNL     1      40.364  -4.725  35.872  1.00  0.00     0.166 HD
HETATM   33  C25 UNL     1      40.746  -6.485  37.793  1.00  0.00     0.066 C 
HETATM   34  C26 UNL     1      39.677  -7.290  37.089  1.00  0.00     0.026 C 
HETATM   35  C27 UNL     1      40.283  -7.815  35.793  1.00  0.00     0.123 C 
HETATM   36  N5  UNL     1      39.262  -8.145  34.819  1.00  0.00    -0.359 N 
ATOM     37  H5  UNL     1      38.530  -7.461  34.629  1.00  0.00     0.162 HD
HETATM   38  C28 UNL     1      39.235  -9.382  34.117  1.00  0.00     0.248 C 
HETATM   39  O1  UNL     1      38.771  -9.448  32.950  1.00  0.00    -0.271 OA
ENDROOT
BRANCH   1  40
HETATM   40  C4  UNL     1      38.782 -11.725  34.429  1.00  0.00     0.046 C 
BRANCH  40  41
HETATM   41  C2  UNL     1      37.450 -11.567  35.125  1.00  0.00    -0.020 C 
HETATM   42  C1  UNL     1      36.784 -12.948  35.081  1.00  0.00     0.009 C 
HETATM   43  C3  UNL     1      37.568 -11.163  36.556  1.00  0.00     0.009 C 
ENDBRANCH  40  41
ENDBRANCH   1  40
TORSDOF 2
ENDMDL
