MODEL 1
REMARK VINA RESULT: -9.079752160      0.000      0.000
REMARK  5 active torsions:
REMARK  status: ('A' for Active; 'I' for Inactive)
REMARK    1  A    between atoms: N1_2  and  C2_4 
REMARK    2  A    between atoms: C4_9  and  C5_10 
REMARK    3  A    between atoms: C7_14  and  N4_15 
REMARK       I    between atoms: N4_15  and  C8_17 
REMARK       I    between atoms: C8_17  and  N5_19 
REMARK    4  A    between atoms: N5_19  and  C9_21 
REMARK    5  A    between atoms: C16_31  and  C17_32 
ROOT
HETATM    1  C5  UNL     1      37.823  -9.508  37.453  1.00  0.00    -0.004 A 
HETATM    2  C6  UNL     1      37.872  -9.166  38.787  1.00  0.00     0.102 A 
HETATM    3  N3  UNL     1      38.718  -8.276  39.319  1.00  0.00    -0.351 N 
ATOM      4  H3  UNL     1      38.699  -8.070  40.318  1.00  0.00     0.166 HD
HETATM    5  C7  UNL     1      39.591  -7.663  38.509  1.00  0.00     0.122 A 
HETATM    6  C16 UNL     1      39.600  -7.964  37.134  1.00  0.00     0.043 A 
HETATM    7  C24 UNL     1      38.736  -8.868  36.612  1.00  0.00     0.032 A 
ENDROOT
BRANCH   5   8
HETATM    8  N4  UNL     1      40.437  -6.803  38.912  1.00  0.00    -0.294 N 
HETATM    9  C8  UNL     1      40.177  -5.509  39.405  1.00  0.00     0.327 C 
HETATM   10  O2  UNL     1      39.356  -5.349  40.353  1.00  0.00    -0.247 OA
HETATM   11  N5  UNL     1      40.843  -4.404  38.830  1.00  0.00    -0.288 N 
ATOM     12  H5  UNL     1      41.860  -4.336  38.865  1.00  0.00     0.172 HD
ATOM     13  H4  UNL     1      41.417  -7.083  38.876  1.00  0.00     0.172 HD
BRANCH  11  14
HETATM   14  C9  UNL     1      40.133  -3.468  38.253  1.00  0.00     0.153 A 
HETATM   15  N6  UNL     1      39.817  -3.334  36.969  1.00  0.00    -0.335 N 
HETATM   16  C10 UNL     1      39.082  -2.301  36.599  1.00  0.00     0.051 A 
ATOM     17  H6  UNL     1      40.137  -4.016  36.282  1.00  0.00     0.168 HD
HETATM   18  C11 UNL     1      38.659  -2.010  35.280  1.00  0.00     0.031 A 
HETATM   19  C15 UNL     1      38.690  -1.427  37.575  1.00  0.00     0.035 A 
HETATM   20  C12 UNL     1      37.901  -0.907  35.036  1.00  0.00     0.002 A 
HETATM   21  C13 UNL     1      37.488  -0.005  36.002  1.00  0.00     0.002 A 
HETATM   22  C14 UNL     1      37.904  -0.292  37.294  1.00  0.00     0.021 A 
HETATM   23  S1  UNL     1      39.382  -2.109  38.975  1.00  0.00    -0.052 SA
ENDBRANCH  11  14
ENDBRANCH   5   8
BRANCH   6  24
HETATM   24  C17 UNL     1      40.568  -7.274  36.281  1.00  0.00     0.089 A 
HETATM   25  N7  UNL     1      40.447  -6.179  35.555  1.00  0.00    -0.349 N 
HETATM   26  C18 UNL     1      41.456  -5.739  34.862  1.00  0.00     0.050 A 
ATOM     27  H7  UNL     1      39.560  -5.676  35.538  1.00  0.00     0.166 HD
HETATM   28  C19 UNL     1      41.466  -4.585  34.045  1.00  0.00     0.031 A 
HETATM   29  C23 UNL     1      42.625  -6.450  34.919  1.00  0.00     0.033 A 
HETATM   30  C20 UNL     1      42.599  -4.252  33.381  1.00  0.00     0.002 A 
HETATM   31  C21 UNL     1      43.790  -4.944  33.416  1.00  0.00     0.002 A 
HETATM   32  C22 UNL     1      43.783  -6.082  34.220  1.00  0.00     0.021 A 
HETATM   33  S2  UNL     1      42.188  -7.726  35.984  1.00  0.00    -0.069 SA
ENDBRANCH   6  24
BRANCH   1  34
HETATM   34  C4  UNL     1      36.891 -10.477  36.917  1.00  0.00     0.045 A 
HETATM   35  C2  UNL     1      35.541 -10.516  37.138  1.00  0.00     0.134 A 
HETATM   36  N2  UNL     1      35.049 -11.586  36.447  1.00  0.00    -0.245 N 
HETATM   37  O1  UNL     1      36.043 -12.190  35.823  1.00  0.00    -0.248 OA
ATOM     38  H2  UNL     1      34.071 -11.874  36.418  1.00  0.00     0.196 HD
HETATM   39  C3  UNL     1      37.172 -11.534  36.094  1.00  0.00     0.183 A 
BRANCH  35  40
HETATM   40  N1  UNL     1      34.859  -9.700  37.861  1.00  0.00    -0.379 N 
HETATM   41  C1  UNL     1      33.524 -10.050  38.307  1.00  0.00     0.147 C 
ATOM     42  H1  UNL     1      35.260  -8.799  38.123  1.00  0.00     0.160 HD
ENDBRANCH  35  40
ENDBRANCH   1  34
TORSDOF 5
ENDMDL
MODEL 2
REMARK VINA RESULT: -8.959917604      0.751      1.064
REMARK  5 active torsions:
REMARK  status: ('A' for Active; 'I' for Inactive)
REMARK    1  A    between atoms: N1_2  and  C2_4 
REMARK    2  A    between atoms: C4_9  and  C5_10 
REMARK    3  A    between atoms: C7_14  and  N4_15 
REMARK       I    between atoms: N4_15  and  C8_17 
REMARK       I    between atoms: C8_17  and  N5_19 
REMARK    4  A    between atoms: N5_19  and  C9_21 
REMARK    5  A    between atoms: C16_31  and  C17_32 
ROOT
HETATM    1  C5  UNL     1      37.864  -9.560  37.425  1.00  0.00    -0.004 A 
HETATM    2  C6  UNL     1      37.910  -9.185  38.750  1.00  0.00     0.102 A 
HETATM    3  N3  UNL     1      38.803  -8.338  39.276  1.00  0.00    -0.351 N 
ATOM      4  H3  UNL     1      38.779  -8.103  40.268  1.00  0.00     0.166 HD
HETATM    5  C7  UNL     1      39.729  -7.805  38.468  1.00  0.00     0.122 A 
HETATM    6  C16 UNL     1      39.743  -8.144  37.102  1.00  0.00     0.043 A 
HETATM    7  C24 UNL     1      38.832  -9.004  36.586  1.00  0.00     0.032 A 
ENDROOT
BRANCH   5   8
HETATM    8  N4  UNL     1      40.622  -6.992  38.865  1.00  0.00    -0.294 N 
HETATM    9  C8  UNL     1      40.432  -5.694  39.382  1.00  0.00     0.327 C 
HETATM   10  O2  UNL     1      39.639  -5.512  40.349  1.00  0.00    -0.247 OA
HETATM   11  N5  UNL     1      41.136  -4.613  38.809  1.00  0.00    -0.288 N 
ATOM     12  H5  UNL     1      42.156  -4.592  38.823  1.00  0.00     0.172 HD
ATOM     13  H4  UNL     1      41.587  -7.316  38.804  1.00  0.00     0.172 HD
BRANCH  11  14
HETATM   14  C9  UNL     1      40.459  -3.637  38.261  1.00  0.00     0.153 A 
HETATM   15  N6  UNL     1      39.448  -2.937  38.765  1.00  0.00    -0.335 N 
HETATM   16  C10 UNL     1      38.903  -1.984  38.029  1.00  0.00     0.051 A 
ATOM     17  H6  UNL     1      39.099  -3.132  39.703  1.00  0.00     0.168 HD
HETATM   18  C11 UNL     1      37.825  -1.150  38.412  1.00  0.00     0.031 A 
HETATM   19  C15 UNL     1      39.423  -1.780  36.782  1.00  0.00     0.035 A 
HETATM   20  C12 UNL     1      37.359  -0.204  37.554  1.00  0.00     0.002 A 
HETATM   21  C13 UNL     1      37.864   0.027  36.285  1.00  0.00     0.002 A 
HETATM   22  C14 UNL     1      38.920  -0.791  35.912  1.00  0.00     0.021 A 
HETATM   23  S1  UNL     1      40.662  -2.947  36.706  1.00  0.00    -0.052 SA
ENDBRANCH  11  14
ENDBRANCH   5   8
BRANCH   6  24
HETATM   24  C17 UNL     1      40.770  -7.543  36.251  1.00  0.00     0.089 A 
HETATM   25  N7  UNL     1      40.740  -6.452  35.508  1.00  0.00    -0.349 N 
HETATM   26  C18 UNL     1      41.788  -6.101  34.821  1.00  0.00     0.050 A 
ATOM     27  H7  UNL     1      39.894  -5.884  35.473  1.00  0.00     0.166 HD
HETATM   28  C19 UNL     1      41.894  -4.963  33.987  1.00  0.00     0.031 A 
HETATM   29  C23 UNL     1      42.898  -6.897  34.902  1.00  0.00     0.033 A 
HETATM   30  C20 UNL     1      43.056  -4.727  33.332  1.00  0.00     0.002 A 
HETATM   31  C21 UNL     1      44.191  -5.507  33.391  1.00  0.00     0.002 A 
HETATM   32  C22 UNL     1      44.089  -6.629  34.211  1.00  0.00     0.021 A 
HETATM   33  S2  UNL     1      42.354  -8.120  35.979  1.00  0.00    -0.069 SA
ENDBRANCH   6  24
BRANCH   1  34
HETATM   34  C4  UNL     1      36.880 -10.481  36.897  1.00  0.00     0.045 A 
HETATM   35  C2  UNL     1      35.540 -10.487  37.173  1.00  0.00     0.134 A 
HETATM   36  N2  UNL     1      34.986 -11.517  36.467  1.00  0.00    -0.245 N 
HETATM   37  O1  UNL     1      35.934 -12.127  35.781  1.00  0.00    -0.248 OA
ATOM     38  H2  UNL     1      33.999 -11.773  36.469  1.00  0.00     0.196 HD
HETATM   39  C3  UNL     1      37.094 -11.516  36.026  1.00  0.00     0.183 A 
BRANCH  35  40
HETATM   40  N1  UNL     1      34.914  -9.677  37.951  1.00  0.00    -0.379 N 
HETATM   41  C1  UNL     1      33.564  -9.972  38.389  1.00  0.00     0.147 C 
ATOM     42  H1  UNL     1      35.371  -8.820  38.263  1.00  0.00     0.160 HD
ENDBRANCH  35  40
ENDBRANCH   1  34
TORSDOF 5
ENDMDL
MODEL 3
REMARK VINA RESULT: -8.919712061      2.621      4.372
REMARK  5 active torsions:
REMARK  status: ('A' for Active; 'I' for Inactive)
REMARK    1  A    between atoms: N1_2  and  C2_4 
REMARK    2  A    between atoms: C4_9  and  C5_10 
REMARK    3  A    between atoms: C7_14  and  N4_15 
REMARK       I    between atoms: N4_15  and  C8_17 
REMARK       I    between atoms: C8_17  and  N5_19 
REMARK    4  A    between atoms: N5_19  and  C9_21 
REMARK    5  A    between atoms: C16_31  and  C17_32 
ROOT
HETATM    1  C5  UNL     1      37.712  -9.037  36.562  1.00  0.00    -0.004 A 
HETATM    2  C6  UNL     1      37.700  -8.093  35.559  1.00  0.00     0.102 A 
HETATM    3  N3  UNL     1      38.541  -7.055  35.473  1.00  0.00    -0.351 N 
ATOM      4  H3  UNL     1      38.476  -6.393  34.700  1.00  0.00     0.166 HD
HETATM    5  C7  UNL     1      39.470  -6.907  36.426  1.00  0.00     0.122 A 
HETATM    6  C16 UNL     1      39.541  -7.834  37.483  1.00  0.00     0.043 A 
HETATM    7  C24 UNL     1      38.682  -8.879  37.555  1.00  0.00     0.032 A 
ENDROOT
BRANCH   5   8
HETATM    8  N4  UNL     1      40.315  -5.957  36.439  1.00  0.00    -0.294 N 
HETATM    9  C8  UNL     1      40.052  -4.573  36.404  1.00  0.00     0.327 C 
HETATM   10  O2  UNL     1      39.258  -4.062  37.244  1.00  0.00    -0.247 OA
HETATM   11  N5  UNL     1      40.685  -3.774  35.427  1.00  0.00    -0.288 N 
ATOM     12  H5  UNL     1      41.702  -3.697  35.399  1.00  0.00     0.172 HD
ATOM     13  H4  UNL     1      41.298  -6.229  36.481  1.00  0.00     0.172 HD
BRANCH  11  14
HETATM   14  C9  UNL     1      39.945  -3.134  34.558  1.00  0.00     0.153 A 
HETATM   15  N6  UNL     1      38.650  -2.843  34.619  1.00  0.00    -0.335 N 
HETATM   16  C10 UNL     1      38.099  -2.181  33.617  1.00  0.00     0.051 A 
ATOM     17  H6  UNL     1      38.092  -3.126  35.424  1.00  0.00     0.168 HD
HETATM   18  C11 UNL     1      36.740  -1.794  33.524  1.00  0.00     0.031 A 
HETATM   19  C15 UNL     1      38.908  -1.835  32.572  1.00  0.00     0.035 A 
HETATM   20  C12 UNL     1      36.300  -1.112  32.432  1.00  0.00     0.002 A 
HETATM   21  C13 UNL     1      37.095  -0.747  31.358  1.00  0.00     0.002 A 
HETATM   22  C14 UNL     1      38.426  -1.128  31.453  1.00  0.00     0.021 A 
HETATM   23  S1  UNL     1      40.417  -2.463  33.054  1.00  0.00    -0.052 SA
ENDBRANCH  11  14
ENDBRANCH   5   8
BRANCH   6  24
HETATM   24  C17 UNL     1      40.569  -7.639  38.506  1.00  0.00     0.089 A 
HETATM   25  N7  UNL     1      40.563  -6.900  39.600  1.00  0.00    -0.349 N 
HETATM   26  C18 UNL     1      41.606  -6.877  40.378  1.00  0.00     0.050 A 
ATOM     27  H7  UNL     1      39.740  -6.347  39.835  1.00  0.00     0.166 HD
HETATM   28  C19 UNL     1      41.736  -6.134  41.574  1.00  0.00     0.031 A 
HETATM   29  C23 UNL     1      42.686  -7.637  40.017  1.00  0.00     0.033 A 
HETATM   30  C20 UNL     1      42.889  -6.212  42.281  1.00  0.00     0.002 A 
HETATM   31  C21 UNL     1      43.994  -6.966  41.947  1.00  0.00     0.002 A 
HETATM   32  C22 UNL     1      43.869  -7.698  40.768  1.00  0.00     0.021 A 
HETATM   33  S2  UNL     1      42.122  -8.348  38.557  1.00  0.00    -0.069 SA
ENDBRANCH   6  24
BRANCH   1  34
HETATM   34  C4  UNL     1      36.784 -10.146  36.617  1.00  0.00     0.045 A 
HETATM   35  C2  UNL     1      36.918 -11.353  35.986  1.00  0.00     0.134 A 
HETATM   36  N2  UNL     1      35.822 -12.101  36.307  1.00  0.00    -0.245 N 
HETATM   37  O1  UNL     1      35.037 -11.398  37.101  1.00  0.00    -0.248 OA
ATOM     38  H2  UNL     1      35.638 -13.051  35.984  1.00  0.00     0.196 HD
HETATM   39  C3  UNL     1      35.601 -10.206  37.304  1.00  0.00     0.183 A 
BRANCH  35  40
HETATM   40  N1  UNL     1      37.892 -11.718  35.230  1.00  0.00    -0.379 N 
HETATM   41  C1  UNL     1      37.679 -12.683  34.169  1.00  0.00     0.147 C 
ATOM     42  H1  UNL     1      38.822 -11.326  35.379  1.00  0.00     0.160 HD
ENDBRANCH  35  40
ENDBRANCH   1  34
TORSDOF 5
ENDMDL
MODEL 4
REMARK VINA RESULT: -8.850588445      0.816      1.522
REMARK  5 active torsions:
REMARK  status: ('A' for Active; 'I' for Inactive)
REMARK    1  A    between atoms: N1_2  and  C2_4 
REMARK    2  A    between atoms: C4_9  and  C5_10 
REMARK    3  A    between atoms: C7_14  and  N4_15 
REMARK       I    between atoms: N4_15  and  C8_17 
REMARK       I    between atoms: C8_17  and  N5_19 
REMARK    4  A    between atoms: N5_19  and  C9_21 
REMARK    5  A    between atoms: C16_31  and  C17_32 
ROOT
HETATM    1  C5  UNL     1      37.903  -9.358  37.487  1.00  0.00    -0.004 A 
HETATM    2  C6  UNL     1      38.029  -9.036  38.821  1.00  0.00     0.102 A 
HETATM    3  N3  UNL     1      38.898  -8.146  39.316  1.00  0.00    -0.351 N 
ATOM      4  H3  UNL     1      38.938  -7.956  40.317  1.00  0.00     0.166 HD
HETATM    5  C7  UNL     1      39.716  -7.513  38.464  1.00  0.00     0.122 A 
HETATM    6  C16 UNL     1      39.644  -7.792  37.087  1.00  0.00     0.043 A 
HETATM    7  C24 UNL     1      38.758  -8.696  36.603  1.00  0.00     0.032 A 
ENDROOT
BRANCH   5   8
HETATM    8  N4  UNL     1      40.577  -6.651  38.830  1.00  0.00    -0.294 N 
HETATM    9  C8  UNL     1      40.336  -5.373  39.373  1.00  0.00     0.327 C 
HETATM   10  O2  UNL     1      39.582  -5.249  40.379  1.00  0.00    -0.247 OA
HETATM   11  N5  UNL     1      40.946  -4.245  38.782  1.00  0.00    -0.288 N 
ATOM     12  H5  UNL     1      41.962  -4.164  38.747  1.00  0.00     0.172 HD
ATOM     13  H4  UNL     1      41.555  -6.916  38.717  1.00  0.00     0.172 HD
BRANCH  11  14
HETATM   14  C9  UNL     1      40.186  -3.306  38.280  1.00  0.00     0.153 A 
HETATM   15  N6  UNL     1      39.956  -3.011  37.004  1.00  0.00    -0.335 N 
HETATM   16  C10 UNL     1      39.144  -2.009  36.719  1.00  0.00     0.051 A 
ATOM     17  H6  UNL     1      40.399  -3.550  36.260  1.00  0.00     0.168 HD
HETATM   18  C11 UNL     1      38.794  -1.566  35.420  1.00  0.00     0.031 A 
HETATM   19  C15 UNL     1      38.587  -1.333  37.767  1.00  0.00     0.035 A 
HETATM   20  C12 UNL     1      37.942  -0.517  35.266  1.00  0.00     0.002 A 
HETATM   21  C13 UNL     1      37.363   0.188  36.308  1.00  0.00     0.002 A 
HETATM   22  C14 UNL     1      37.708  -0.249  37.579  1.00  0.00     0.021 A 
HETATM   23  S1  UNL     1      39.239  -2.148  39.115  1.00  0.00    -0.052 SA
ENDBRANCH  11  14
ENDBRANCH   5   8
BRANCH   6  24
HETATM   24  C17 UNL     1      40.553  -7.080  36.188  1.00  0.00     0.089 A 
HETATM   25  N7  UNL     1      40.394  -5.952  35.522  1.00  0.00    -0.349 N 
HETATM   26  C18 UNL     1      41.352  -5.498  34.768  1.00  0.00     0.050 A 
ATOM     27  H7  UNL     1      39.518  -5.436  35.597  1.00  0.00     0.166 HD
HETATM   28  C19 UNL     1      41.317  -4.309  34.002  1.00  0.00     0.031 A 
HETATM   29  C23 UNL     1      42.509  -6.228  34.700  1.00  0.00     0.033 A 
HETATM   30  C20 UNL     1      42.399  -3.964  33.264  1.00  0.00     0.002 A 
HETATM   31  C21 UNL     1      43.577  -4.675  33.172  1.00  0.00     0.002 A 
HETATM   32  C22 UNL     1      43.613  -5.847  33.926  1.00  0.00     0.021 A 
HETATM   33  S2  UNL     1      42.135  -7.543  35.742  1.00  0.00    -0.069 SA
ENDBRANCH   6  24
BRANCH   1  34
HETATM   34  C4  UNL     1      36.948 -10.327  36.994  1.00  0.00     0.045 A 
HETATM   35  C2  UNL     1      37.195 -11.329  36.095  1.00  0.00     0.134 A 
HETATM   36  N2  UNL     1      36.023 -12.005  35.910  1.00  0.00    -0.245 N 
HETATM   37  O1  UNL     1      35.086 -11.453  36.656  1.00  0.00    -0.248 OA
ATOM     38  H2  UNL     1      35.893 -12.807  35.293  1.00  0.00     0.196 HD
HETATM   39  C3  UNL     1      35.624 -10.431  37.324  1.00  0.00     0.183 A 
BRANCH  35  40
HETATM   40  N1  UNL     1      38.320 -11.589  35.527  1.00  0.00    -0.379 N 
HETATM   41  C1  UNL     1      38.413 -11.671  34.082  1.00  0.00     0.147 C 
ATOM     42  H1  UNL     1      39.152 -11.738  36.098  1.00  0.00     0.160 HD
ENDBRANCH  35  40
ENDBRANCH   1  34
TORSDOF 5
ENDMDL
MODEL 5
REMARK VINA RESULT: -8.801488546      1.032      1.786
REMARK  5 active torsions:
REMARK  status: ('A' for Active; 'I' for Inactive)
REMARK    1  A    between atoms: N1_2  and  C2_4 
REMARK    2  A    between atoms: C4_9  and  C5_10 
REMARK    3  A    between atoms: C7_14  and  N4_15 
REMARK       I    between atoms: N4_15  and  C8_17 
REMARK       I    between atoms: C8_17  and  N5_19 
REMARK    4  A    between atoms: N5_19  and  C9_21 
REMARK    5  A    between atoms: C16_31  and  C17_32 
ROOT
HETATM    1  C5  UNL     1      37.836  -9.375  37.519  1.00  0.00    -0.004 A 
HETATM    2  C6  UNL     1      37.979  -9.044  38.848  1.00  0.00     0.102 A 
HETATM    3  N3  UNL     1      38.905  -8.210  39.335  1.00  0.00    -0.351 N 
ATOM      4  H3  UNL     1      38.954  -8.008  40.334  1.00  0.00     0.166 HD
HETATM    5  C7  UNL     1      39.767  -7.645  38.480  1.00  0.00     0.122 A 
HETATM    6  C16 UNL     1      39.681  -7.938  37.105  1.00  0.00     0.043 A 
HETATM    7  C24 UNL     1      38.737  -8.785  36.630  1.00  0.00     0.032 A 
ENDROOT
BRANCH   5   8
HETATM    8  N4  UNL     1      40.684  -6.840  38.837  1.00  0.00    -0.294 N 
HETATM    9  C8  UNL     1      40.530  -5.539  39.358  1.00  0.00     0.327 C 
HETATM   10  O2  UNL     1      39.780  -5.347  40.357  1.00  0.00    -0.247 OA
HETATM   11  N5  UNL     1      41.220  -4.467  38.753  1.00  0.00    -0.288 N 
ATOM     12  H5  UNL     1      42.240  -4.457  38.725  1.00  0.00     0.172 HD
ATOM     13  H4  UNL     1      41.642  -7.174  38.736  1.00  0.00     0.172 HD
BRANCH  11  14
HETATM   14  C9  UNL     1      40.531  -3.485  38.231  1.00  0.00     0.153 A 
HETATM   15  N6  UNL     1      39.433  -2.897  38.695  1.00  0.00    -0.335 N 
HETATM   16  C10 UNL     1      38.894  -1.913  37.998  1.00  0.00     0.051 A 
ATOM     17  H6  UNL     1      39.015  -3.200  39.575  1.00  0.00     0.168 HD
HETATM   18  C11 UNL     1      37.732  -1.184  38.348  1.00  0.00     0.031 A 
HETATM   19  C15 UNL     1      39.510  -1.561  36.830  1.00  0.00     0.035 A 
HETATM   20  C12 UNL     1      37.282  -0.190  37.536  1.00  0.00     0.002 A 
HETATM   21  C13 UNL     1      37.884   0.190  36.347  1.00  0.00     0.002 A 
HETATM   22  C14 UNL     1      39.022  -0.526  36.007  1.00  0.00     0.021 A 
HETATM   23  S1  UNL     1      40.827  -2.640  36.770  1.00  0.00    -0.052 SA
ENDBRANCH  11  14
ENDBRANCH   5   8
BRANCH   6  24
HETATM   24  C17 UNL     1      40.641  -7.302  36.202  1.00  0.00     0.089 A 
HETATM   25  N7  UNL     1      40.558  -6.180  35.512  1.00  0.00    -0.349 N 
HETATM   26  C18 UNL     1      41.549  -5.802  34.759  1.00  0.00     0.050 A 
ATOM     27  H7  UNL     1      39.715  -5.609  35.569  1.00  0.00     0.166 HD
HETATM   28  C19 UNL     1      41.595  -4.629  33.970  1.00  0.00     0.031 A 
HETATM   29  C23 UNL     1      42.658  -6.604  34.716  1.00  0.00     0.033 A 
HETATM   30  C20 UNL     1      42.702  -4.367  33.235  1.00  0.00     0.002 A 
HETATM   31  C21 UNL     1      43.834  -5.152  33.168  1.00  0.00     0.002 A 
HETATM   32  C22 UNL     1      43.791  -6.309  33.944  1.00  0.00     0.021 A 
HETATM   33  S2  UNL     1      42.194  -7.872  35.779  1.00  0.00    -0.069 SA
ENDBRANCH   6  24
BRANCH   1  34
HETATM   34  C4  UNL     1      36.819 -10.283  37.034  1.00  0.00     0.045 A 
HETATM   35  C2  UNL     1      36.988 -11.276  36.107  1.00  0.00     0.134 A 
HETATM   36  N2  UNL     1      35.778 -11.887  35.943  1.00  0.00    -0.245 N 
HETATM   37  O1  UNL     1      34.891 -11.305  36.728  1.00  0.00    -0.248 OA
ATOM     38  H2  UNL     1      35.589 -12.667  35.314  1.00  0.00     0.196 HD
HETATM   39  C3  UNL     1      35.501 -10.327  37.401  1.00  0.00     0.183 A 
BRANCH  35  40
HETATM   40  N1  UNL     1      38.081 -11.580  35.502  1.00  0.00    -0.379 N 
HETATM   41  C1  UNL     1      38.048 -12.268  34.226  1.00  0.00     0.147 C 
ATOM     42  H1  UNL     1      38.978 -11.336  35.922  1.00  0.00     0.160 HD
ENDBRANCH  35  40
ENDBRANCH   1  34
TORSDOF 5
ENDMDL
