MODEL 1
REMARK VINA RESULT: -8.212583078      0.000      0.000
REMARK  5 active torsions:
REMARK  status: ('A' for Active; 'I' for Inactive)
REMARK       I    between atoms: C2_5  and  N3_6 
REMARK       I    between atoms: C2_5  and  N6_35 
REMARK    1  A    between atoms: N3_6  and  C3_8 
REMARK    2  A    between atoms: N4_11  and  C6_12 
REMARK    3  A    between atoms: N6_35  and  C24_37 
REMARK    4  A    between atoms: C24_37  and  C25_38 
REMARK    5  A    between atoms: C25_38  and  N7_39 
ROOT
HETATM    1  N1  UNL     1     -24.519  31.923  -5.379  1.00  0.00    -0.171 NA
HETATM    2  C1  UNL     1     -23.573  32.308  -4.834  1.00  0.00     0.196 C 
HETATM    3  N2  UNL     1     -22.398  32.763  -4.178  1.00  0.00    -0.126 N 
ATOM      4  H2  UNL     1     -21.635  32.110  -4.001  1.00  0.00     0.197 HD
HETATM    5  C2  UNL     1     -22.283  33.991  -3.804  1.00  0.00     0.687 C 
HETATM    6  N3  UNL     1     -23.345  34.883  -4.056  1.00  0.00    -0.187 N 
ATOM      7  H3  UNL     1     -24.077  34.931  -3.346  1.00  0.00     0.184 HD
HETATM    8  N6  UNL     1     -21.132  34.468  -3.136  1.00  0.00    -0.224 N 
ATOM      9  H6  UNL     1     -20.899  35.453  -3.263  1.00  0.00     0.177 HD
ENDROOT
BRANCH   6  10
HETATM   10  C3  UNL     1     -23.493  35.639  -5.076  1.00  0.00     0.101 A 
HETATM   11  C4  UNL     1     -22.510  35.527  -6.056  1.00  0.00     0.066 A 
HETATM   12  C5  UNL     1     -22.547  36.270  -7.211  1.00  0.00     0.064 A 
HETATM   13  N4  UNL     1     -21.679  36.115  -8.231  1.00  0.00    -0.338 N 
HETATM   14  C18 UNL     1     -23.674  37.203  -7.416  1.00  0.00     0.064 A 
HETATM   15  C12 UNL     1     -21.867  36.777  -9.433  1.00  0.00     0.065 A 
HETATM   16  C13 UNL     1     -21.122  36.541 -10.556  1.00  0.00     0.033 A 
HETATM   17  C17 UNL     1     -22.956  37.643  -9.553  1.00  0.00     0.094 A 
HETATM   18  C14 UNL     1     -21.364  37.113 -11.794  1.00  0.00     0.014 A 
HETATM   19  C15 UNL     1     -22.426  37.971 -11.913  1.00  0.00     0.001 A 
HETATM   20  C16 UNL     1     -23.201  38.220 -10.804  1.00  0.00     0.106 A 
HETATM   21  C23 UNL     1     -22.505  38.474 -13.307  1.00  0.00     0.209 C 
HETATM   22  O2  UNL     1     -24.311  39.048 -10.718  1.00  0.00    -0.346 OA
HETATM   23  C21 UNL     1     -24.885  39.914 -11.705  1.00  0.00     0.202 C 
HETATM   24  C22 UNL     1     -23.820  40.210 -12.764  1.00  0.00     0.194 C 
HETATM   25  O3  UNL     1     -23.716  39.083 -13.555  1.00  0.00    -0.384 OA
HETATM   26  N5  UNL     1     -23.845  37.864  -8.571  1.00  0.00    -0.350 N 
ATOM     27  H5  UNL     1     -24.624  38.511  -8.698  1.00  0.00     0.166 HD
HETATM   28  C19 UNL     1     -24.623  37.281  -6.416  1.00  0.00     0.089 A 
HETATM   29  C20 UNL     1     -24.533  36.516  -5.274  1.00  0.00     0.201 A 
HETATM   30  O1  UNL     1     -25.418  36.618  -4.388  1.00  0.00    -0.286 OA
BRANCH  13  31
HETATM   31  C6  UNL     1     -20.340  35.577  -8.034  1.00  0.00     0.090 C 
HETATM   32  C7  UNL     1     -19.927  34.210  -8.309  1.00  0.00     0.026 C 
HETATM   33  C8  UNL     1     -20.580  33.092  -7.527  1.00  0.00     0.002 C 
HETATM   34  C9  UNL     1     -19.850  33.029  -6.192  1.00  0.00     0.000 C 
HETATM   35  C10 UNL     1     -19.368  34.389  -5.902  1.00  0.00     0.002 C 
HETATM   36  C11 UNL     1     -20.155  35.548  -6.467  1.00  0.00     0.026 C 
ENDBRANCH  13  31
ENDBRANCH   6  10
BRANCH   8  37
HETATM   37  C24 UNL     1     -20.254  33.695  -2.291  1.00  0.00     0.168 C 
BRANCH  37  38
HETATM   38  C25 UNL     1     -18.838  34.124  -2.403  1.00  0.00     0.292 C 
BRANCH  38  39
HETATM   39  N7  UNL     1     -17.906  33.011  -2.362  1.00  0.00     0.094 N 
HETATM   40  C26 UNL     1     -17.082  32.907  -3.537  1.00  0.00     0.298 C 
HETATM   41  C27 UNL     1     -17.370  31.632  -4.267  1.00  0.00     0.198 C 
HETATM   42  O4  UNL     1     -17.087  30.538  -3.485  1.00  0.00    -0.388 OA
HETATM   43  C28 UNL     1     -17.403  30.708  -2.144  1.00  0.00     0.198 C 
HETATM   44  C29 UNL     1     -18.506  31.759  -1.985  1.00  0.00     0.298 C 
ENDBRANCH  38  39
ENDBRANCH  37  38
ENDBRANCH   8  37
TORSDOF 5
ENDMDL
MODEL 2
REMARK VINA RESULT: -8.188550224      3.171      8.914
REMARK  5 active torsions:
REMARK  status: ('A' for Active; 'I' for Inactive)
REMARK       I    between atoms: C2_5  and  N3_6 
REMARK       I    between atoms: C2_5  and  N6_35 
REMARK    1  A    between atoms: N3_6  and  C3_8 
REMARK    2  A    between atoms: N4_11  and  C6_12 
REMARK    3  A    between atoms: N6_35  and  C24_37 
REMARK    4  A    between atoms: C24_37  and  C25_38 
REMARK    5  A    between atoms: C25_38  and  N7_39 
ROOT
HETATM    1  N1  UNL     1     -25.371  36.271 -10.282  1.00  0.00    -0.171 NA
HETATM    2  C1  UNL     1     -26.029  36.831  -9.510  1.00  0.00     0.196 C 
HETATM    3  N2  UNL     1     -26.854  37.499  -8.567  1.00  0.00    -0.126 N 
ATOM      4  H2  UNL     1     -27.868  37.474  -8.678  1.00  0.00     0.197 HD
HETATM    5  C2  UNL     1     -26.340  38.137  -7.573  1.00  0.00     0.687 C 
HETATM    6  N3  UNL     1     -24.937  38.163  -7.431  1.00  0.00    -0.187 N 
ATOM      7  H3  UNL     1     -24.444  38.908  -7.923  1.00  0.00     0.184 HD
HETATM    8  N6  UNL     1     -27.136  38.824  -6.628  1.00  0.00    -0.224 N 
ATOM      9  H6  UNL     1     -26.760  38.912  -5.684  1.00  0.00     0.177 HD
ENDROOT
BRANCH   6  10
HETATM   10  C3  UNL     1     -24.215  37.354  -6.754  1.00  0.00     0.101 A 
HETATM   11  C4  UNL     1     -22.999  37.002  -7.333  1.00  0.00     0.066 A 
HETATM   12  C5  UNL     1     -22.118  36.150  -6.712  1.00  0.00     0.064 A 
HETATM   13  N4  UNL     1     -20.887  35.869  -7.185  1.00  0.00    -0.338 N 
HETATM   14  C18 UNL     1     -22.474  35.608  -5.385  1.00  0.00     0.064 A 
HETATM   15  C12 UNL     1     -19.986  35.135  -6.432  1.00  0.00     0.065 A 
HETATM   16  C13 UNL     1     -18.675  34.953  -6.780  1.00  0.00     0.033 A 
HETATM   17  C17 UNL     1     -20.394  34.655  -5.186  1.00  0.00     0.094 A 
HETATM   18  C14 UNL     1     -17.733  34.315  -5.989  1.00  0.00     0.014 A 
HETATM   19  C15 UNL     1     -18.133  33.835  -4.769  1.00  0.00     0.001 A 
HETATM   20  C16 UNL     1     -19.443  34.011  -4.387  1.00  0.00     0.106 A 
HETATM   21  C23 UNL     1     -16.983  33.187  -4.089  1.00  0.00     0.209 C 
HETATM   22  O2  UNL     1     -20.038  33.605  -3.201  1.00  0.00    -0.346 OA
HETATM   23  C21 UNL     1     -19.496  32.835  -2.122  1.00  0.00     0.202 C 
HETATM   24  C22 UNL     1     -18.282  32.062  -2.644  1.00  0.00     0.194 C 
HETATM   25  O3  UNL     1     -17.246  32.969  -2.754  1.00  0.00    -0.384 OA
HETATM   26  N5  UNL     1     -21.611  34.876  -4.664  1.00  0.00    -0.350 N 
ATOM     27  H5  UNL     1     -21.871  34.501  -3.751  1.00  0.00     0.166 HD
HETATM   28  C19 UNL     1     -23.690  35.985  -4.851  1.00  0.00     0.089 A 
HETATM   29  C20 UNL     1     -24.540  36.838  -5.522  1.00  0.00     0.201 A 
HETATM   30  O1  UNL     1     -25.638  37.156  -5.000  1.00  0.00    -0.286 OA
BRANCH  13  31
HETATM   31  C6  UNL     1     -20.558  35.972  -8.600  1.00  0.00     0.090 C 
HETATM   32  C7  UNL     1     -19.806  37.051  -9.219  1.00  0.00     0.026 C 
HETATM   33  C8  UNL     1     -20.383  38.449  -9.168  1.00  0.00     0.002 C 
HETATM   34  C9  UNL     1     -21.400  38.527 -10.298  1.00  0.00     0.000 C 
HETATM   35  C10 UNL     1     -21.925  37.167 -10.498  1.00  0.00     0.002 C 
HETATM   36  C11 UNL     1     -21.943  36.240  -9.307  1.00  0.00     0.026 C 
ENDBRANCH  13  31
ENDBRANCH   6  10
BRANCH   8  37
HETATM   37  C24 UNL     1     -28.430  39.413  -6.871  1.00  0.00     0.168 C 
BRANCH  37  38
HETATM   38  C25 UNL     1     -28.451  40.870  -6.589  1.00  0.00     0.292 C 
BRANCH  38  39
HETATM   39  N7  UNL     1     -29.037  41.188  -5.299  1.00  0.00     0.094 N 
HETATM   40  C26 UNL     1     -28.283  42.158  -4.549  1.00  0.00     0.298 C 
HETATM   41  C27 UNL     1     -27.751  41.548  -3.290  1.00  0.00     0.198 C 
HETATM   42  O4  UNL     1     -28.773  41.121  -2.475  1.00  0.00    -0.388 OA
HETATM   43  C28 UNL     1     -29.849  40.577  -3.161  1.00  0.00     0.198 C 
HETATM   44  C29 UNL     1     -29.397  40.033  -4.520  1.00  0.00     0.298 C 
ENDBRANCH  38  39
ENDBRANCH  37  38
ENDBRANCH   8  37
TORSDOF 5
ENDMDL
MODEL 3
REMARK VINA RESULT: -8.154966418      3.234      5.423
REMARK  5 active torsions:
REMARK  status: ('A' for Active; 'I' for Inactive)
REMARK       I    between atoms: C2_5  and  N3_6 
REMARK       I    between atoms: C2_5  and  N6_35 
REMARK    1  A    between atoms: N3_6  and  C3_8 
REMARK    2  A    between atoms: N4_11  and  C6_12 
REMARK    3  A    between atoms: N6_35  and  C24_37 
REMARK    4  A    between atoms: C24_37  and  C25_38 
REMARK    5  A    between atoms: C25_38  and  N7_39 
ROOT
HETATM    1  N1  UNL     1     -24.954  34.784  -0.484  1.00  0.00    -0.171 NA
HETATM    2  C1  UNL     1     -25.279  33.748  -0.887  1.00  0.00     0.196 C 
HETATM    3  N2  UNL     1     -25.703  32.483  -1.376  1.00  0.00    -0.126 N 
ATOM      4  H2  UNL     1     -26.527  32.038  -0.972  1.00  0.00     0.197 HD
HETATM    5  C2  UNL     1     -25.061  31.891  -2.322  1.00  0.00     0.687 C 
HETATM    6  N3  UNL     1     -23.924  32.519  -2.872  1.00  0.00    -0.187 N 
ATOM      7  H3  UNL     1     -23.034  32.336  -2.407  1.00  0.00     0.184 HD
HETATM    8  N6  UNL     1     -25.451  30.625  -2.818  1.00  0.00    -0.224 N 
ATOM      9  H6  UNL     1     -25.224  30.421  -3.791  1.00  0.00     0.177 HD
ENDROOT
BRANCH   6  10
HETATM   10  C3  UNL     1     -23.886  33.293  -3.889  1.00  0.00     0.101 A 
HETATM   11  C4  UNL     1     -22.630  33.798  -4.215  1.00  0.00     0.066 A 
HETATM   12  C5  UNL     1     -22.439  34.633  -5.290  1.00  0.00     0.064 A 
HETATM   13  N4  UNL     1     -21.228  35.056  -5.705  1.00  0.00    -0.338 N 
HETATM   14  C18 UNL     1     -23.604  34.988  -6.125  1.00  0.00     0.064 A 
HETATM   15  C12 UNL     1     -21.087  35.760  -6.889  1.00  0.00     0.065 A 
HETATM   16  C13 UNL     1     -19.879  36.075  -7.447  1.00  0.00     0.033 A 
HETATM   17  C17 UNL     1     -22.235  36.059  -7.626  1.00  0.00     0.094 A 
HETATM   18  C14 UNL     1     -19.717  36.682  -8.681  1.00  0.00     0.014 A 
HETATM   19  C15 UNL     1     -20.843  36.986  -9.404  1.00  0.00     0.001 A 
HETATM   20  C16 UNL     1     -22.072  36.672  -8.873  1.00  0.00     0.106 A 
HETATM   21  C23 UNL     1     -20.453  37.631 -10.682  1.00  0.00     0.209 C 
HETATM   22  O2  UNL     1     -23.319  36.892  -9.443  1.00  0.00    -0.346 OA
HETATM   23  C21 UNL     1     -23.662  37.567 -10.658  1.00  0.00     0.202 C 
HETATM   24  C22 UNL     1     -22.498  38.482 -11.047  1.00  0.00     0.194 C 
HETATM   25  O3  UNL     1     -21.508  37.672 -11.568  1.00  0.00    -0.384 OA
HETATM   26  N5  UNL     1     -23.474  35.690  -7.260  1.00  0.00    -0.350 N 
ATOM     27  H5  UNL     1     -24.287  35.936  -7.826  1.00  0.00     0.166 HD
HETATM   28  C19 UNL     1     -24.829  34.463  -5.762  1.00  0.00     0.089 A 
HETATM   29  C20 UNL     1     -24.964  33.636  -4.669  1.00  0.00     0.201 A 
HETATM   30  O1  UNL     1     -26.097  33.181  -4.373  1.00  0.00    -0.286 OA
BRANCH  13  31
HETATM   31  C6  UNL     1     -20.087  35.143  -4.804  1.00  0.00     0.090 C 
HETATM   32  C7  UNL     1     -19.107  34.094  -4.573  1.00  0.00     0.026 C 
HETATM   33  C8  UNL     1     -19.581  32.788  -3.976  1.00  0.00     0.002 C 
HETATM   34  C9  UNL     1     -19.669  33.018  -2.473  1.00  0.00     0.000 C 
HETATM   35  C10 UNL     1     -19.962  34.446  -2.274  1.00  0.00     0.002 C 
HETATM   36  C11 UNL     1     -20.726  35.164  -3.361  1.00  0.00     0.026 C 
ENDBRANCH  13  31
ENDBRANCH   6  10
BRANCH   8  37
HETATM   37  C24 UNL     1     -26.138  29.595  -2.078  1.00  0.00     0.168 C 
BRANCH  37  38
HETATM   38  C25 UNL     1     -26.453  28.411  -2.916  1.00  0.00     0.292 C 
BRANCH  38  39
HETATM   39  N7  UNL     1     -26.454  28.709  -4.338  1.00  0.00     0.094 N 
HETATM   40  C26 UNL     1     -27.765  28.972  -4.869  1.00  0.00     0.298 C 
HETATM   41  C27 UNL     1     -28.140  27.929  -5.875  1.00  0.00     0.198 C 
HETATM   42  O4  UNL     1     -27.271  27.932  -6.941  1.00  0.00    -0.388 OA
HETATM   43  C28 UNL     1     -25.951  28.177  -6.589  1.00  0.00     0.198 C 
HETATM   44  C29 UNL     1     -25.703  27.773  -5.132  1.00  0.00     0.298 C 
ENDBRANCH  38  39
ENDBRANCH  37  38
ENDBRANCH   8  37
TORSDOF 5
ENDMDL
MODEL 4
REMARK VINA RESULT: -8.140070745      3.494      9.188
REMARK  5 active torsions:
REMARK  status: ('A' for Active; 'I' for Inactive)
REMARK       I    between atoms: C2_5  and  N3_6 
REMARK       I    between atoms: C2_5  and  N6_35 
REMARK    1  A    between atoms: N3_6  and  C3_8 
REMARK    2  A    between atoms: N4_11  and  C6_12 
REMARK    3  A    between atoms: N6_35  and  C24_37 
REMARK    4  A    between atoms: C24_37  and  C25_38 
REMARK    5  A    between atoms: C25_38  and  N7_39 
ROOT
HETATM    1  N1  UNL     1     -25.580  36.168 -10.050  1.00  0.00    -0.171 NA
HETATM    2  C1  UNL     1     -26.237  36.682  -9.247  1.00  0.00     0.196 C 
HETATM    3  N2  UNL     1     -27.062  37.295  -8.266  1.00  0.00    -0.126 N 
ATOM      4  H2  UNL     1     -28.077  37.236  -8.354  1.00  0.00     0.197 HD
HETATM    5  C2  UNL     1     -26.547  37.923  -7.267  1.00  0.00     0.687 C 
HETATM    6  N3  UNL     1     -25.142  37.995  -7.157  1.00  0.00    -0.187 N 
ATOM      7  H3  UNL     1     -24.689  38.771  -7.640  1.00  0.00     0.184 HD
HETATM    8  N6  UNL     1     -27.343  38.555  -6.284  1.00  0.00    -0.224 N 
ATOM      9  H6  UNL     1     -26.947  38.630  -5.348  1.00  0.00     0.177 HD
ENDROOT
BRANCH   6  10
HETATM   10  C3  UNL     1     -24.376  37.195  -6.520  1.00  0.00     0.101 A 
HETATM   11  C4  UNL     1     -23.166  36.897  -7.141  1.00  0.00     0.066 A 
HETATM   12  C5  UNL     1     -22.241  36.060  -6.566  1.00  0.00     0.064 A 
HETATM   13  N4  UNL     1     -21.015  35.831  -7.079  1.00  0.00    -0.338 N 
HETATM   14  C18 UNL     1     -22.542  35.474  -5.244  1.00  0.00     0.064 A 
HETATM   15  C12 UNL     1     -20.070  35.109  -6.370  1.00  0.00     0.065 A 
HETATM   16  C13 UNL     1     -18.764  34.979  -6.757  1.00  0.00     0.033 A 
HETATM   17  C17 UNL     1     -20.427  34.586  -5.125  1.00  0.00     0.094 A 
HETATM   18  C14 UNL     1     -17.780  34.355  -6.009  1.00  0.00     0.014 A 
HETATM   19  C15 UNL     1     -18.130  33.832  -4.790  1.00  0.00     0.001 A 
HETATM   20  C16 UNL     1     -19.434  33.955  -4.368  1.00  0.00     0.106 A 
HETATM   21  C23 UNL     1     -16.942  33.206  -4.158  1.00  0.00     0.209 C 
HETATM   22  O2  UNL     1     -19.982  33.501  -3.177  1.00  0.00    -0.346 OA
HETATM   23  C21 UNL     1     -19.385  32.724  -2.133  1.00  0.00     0.202 C 
HETATM   24  C22 UNL     1     -18.162  32.004  -2.707  1.00  0.00     0.194 C 
HETATM   25  O3  UNL     1     -17.160  32.947  -2.822  1.00  0.00    -0.384 OA
HETATM   26  N5  UNL     1     -21.636  34.755  -4.565  1.00  0.00    -0.350 N 
ATOM     27  H5  UNL     1     -21.858  34.349  -3.655  1.00  0.00     0.166 HD
HETATM   28  C19 UNL     1     -23.754  35.798  -4.668  1.00  0.00     0.089 A 
HETATM   29  C20 UNL     1     -24.650  36.639  -5.293  1.00  0.00     0.201 A 
HETATM   30  O1  UNL     1     -25.742  36.907  -4.735  1.00  0.00    -0.286 OA
BRANCH  13  31
HETATM   31  C6  UNL     1     -20.729  35.979  -8.500  1.00  0.00     0.090 C 
HETATM   32  C7  UNL     1     -19.988  37.074  -9.105  1.00  0.00     0.026 C 
HETATM   33  C8  UNL     1     -20.552  38.472  -8.989  1.00  0.00     0.002 C 
HETATM   34  C9  UNL     1     -21.603  38.596 -10.085  1.00  0.00     0.000 C 
HETATM   35  C10 UNL     1     -22.145  37.248 -10.313  1.00  0.00     0.002 C 
HETATM   36  C11 UNL     1     -22.134  36.281  -9.153  1.00  0.00     0.026 C 
ENDBRANCH  13  31
ENDBRANCH   6  10
BRANCH   8  37
HETATM   37  C24 UNL     1     -28.663  39.104  -6.480  1.00  0.00     0.168 C 
BRANCH  37  38
HETATM   38  C25 UNL     1     -28.872  40.361  -5.719  1.00  0.00     0.292 C 
BRANCH  38  39
HETATM   39  N7  UNL     1     -30.176  40.426  -5.083  1.00  0.00     0.094 N 
HETATM   40  C26 UNL     1     -30.146  40.116  -3.678  1.00  0.00     0.298 C 
HETATM   41  C27 UNL     1     -30.930  38.873  -3.399  1.00  0.00     0.198 C 
HETATM   42  O4  UNL     1     -32.252  39.032  -3.743  1.00  0.00    -0.388 OA
HETATM   43  C28 UNL     1     -32.447  39.786  -4.892  1.00  0.00     0.198 C 
HETATM   44  C29 UNL     1     -31.208  39.718  -5.792  1.00  0.00     0.298 C 
ENDBRANCH  38  39
ENDBRANCH  37  38
ENDBRANCH   8  37
TORSDOF 5
ENDMDL
MODEL 5
REMARK VINA RESULT: -7.985803848      4.505      8.717
REMARK  5 active torsions:
REMARK  status: ('A' for Active; 'I' for Inactive)
REMARK       I    between atoms: C2_5  and  N3_6 
REMARK       I    between atoms: C2_5  and  N6_35 
REMARK    1  A    between atoms: N3_6  and  C3_8 
REMARK    2  A    between atoms: N4_11  and  C6_12 
REMARK    3  A    between atoms: N6_35  and  C24_37 
REMARK    4  A    between atoms: C24_37  and  C25_38 
REMARK    5  A    between atoms: C25_38  and  N7_39 
ROOT
HETATM    1  N1  UNL     1     -26.647  30.153  -5.018  1.00  0.00    -0.171 NA
HETATM    2  C1  UNL     1     -27.208  31.130  -4.748  1.00  0.00     0.196 C 
HETATM    3  N2  UNL     1     -27.893  32.322  -4.392  1.00  0.00    -0.126 N 
ATOM      4  H2  UNL     1     -28.455  32.345  -3.541  1.00  0.00     0.197 HD
HETATM    5  C2  UNL     1     -27.813  33.376  -5.129  1.00  0.00     0.687 C 
HETATM    6  N3  UNL     1     -27.032  33.331  -6.302  1.00  0.00    -0.187 N 
ATOM      7  H3  UNL     1     -27.499  33.002  -7.147  1.00  0.00     0.184 HD
HETATM    8  N6  UNL     1     -28.497  34.571  -4.807  1.00  0.00    -0.224 N 
ATOM      9  H6  UNL     1     -28.076  35.443  -5.126  1.00  0.00     0.177 HD
ENDROOT
BRANCH   6  10
HETATM   10  C3  UNL     1     -25.801  33.656  -6.422  1.00  0.00     0.101 A 
HETATM   11  C4  UNL     1     -24.996  33.387  -5.319  1.00  0.00     0.066 A 
HETATM   12  C5  UNL     1     -23.652  33.674  -5.312  1.00  0.00     0.064 A 
HETATM   13  N4  UNL     1     -22.817  33.331  -4.311  1.00  0.00    -0.338 N 
HETATM   14  C18 UNL     1     -23.051  34.272  -6.521  1.00  0.00     0.064 A 
HETATM   15  C12 UNL     1     -21.449  33.501  -4.435  1.00  0.00     0.065 A 
HETATM   16  C13 UNL     1     -20.538  33.028  -3.530  1.00  0.00     0.033 A 
HETATM   17  C17 UNL     1     -20.953  34.074  -5.608  1.00  0.00     0.094 A 
HETATM   18  C14 UNL     1     -19.164  33.092  -3.691  1.00  0.00     0.014 A 
HETATM   19  C15 UNL     1     -18.674  33.663  -4.837  1.00  0.00     0.001 A 
HETATM   20  C16 UNL     1     -19.565  34.139  -5.771  1.00  0.00     0.106 A 
HETATM   21  C23 UNL     1     -17.190  33.638  -4.809  1.00  0.00     0.209 C 
HETATM   22  O2  UNL     1     -19.272  34.742  -6.986  1.00  0.00    -0.346 OA
HETATM   23  C21 UNL     1     -18.005  35.107  -7.545  1.00  0.00     0.202 C 
HETATM   24  C22 UNL     1     -16.986  35.203  -6.406  1.00  0.00     0.194 C 
HETATM   25  O3  UNL     1     -16.658  33.909  -6.052  1.00  0.00    -0.384 OA
HETATM   26  N5  UNL     1     -21.728  34.460  -6.635  1.00  0.00    -0.350 N 
ATOM     27  H5  UNL     1     -21.324  34.881  -7.473  1.00  0.00     0.166 HD
HETATM   28  C19 UNL     1     -23.889  34.522  -7.589  1.00  0.00     0.089 A 
HETATM   29  C20 UNL     1     -25.233  34.221  -7.539  1.00  0.00     0.201 A 
HETATM   30  O1  UNL     1     -25.960  34.464  -8.534  1.00  0.00    -0.286 OA
BRANCH  13  31
HETATM   31  C6  UNL     1     -23.285  33.131  -2.945  1.00  0.00     0.090 C 
HETATM   32  C7  UNL     1     -24.644  33.343  -2.476  1.00  0.00     0.026 C 
HETATM   33  C8  UNL     1     -25.221  34.739  -2.555  1.00  0.00     0.002 C 
HETATM   34  C9  UNL     1     -24.697  35.483  -1.333  1.00  0.00     0.000 C 
HETATM   35  C10 UNL     1     -23.394  34.888  -0.996  1.00  0.00     0.002 C 
HETATM   36  C11 UNL     1     -22.588  34.281  -2.119  1.00  0.00     0.026 C 
ENDBRANCH  13  31
ENDBRANCH   6  10
BRANCH   8  37
HETATM   37  C24 UNL     1     -29.733  34.675  -4.071  1.00  0.00     0.168 C 
BRANCH  37  38
HETATM   38  C25 UNL     1     -30.921  34.398  -4.916  1.00  0.00     0.292 C 
BRANCH  38  39
HETATM   39  N7  UNL     1     -31.432  33.049  -4.748  1.00  0.00     0.094 N 
HETATM   40  C26 UNL     1     -31.252  32.217  -5.908  1.00  0.00     0.298 C 
HETATM   41  C27 UNL     1     -32.577  31.818  -6.477  1.00  0.00     0.198 C 
HETATM   42  O4  UNL     1     -33.306  31.085  -5.570  1.00  0.00    -0.388 OA
HETATM   43  C28 UNL     1     -33.164  31.513  -4.258  1.00  0.00     0.198 C 
HETATM   44  C29 UNL     1     -32.768  32.992  -4.218  1.00  0.00     0.298 C 
ENDBRANCH  38  39
ENDBRANCH  37  38
ENDBRANCH   8  37
TORSDOF 5
ENDMDL
