MODEL 1
REMARK VINA RESULT: -7.287358046      0.000      0.000
REMARK  8 active torsions:
REMARK  status: ('A' for Active; 'I' for Inactive)
REMARK    1  A    between atoms: C2_2  and  S1_3 
REMARK    2  A    between atoms: S1_3  and  C3_6 
REMARK    3  A    between atoms: C6_9  and  C7_10 
REMARK    4  A    between atoms: C7_10  and  C8_11 
REMARK    5  A    between atoms: C8_11  and  C9_12 
REMARK    6  A    between atoms: C9_12  and  C10_13 
REMARK    7  A    between atoms: C10_13  and  N1_14 
REMARK    8  A    between atoms: N1_14  and  C11_16 
ROOT
HETATM    1  C11 UNL     1     -18.862  34.446  -5.289  1.00  0.00     0.113 A 
HETATM    2  N2  UNL     1     -17.875  34.137  -6.187  1.00  0.00    -0.338 N 
ATOM      3  H2  UNL     1     -17.823  34.627  -7.080  1.00  0.00     0.168 HD
HETATM    4  C12 UNL     1     -16.976  33.187  -5.889  1.00  0.00     0.184 A 
HETATM    5  N3  UNL     1     -17.048  32.546  -4.714  1.00  0.00    -0.332 N 
ATOM      6  H3  UNL     1     -16.363  31.824  -4.491  1.00  0.00     0.168 HD
HETATM    7  C13 UNL     1     -18.031  32.849  -3.810  1.00  0.00     0.161 A 
HETATM    8  C14 UNL     1     -18.985  33.821  -4.070  1.00  0.00     0.048 A 
HETATM    9  C15 UNL     1     -20.005  34.083  -3.107  1.00  0.00     0.018 C 
HETATM   10  C16 UNL     1     -20.727  35.339  -2.998  1.00  0.00     0.016 C 
HETATM   11  C17 UNL     1     -22.182  35.280  -3.423  1.00  0.00     0.001 C 
HETATM   12  C18 UNL     1     -22.912  34.411  -2.396  1.00  0.00     0.000 C 
HETATM   13  C19 UNL     1     -22.177  33.100  -2.292  1.00  0.00     0.001 C 
HETATM   14  C20 UNL     1     -21.065  32.973  -3.283  1.00  0.00     0.016 C 
HETATM   15  C21 UNL     1     -19.431  33.759  -1.712  1.00  0.00     0.180 C 
HETATM   16  C22 UNL     1     -18.236  34.609  -1.487  1.00  0.00     0.073 C 
HETATM   17  N4  UNL     1     -17.308  35.277  -1.308  1.00  0.00    -0.196 NA
HETATM   18  C23 UNL     1     -18.933  32.359  -1.666  1.00  0.00     0.138 C 
HETATM   19  N5  UNL     1     -19.302  31.451  -0.862  1.00  0.00    -0.382 N 
ATOM     20  H51 UNL     1     -18.960  30.491  -0.830  1.00  0.00     0.158 HD
ATOM     21  H52 UNL     1     -20.010  31.643  -0.153  1.00  0.00     0.158 HD
HETATM   22  O3  UNL     1     -17.954  32.093  -2.646  1.00  0.00    -0.279 OA
ENDROOT
BRANCH   1  23
HETATM   23  N1  UNL     1     -19.727  35.353  -5.556  1.00  0.00    -0.374 N 
ATOM     24  H1  UNL     1     -20.250  35.823  -4.817  1.00  0.00     0.161 HD
BRANCH  23  25
HETATM   25  C10 UNL     1     -19.929  35.680  -6.943  1.00  0.00     0.144 C 
BRANCH  25  26
HETATM   26  C9  UNL     1     -21.320  36.173  -7.276  1.00  0.00     0.043 C 
HETATM   27  C24 UNL     1     -21.564  36.264  -8.747  1.00  0.00     0.054 C 
HETATM   28  C25 UNL     1     -22.338  37.438  -9.206  1.00  0.00     0.273 C 
HETATM   29  N6  UNL     1     -23.197  37.904  -8.142  1.00  0.00     0.084 N 
HETATM   30  C26 UNL     1     -24.206  38.827  -8.597  1.00  0.00     0.309 C 
HETATM   31  C27 UNL     1     -22.314  38.496  -7.152  1.00  0.00     0.273 C 
HETATM   32  C28 UNL     1     -21.610  37.376  -6.470  1.00  0.00     0.054 C 
BRANCH  26  33
HETATM   33  C8  UNL     1     -22.221  35.081  -6.806  1.00  0.00    -0.089 C 
BRANCH  33  34
HETATM   34  C7  UNL     1     -22.945  34.196  -6.406  1.00  0.00    -0.066 C 
BRANCH  34  35
HETATM   35  C6  UNL     1     -23.791  33.154  -5.909  1.00  0.00     0.017 A 
HETATM   36  C5  UNL     1     -25.087  33.383  -5.492  1.00  0.00     0.022 A 
HETATM   37  C4  UNL     1     -25.838  32.345  -5.030  1.00  0.00     0.025 A 
HETATM   38  C3  UNL     1     -25.336  31.065  -4.968  1.00  0.00     0.063 A 
HETATM   39  C30 UNL     1     -24.046  30.854  -5.387  1.00  0.00     0.025 A 
HETATM   40  C29 UNL     1     -23.261  31.884  -5.858  1.00  0.00     0.022 A 
BRANCH  38  41
HETATM   41  S1  UNL     1     -26.268  29.716  -4.383  1.00  0.00     0.196 S 
HETATM   42  O1  UNL     1     -27.621  29.671  -5.040  1.00  0.00    -0.218 OA
HETATM   43  O2  UNL     1     -25.530  28.430  -4.730  1.00  0.00    -0.218 OA
BRANCH  41  44
HETATM   44  C2  UNL     1     -26.435  29.743  -2.644  1.00  0.00     0.104 C 
HETATM   45  C1  UNL     1     -25.746  30.604  -1.920  1.00  0.00     0.024 C 
ENDBRANCH  41  44
ENDBRANCH  38  41
ENDBRANCH  34  35
ENDBRANCH  33  34
ENDBRANCH  26  33
ENDBRANCH  25  26
ENDBRANCH  23  25
ENDBRANCH   1  23
TORSDOF 8
ENDMDL
MODEL 2
REMARK VINA RESULT: -7.173236336      0.802      1.073
REMARK  8 active torsions:
REMARK  status: ('A' for Active; 'I' for Inactive)
REMARK    1  A    between atoms: C2_2  and  S1_3 
REMARK    2  A    between atoms: S1_3  and  C3_6 
REMARK    3  A    between atoms: C6_9  and  C7_10 
REMARK    4  A    between atoms: C7_10  and  C8_11 
REMARK    5  A    between atoms: C8_11  and  C9_12 
REMARK    6  A    between atoms: C9_12  and  C10_13 
REMARK    7  A    between atoms: C10_13  and  N1_14 
REMARK    8  A    between atoms: N1_14  and  C11_16 
ROOT
HETATM    1  C11 UNL     1     -18.886  34.348  -5.238  1.00  0.00     0.113 A 
HETATM    2  N2  UNL     1     -17.943  33.992  -6.166  1.00  0.00    -0.338 N 
ATOM      3  H2  UNL     1     -17.903  34.473  -7.065  1.00  0.00     0.168 HD
HETATM    4  C12 UNL     1     -17.073  33.011  -5.889  1.00  0.00     0.184 A 
HETATM    5  N3  UNL     1     -17.129  32.384  -4.706  1.00  0.00    -0.332 N 
ATOM      6  H3  UNL     1     -16.465  31.638  -4.499  1.00  0.00     0.168 HD
HETATM    7  C13 UNL     1     -18.068  32.733  -3.773  1.00  0.00     0.161 A 
HETATM    8  C14 UNL     1     -18.992  33.739  -4.010  1.00  0.00     0.048 A 
HETATM    9  C15 UNL     1     -19.968  34.049  -3.015  1.00  0.00     0.018 C 
HETATM   10  C16 UNL     1     -20.636  35.333  -2.895  1.00  0.00     0.016 C 
HETATM   11  C17 UNL     1     -22.106  35.327  -3.270  1.00  0.00     0.001 C 
HETATM   12  C18 UNL     1     -22.834  34.497  -2.210  1.00  0.00     0.000 C 
HETATM   13  C19 UNL     1     -22.147  33.159  -2.118  1.00  0.00     0.001 C 
HETATM   14  C20 UNL     1     -21.075  32.980  -3.145  1.00  0.00     0.016 C 
HETATM   15  C21 UNL     1     -19.359  33.715  -1.637  1.00  0.00     0.180 C 
HETATM   16  C22 UNL     1     -18.125  34.519  -1.462  1.00  0.00     0.073 C 
HETATM   17  N4  UNL     1     -17.167  35.152  -1.321  1.00  0.00    -0.196 NA
HETATM   18  C23 UNL     1     -18.914  32.297  -1.594  1.00  0.00     0.138 C 
HETATM   19  N5  UNL     1     -19.291  31.411  -0.769  1.00  0.00    -0.382 N 
ATOM     20  H51 UNL     1     -18.985  30.439  -0.740  1.00  0.00     0.158 HD
ATOM     21  H52 UNL     1     -19.966  31.637  -0.039  1.00  0.00     0.158 HD
HETATM   22  O3  UNL     1     -17.981  31.985  -2.604  1.00  0.00    -0.279 OA
ENDROOT
BRANCH   1  23
HETATM   23  N1  UNL     1     -19.725  35.286  -5.485  1.00  0.00    -0.374 N 
ATOM     24  H1  UNL     1     -20.198  35.787  -4.734  1.00  0.00     0.161 HD
BRANCH  23  25
HETATM   25  C10 UNL     1     -19.968  35.602  -6.868  1.00  0.00     0.144 C 
BRANCH  25  26
HETATM   26  C9  UNL     1     -21.361  36.117  -7.158  1.00  0.00     0.043 C 
HETATM   27  C24 UNL     1     -21.653  36.198  -8.621  1.00  0.00     0.054 C 
HETATM   28  C25 UNL     1     -22.421  37.382  -9.065  1.00  0.00     0.273 C 
HETATM   29  N6  UNL     1     -23.234  37.875  -7.977  1.00  0.00     0.084 N 
HETATM   30  C26 UNL     1     -24.242  38.812  -8.407  1.00  0.00     0.309 C 
HETATM   31  C27 UNL     1     -22.308  38.460  -7.024  1.00  0.00     0.273 C 
HETATM   32  C28 UNL     1     -21.601  37.333  -6.355  1.00  0.00     0.054 C 
BRANCH  26  33
HETATM   33  C8  UNL     1     -22.265  35.047  -6.647  1.00  0.00    -0.089 C 
BRANCH  33  34
HETATM   34  C7  UNL     1     -22.987  34.174  -6.216  1.00  0.00    -0.066 C 
BRANCH  34  35
HETATM   35  C6  UNL     1     -23.833  33.150  -5.684  1.00  0.00     0.017 A 
HETATM   36  C5  UNL     1     -25.024  33.427  -5.044  1.00  0.00     0.022 A 
HETATM   37  C4  UNL     1     -25.781  32.404  -4.560  1.00  0.00     0.025 A 
HETATM   38  C3  UNL     1     -25.388  31.091  -4.694  1.00  0.00     0.063 A 
HETATM   39  C30 UNL     1     -24.201  30.832  -5.333  1.00  0.00     0.025 A 
HETATM   40  C29 UNL     1     -23.413  31.847  -5.832  1.00  0.00     0.022 A 
BRANCH  38  41
HETATM   41  S1  UNL     1     -26.332  29.760  -4.088  1.00  0.00     0.196 S 
HETATM   42  O1  UNL     1     -25.598  28.458  -4.258  1.00  0.00    -0.218 OA
HETATM   43  O2  UNL     1     -26.575  29.976  -2.600  1.00  0.00    -0.218 OA
BRANCH  41  44
HETATM   44  C2  UNL     1     -27.905  29.678  -4.844  1.00  0.00     0.104 C 
HETATM   45  C1  UNL     1     -28.039  29.913  -6.135  1.00  0.00     0.024 C 
ENDBRANCH  41  44
ENDBRANCH  38  41
ENDBRANCH  34  35
ENDBRANCH  33  34
ENDBRANCH  26  33
ENDBRANCH  25  26
ENDBRANCH  23  25
ENDBRANCH   1  23
TORSDOF 8
ENDMDL
MODEL 3
REMARK VINA RESULT: -7.156438810      0.778      1.216
REMARK  8 active torsions:
REMARK  status: ('A' for Active; 'I' for Inactive)
REMARK    1  A    between atoms: C2_2  and  S1_3 
REMARK    2  A    between atoms: S1_3  and  C3_6 
REMARK    3  A    between atoms: C6_9  and  C7_10 
REMARK    4  A    between atoms: C7_10  and  C8_11 
REMARK    5  A    between atoms: C8_11  and  C9_12 
REMARK    6  A    between atoms: C9_12  and  C10_13 
REMARK    7  A    between atoms: C10_13  and  N1_14 
REMARK    8  A    between atoms: N1_14  and  C11_16 
ROOT
HETATM    1  C11 UNL     1     -18.902  34.347  -5.232  1.00  0.00     0.113 A 
HETATM    2  N2  UNL     1     -17.957  33.994  -6.160  1.00  0.00    -0.338 N 
ATOM      3  H2  UNL     1     -17.921  34.471  -7.060  1.00  0.00     0.168 HD
HETATM    4  C12 UNL     1     -17.081  33.018  -5.880  1.00  0.00     0.184 A 
HETATM    5  N3  UNL     1     -17.134  32.394  -4.695  1.00  0.00    -0.332 N 
ATOM      6  H3  UNL     1     -16.465  31.653  -4.485  1.00  0.00     0.168 HD
HETATM    7  C13 UNL     1     -18.074  32.741  -3.762  1.00  0.00     0.161 A 
HETATM    8  C14 UNL     1     -19.004  33.741  -4.002  1.00  0.00     0.048 A 
HETATM    9  C15 UNL     1     -19.981  34.048  -3.008  1.00  0.00     0.018 C 
HETATM   10  C16 UNL     1     -20.657  35.329  -2.891  1.00  0.00     0.016 C 
HETATM   11  C17 UNL     1     -22.127  35.313  -3.266  1.00  0.00     0.001 C 
HETATM   12  C18 UNL     1     -22.850  34.482  -2.203  1.00  0.00     0.000 C 
HETATM   13  C19 UNL     1     -22.154  33.148  -2.107  1.00  0.00     0.001 C 
HETATM   14  C20 UNL     1     -21.082  32.972  -3.134  1.00  0.00     0.016 C 
HETATM   15  C21 UNL     1     -19.370  33.722  -1.630  1.00  0.00     0.180 C 
HETATM   16  C22 UNL     1     -18.141  34.534  -1.457  1.00  0.00     0.073 C 
HETATM   17  N4  UNL     1     -17.186  35.173  -1.318  1.00  0.00    -0.196 NA
HETATM   18  C23 UNL     1     -18.917  32.307  -1.582  1.00  0.00     0.138 C 
HETATM   19  N5  UNL     1     -19.288  31.422  -0.754  1.00  0.00    -0.382 N 
ATOM     20  H51 UNL     1     -18.977  30.451  -0.721  1.00  0.00     0.158 HD
ATOM     21  H52 UNL     1     -19.964  31.646  -0.024  1.00  0.00     0.158 HD
HETATM   22  O3  UNL     1     -17.982  31.997  -2.591  1.00  0.00    -0.279 OA
ENDROOT
BRANCH   1  23
HETATM   23  N1  UNL     1     -19.746  35.279  -5.482  1.00  0.00    -0.374 N 
ATOM     24  H1  UNL     1     -20.234  35.769  -4.732  1.00  0.00     0.161 HD
BRANCH  23  25
HETATM   25  C10 UNL     1     -19.975  35.604  -6.865  1.00  0.00     0.144 C 
BRANCH  25  26
HETATM   26  C9  UNL     1     -21.377  36.084  -7.173  1.00  0.00     0.043 C 
HETATM   27  C24 UNL     1     -21.655  36.148  -8.639  1.00  0.00     0.054 C 
HETATM   28  C25 UNL     1     -22.447  37.310  -9.101  1.00  0.00     0.273 C 
HETATM   29  N6  UNL     1     -23.283  37.790  -8.024  1.00  0.00     0.084 N 
HETATM   30  C26 UNL     1     -24.308  38.699  -8.471  1.00  0.00     0.309 C 
HETATM   31  C27 UNL     1     -22.381  38.403  -7.066  1.00  0.00     0.273 C 
HETATM   32  C28 UNL     1     -21.654  37.299  -6.381  1.00  0.00     0.054 C 
BRANCH  26  33
HETATM   33  C8  UNL     1     -22.260  34.995  -6.664  1.00  0.00    -0.089 C 
BRANCH  33  34
HETATM   34  C7  UNL     1     -22.963  34.097  -6.256  1.00  0.00    -0.066 C 
BRANCH  34  35
HETATM   35  C6  UNL     1     -23.781  33.036  -5.752  1.00  0.00     0.017 A 
HETATM   36  C5  UNL     1     -23.431  31.707  -5.870  1.00  0.00     0.022 A 
HETATM   37  C4  UNL     1     -24.255  30.746  -5.368  1.00  0.00     0.025 A 
HETATM   38  C3  UNL     1     -25.438  31.069  -4.741  1.00  0.00     0.063 A 
HETATM   39  C30 UNL     1     -25.772  32.396  -4.631  1.00  0.00     0.025 A 
HETATM   40  C29 UNL     1     -24.958  33.390  -5.130  1.00  0.00     0.022 A 
BRANCH  38  41
HETATM   41  S1  UNL     1     -26.514  29.868  -4.088  1.00  0.00     0.196 S 
HETATM   42  O1  UNL     1     -26.616  29.990  -2.592  1.00  0.00    -0.218 OA
HETATM   43  O2  UNL     1     -27.901  30.089  -4.676  1.00  0.00    -0.218 OA
BRANCH  41  44
HETATM   44  C2  UNL     1     -26.035  28.248  -4.536  1.00  0.00     0.104 C 
HETATM   45  C1  UNL     1     -26.071  27.271  -3.649  1.00  0.00     0.024 C 
ENDBRANCH  41  44
ENDBRANCH  38  41
ENDBRANCH  34  35
ENDBRANCH  33  34
ENDBRANCH  26  33
ENDBRANCH  25  26
ENDBRANCH  23  25
ENDBRANCH   1  23
TORSDOF 8
ENDMDL
MODEL 4
REMARK VINA RESULT: -6.568646633      2.628      4.463
REMARK  8 active torsions:
REMARK  status: ('A' for Active; 'I' for Inactive)
REMARK    1  A    between atoms: C2_2  and  S1_3 
REMARK    2  A    between atoms: S1_3  and  C3_6 
REMARK    3  A    between atoms: C6_9  and  C7_10 
REMARK    4  A    between atoms: C7_10  and  C8_11 
REMARK    5  A    between atoms: C8_11  and  C9_12 
REMARK    6  A    between atoms: C9_12  and  C10_13 
REMARK    7  A    between atoms: C10_13  and  N1_14 
REMARK    8  A    between atoms: N1_14  and  C11_16 
ROOT
HETATM    1  C11 UNL     1     -22.730  35.772  -4.533  1.00  0.00     0.113 A 
HETATM    2  N2  UNL     1     -23.057  36.088  -3.240  1.00  0.00    -0.338 N 
ATOM      3  H2  UNL     1     -23.786  36.776  -3.050  1.00  0.00     0.168 HD
HETATM    4  C12 UNL     1     -22.416  35.491  -2.226  1.00  0.00     0.184 A 
HETATM    5  N3  UNL     1     -21.459  34.588  -2.481  1.00  0.00    -0.332 N 
ATOM      6  H3  UNL     1     -20.973  34.135  -1.706  1.00  0.00     0.168 HD
HETATM    7  C13 UNL     1     -21.125  34.265  -3.769  1.00  0.00     0.161 A 
HETATM    8  C14 UNL     1     -21.757  34.855  -4.854  1.00  0.00     0.048 A 
HETATM    9  C15 UNL     1     -21.356  34.505  -6.178  1.00  0.00     0.018 C 
HETATM   10  C16 UNL     1     -22.204  34.630  -7.351  1.00  0.00     0.016 C 
HETATM   11  C17 UNL     1     -21.801  35.727  -8.318  1.00  0.00     0.001 C 
HETATM   12  C18 UNL     1     -20.468  35.304  -8.942  1.00  0.00     0.000 C 
HETATM   13  C19 UNL     1     -19.510  34.995  -7.820  1.00  0.00     0.001 C 
HETATM   14  C20 UNL     1     -20.070  35.308  -6.470  1.00  0.00     0.016 C 
HETATM   15  C21 UNL     1     -20.828  33.056  -6.144  1.00  0.00     0.180 C 
HETATM   16  C22 UNL     1     -21.913  32.173  -5.649  1.00  0.00     0.073 C 
HETATM   17  N4  UNL     1     -22.761  31.482  -5.271  1.00  0.00    -0.196 NA
HETATM   18  C23 UNL     1     -19.730  32.925  -5.150  1.00  0.00     0.138 C 
HETATM   19  N5  UNL     1     -18.551  32.519  -5.376  1.00  0.00    -0.382 N 
ATOM     20  H51 UNL     1     -17.798  32.429  -4.694  1.00  0.00     0.158 HD
ATOM     21  H52 UNL     1     -18.269  32.240  -6.316  1.00  0.00     0.158 HD
HETATM   22  O3  UNL     1     -20.118  33.311  -3.851  1.00  0.00    -0.279 OA
ENDROOT
BRANCH   1  23
HETATM   23  N1  UNL     1     -23.335  36.331  -5.515  1.00  0.00    -0.374 N 
ATOM     24  H1  UNL     1     -22.907  36.390  -6.439  1.00  0.00     0.161 HD
BRANCH  23  25
HETATM   25  C10 UNL     1     -24.643  36.872  -5.258  1.00  0.00     0.144 C 
BRANCH  25  26
HETATM   26  C9  UNL     1     -25.701  36.458  -6.258  1.00  0.00     0.043 C 
HETATM   27  C24 UNL     1     -25.265  36.655  -7.673  1.00  0.00     0.054 C 
HETATM   28  C25 UNL     1     -26.294  37.166  -8.606  1.00  0.00     0.273 C 
HETATM   29  N6  UNL     1     -27.609  36.797  -8.133  1.00  0.00     0.084 N 
HETATM   30  C26 UNL     1     -28.635  36.970  -9.131  1.00  0.00     0.309 C 
HETATM   31  C27 UNL     1     -27.846  37.606  -6.951  1.00  0.00     0.273 C 
HETATM   32  C28 UNL     1     -26.994  37.051  -5.863  1.00  0.00     0.054 C 
BRANCH  26  33
HETATM   33  C8  UNL     1     -25.807  34.980  -6.094  1.00  0.00    -0.089 C 
BRANCH  33  34
HETATM   34  C7  UNL     1     -25.873  33.778  -5.959  1.00  0.00    -0.066 C 
BRANCH  34  35
HETATM   35  C6  UNL     1     -25.925  32.356  -5.800  1.00  0.00     0.017 A 
HETATM   36  C5  UNL     1     -26.160  31.752  -4.582  1.00  0.00     0.022 A 
HETATM   37  C4  UNL     1     -26.197  30.393  -4.501  1.00  0.00     0.025 A 
HETATM   38  C3  UNL     1     -26.005  29.600  -5.610  1.00  0.00     0.063 A 
HETATM   39  C30 UNL     1     -25.773  30.217  -6.814  1.00  0.00     0.025 A 
HETATM   40  C29 UNL     1     -25.729  31.590  -6.927  1.00  0.00     0.022 A 
BRANCH  38  41
HETATM   41  S1  UNL     1     -26.046  27.862  -5.542  1.00  0.00     0.196 S 
HETATM   42  O1  UNL     1     -25.319  27.260  -6.714  1.00  0.00    -0.218 OA
HETATM   43  O2  UNL     1     -25.345  27.410  -4.268  1.00  0.00    -0.218 OA
BRANCH  41  44
HETATM   44  C2  UNL     1     -27.680  27.249  -5.458  1.00  0.00     0.104 C 
HETATM   45  C1  UNL     1     -28.692  27.988  -5.871  1.00  0.00     0.024 C 
ENDBRANCH  41  44
ENDBRANCH  38  41
ENDBRANCH  34  35
ENDBRANCH  33  34
ENDBRANCH  26  33
ENDBRANCH  25  26
ENDBRANCH  23  25
ENDBRANCH   1  23
TORSDOF 8
ENDMDL
MODEL 5
REMARK VINA RESULT: -6.506797071      4.706      8.793
REMARK  8 active torsions:
REMARK  status: ('A' for Active; 'I' for Inactive)
REMARK    1  A    between atoms: C2_2  and  S1_3 
REMARK    2  A    between atoms: S1_3  and  C3_6 
REMARK    3  A    between atoms: C6_9  and  C7_10 
REMARK    4  A    between atoms: C7_10  and  C8_11 
REMARK    5  A    between atoms: C8_11  and  C9_12 
REMARK    6  A    between atoms: C9_12  and  C10_13 
REMARK    7  A    between atoms: C10_13  and  N1_14 
REMARK    8  A    between atoms: N1_14  and  C11_16 
ROOT
HETATM    1  C11 UNL     1     -26.970  29.692  -4.629  1.00  0.00     0.113 A 
HETATM    2  N2  UNL     1     -26.715  29.861  -3.293  1.00  0.00    -0.338 N 
ATOM      3  H2  UNL     1     -26.750  30.792  -2.879  1.00  0.00     0.168 HD
HETATM    4  C12 UNL     1     -26.421  28.797  -2.531  1.00  0.00     0.184 A 
HETATM    5  N3  UNL     1     -26.377  27.575  -3.080  1.00  0.00    -0.332 N 
ATOM      6  H3  UNL     1     -26.153  26.769  -2.498  1.00  0.00     0.168 HD
HETATM    7  C13 UNL     1     -26.630  27.397  -4.414  1.00  0.00     0.161 A 
HETATM    8  C14 UNL     1     -26.938  28.464  -5.245  1.00  0.00     0.048 A 
HETATM    9  C15 UNL     1     -27.169  28.230  -6.634  1.00  0.00     0.018 C 
HETATM   10  C16 UNL     1     -27.957  29.099  -7.492  1.00  0.00     0.016 C 
HETATM   11  C17 UNL     1     -27.159  29.881  -8.518  1.00  0.00     0.001 C 
HETATM   12  C18 UNL     1     -26.611  28.866  -9.524  1.00  0.00     0.000 C 
HETATM   13  C19 UNL     1     -25.874  27.801  -8.752  1.00  0.00     0.001 C 
HETATM   14  C20 UNL     1     -25.777  28.100  -7.291  1.00  0.00     0.016 C 
HETATM   15  C21 UNL     1     -27.730  26.801  -6.786  1.00  0.00     0.180 C 
HETATM   16  C22 UNL     1     -28.984  26.703  -5.999  1.00  0.00     0.073 C 
HETATM   17  N4  UNL     1     -29.966  26.629  -5.392  1.00  0.00    -0.196 NA
HETATM   18  C23 UNL     1     -26.804  25.811  -6.175  1.00  0.00     0.138 C 
HETATM   19  N5  UNL     1     -26.268  24.820  -6.756  1.00  0.00    -0.382 N 
ATOM     20  H51 UNL     1     -25.633  24.140  -6.337  1.00  0.00     0.158 HD
ATOM     21  H52 UNL     1     -26.454  24.633  -7.741  1.00  0.00     0.158 HD
HETATM   22  O3  UNL     1     -26.547  26.069  -4.813  1.00  0.00    -0.279 OA
ENDROOT
BRANCH   1  23
HETATM   23  N1  UNL     1     -27.256  30.697  -5.371  1.00  0.00    -0.374 N 
ATOM     24  H1  UNL     1     -27.244  30.627  -6.388  1.00  0.00     0.161 HD
BRANCH  23  25
HETATM   25  C10 UNL     1     -27.596  31.928  -4.708  1.00  0.00     0.144 C 
BRANCH  25  26
HETATM   26  C9  UNL     1     -26.968  33.163  -5.315  1.00  0.00     0.043 C 
HETATM   27  C24 UNL     1     -27.575  34.429  -4.806  1.00  0.00     0.054 C 
HETATM   28  C25 UNL     1     -27.773  35.503  -5.805  1.00  0.00     0.273 C 
HETATM   29  N6  UNL     1     -26.816  35.355  -6.878  1.00  0.00     0.084 N 
HETATM   30  C26 UNL     1     -26.725  36.525  -7.715  1.00  0.00     0.309 C 
HETATM   31  C27 UNL     1     -27.231  34.177  -7.618  1.00  0.00     0.273 C 
HETATM   32  C28 UNL     1     -26.894  32.993  -6.780  1.00  0.00     0.054 C 
BRANCH  26  33
HETATM   33  C8  UNL     1     -25.574  33.168  -4.785  1.00  0.00    -0.089 C 
BRANCH  33  34
HETATM   34  C7  UNL     1     -24.445  33.191  -4.347  1.00  0.00    -0.066 C 
BRANCH  34  35
HETATM   35  C6  UNL     1     -23.119  33.211  -3.808  1.00  0.00     0.017 A 
HETATM   36  C5  UNL     1     -22.862  33.452  -2.474  1.00  0.00     0.022 A 
HETATM   37  C4  UNL     1     -21.576  33.457  -2.027  1.00  0.00     0.025 A 
HETATM   38  C3  UNL     1     -20.517  33.225  -2.876  1.00  0.00     0.063 A 
HETATM   39  C30 UNL     1     -20.790  32.987  -4.201  1.00  0.00     0.025 A 
HETATM   40  C29 UNL     1     -22.081  32.977  -4.682  1.00  0.00     0.022 A 
BRANCH  38  41
HETATM   41  S1  UNL     1     -18.862  33.224  -2.338  1.00  0.00     0.196 S 
HETATM   42  O1  UNL     1     -18.560  34.450  -1.520  1.00  0.00    -0.218 OA
HETATM   43  O2  UNL     1     -18.639  32.001  -1.459  1.00  0.00    -0.218 OA
BRANCH  41  44
HETATM   44  C2  UNL     1     -17.742  33.090  -3.673  1.00  0.00     0.104 C 
HETATM   45  C1  UNL     1     -17.237  31.918  -4.007  1.00  0.00     0.024 C 
ENDBRANCH  41  44
ENDBRANCH  38  41
ENDBRANCH  34  35
ENDBRANCH  33  34
ENDBRANCH  26  33
ENDBRANCH  25  26
ENDBRANCH  23  25
ENDBRANCH   1  23
TORSDOF 8
ENDMDL
