MODEL 1
REMARK VINA RESULT: -9.181189899      0.000      0.000
REMARK  6 active torsions:
REMARK  status: ('A' for Active; 'I' for Inactive)
REMARK    1  A    between atoms: N2_5  and  C4_6 
REMARK    2  A    between atoms: C7_9  and  N3_10 
REMARK    3  A    between atoms: N3_10  and  C8_11 
REMARK    4  A    between atoms: C10_15  and  C11_16 
REMARK    5  A    between atoms: C13_20  and  N6_21 
REMARK    6  A    between atoms: N6_21  and  C14_23 
ROOT
HETATM    1  C8  UNL     1     -19.308  35.527  -7.487  1.00  0.00     0.261 A 
HETATM    2  N4  UNL     1     -19.823  34.663  -6.604  1.00  0.00    -0.315 N 
ATOM      3  H4  UNL     1     -20.835  34.538  -6.584  1.00  0.00     0.170 HD
HETATM    4  C9  UNL     1     -19.077  33.956  -5.747  1.00  0.00     0.058 A 
HETATM    5  C10 UNL     1     -19.643  33.078  -4.847  1.00  0.00     0.004 A 
HETATM    6  C25 UNL     1     -18.805  32.379  -3.978  1.00  0.00     0.014 A 
HETATM    7  C26 UNL     1     -17.445  32.495  -3.949  1.00  0.00     0.002 A 
HETATM    8  C27 UNL     1     -16.918  33.393  -4.878  1.00  0.00     0.015 A 
HETATM    9  C28 UNL     1     -17.692  34.094  -5.739  1.00  0.00     0.007 A 
HETATM   10  C29 UNL     1     -17.135  34.980  -6.639  1.00  0.00     0.106 A 
HETATM   11  N9  UNL     1     -17.905  35.643  -7.450  1.00  0.00    -0.325 N 
ATOM     12  H9  UNL     1     -17.463  36.289  -8.104  1.00  0.00     0.169 HD
ENDROOT
BRANCH   5  13
HETATM   13  C11 UNL     1     -21.081  32.850  -4.761  1.00  0.00     0.008 A 
HETATM   14  C12 UNL     1     -21.714  32.267  -5.875  1.00  0.00     0.120 A 
HETATM   15  N5  UNL     1     -23.021  31.978  -5.819  1.00  0.00    -0.201 N 
HETATM   16  C13 UNL     1     -23.800  32.210  -4.750  1.00  0.00     0.682 A 
ATOM     17  H5  UNL     1     -23.452  31.555  -6.641  1.00  0.00     0.183 HD
HETATM   18  N8  UNL     1     -23.214  32.771  -3.678  1.00  0.00    -0.201 N 
HETATM   19  C24 UNL     1     -21.876  33.086  -3.681  1.00  0.00     0.120 A 
ATOM     20  H8  UNL     1     -23.772  32.965  -2.847  1.00  0.00     0.183 HD
BRANCH  16  21
HETATM   21  N6  UNL     1     -25.025  31.828  -4.692  1.00  0.00    -0.192 N 
ATOM     22  H6  UNL     1     -25.729  32.564  -4.744  1.00  0.00     0.184 HD
BRANCH  21  23
HETATM   23  C14 UNL     1     -25.511  30.508  -4.563  1.00  0.00     0.049 A 
HETATM   24  C15 UNL     1     -26.042  30.046  -3.394  1.00  0.00     0.030 A 
HETATM   25  C16 UNL     1     -26.507  28.737  -3.191  1.00  0.00     0.012 A 
HETATM   26  C17 UNL     1     -26.404  27.870  -4.294  1.00  0.00    -0.024 A 
HETATM   27  C18 UNL     1     -25.882  28.295  -5.472  1.00  0.00    -0.046 A 
HETATM   28  C23 UNL     1     -26.828  26.455  -4.159  1.00  0.00     0.311 C 
HETATM   29  C19 UNL     1     -25.432  29.613  -5.619  1.00  0.00     0.037 A 
HETATM   30  C20 UNL     1     -25.833  27.353  -6.614  1.00  0.00     0.069 C 
HETATM   31  C21 UNL     1     -27.161  26.589  -6.552  1.00  0.00     0.277 C 
HETATM   32  N7  UNL     1     -27.332  25.857  -5.344  1.00  0.00     0.088 N 
HETATM   33  C22 UNL     1     -28.719  25.504  -5.125  1.00  0.00     0.310 C 
ENDBRANCH  21  23
ENDBRANCH  16  21
ENDBRANCH   5  13
BRANCH   1  34
HETATM   34  N3  UNL     1     -19.854  36.185  -8.327  1.00  0.00    -0.352 NA
BRANCH  34  35
HETATM   35  C7  UNL     1     -20.453  36.899  -9.250  1.00  0.00     0.182 A 
HETATM   36  C6  UNL     1     -19.668  37.868  -9.975  1.00  0.00     0.066 A 
HETATM   37  C5  UNL     1     -20.142  38.642 -10.953  1.00  0.00     0.035 A 
HETATM   38  C4  UNL     1     -21.465  38.530 -11.313  1.00  0.00     0.046 A 
HETATM   39  C30 UNL     1     -22.246  37.613 -10.633  1.00  0.00     0.120 A 
HETATM   40  N10 UNL     1     -21.747  36.843  -9.655  1.00  0.00    -0.339 N 
ATOM     41  H10 UNL     1     -22.372  36.183  -9.192  1.00  0.00     0.168 HD
BRANCH  38  42
HETATM   42  N2  UNL     1     -21.945  39.316 -12.398  1.00  0.00    -0.376 N 
HETATM   43  C3  UNL     1     -23.343  39.432 -12.712  1.00  0.00     0.153 C 
HETATM   44  C2  UNL     1     -23.717  40.527 -13.635  1.00  0.00     0.291 C 
HETATM   45  N1  UNL     1     -22.705  40.990 -14.535  1.00  0.00     0.087 N 
HETATM   46  C1  UNL     1     -22.223  42.318 -14.212  1.00  0.00     0.310 C 
HETATM   47  C32 UNL     1     -21.580  40.071 -14.621  1.00  0.00     0.291 C 
HETATM   48  C31 UNL     1     -20.965  39.990 -13.227  1.00  0.00     0.153 C 
ENDBRANCH  38  42
ENDBRANCH  34  35
ENDBRANCH   1  34
TORSDOF 6
ENDMDL
MODEL 2
REMARK VINA RESULT: -9.101882546      1.501      2.216
REMARK  6 active torsions:
REMARK  status: ('A' for Active; 'I' for Inactive)
REMARK    1  A    between atoms: N2_5  and  C4_6 
REMARK    2  A    between atoms: C7_9  and  N3_10 
REMARK    3  A    between atoms: N3_10  and  C8_11 
REMARK    4  A    between atoms: C10_15  and  C11_16 
REMARK    5  A    between atoms: C13_20  and  N6_21 
REMARK    6  A    between atoms: N6_21  and  C14_23 
ROOT
HETATM    1  C8  UNL     1     -18.908  35.067  -6.594  1.00  0.00     0.261 A 
HETATM    2  N4  UNL     1     -19.567  34.474  -5.591  1.00  0.00    -0.315 N 
ATOM      3  H4  UNL     1     -20.576  34.605  -5.531  1.00  0.00     0.170 HD
HETATM    4  C9  UNL     1     -18.967  33.720  -4.662  1.00  0.00     0.058 A 
HETATM    5  C10 UNL     1     -19.677  33.129  -3.638  1.00  0.00     0.004 A 
HETATM    6  C25 UNL     1     -18.985  32.362  -2.701  1.00  0.00     0.014 A 
HETATM    7  C26 UNL     1     -17.638  32.143  -2.718  1.00  0.00     0.002 A 
HETATM    8  C27 UNL     1     -16.962  32.759  -3.772  1.00  0.00     0.015 A 
HETATM    9  C28 UNL     1     -17.591  33.514  -4.703  1.00  0.00     0.007 A 
HETATM   10  C29 UNL     1     -16.887  34.115  -5.728  1.00  0.00     0.106 A 
HETATM   11  N9  UNL     1     -17.518  34.838  -6.604  1.00  0.00    -0.325 N 
ATOM     12  H9  UNL     1     -16.970  35.268  -7.350  1.00  0.00     0.169 HD
ENDROOT
BRANCH   5  13
HETATM   13  C11 UNL     1     -21.120  33.274  -3.490  1.00  0.00     0.008 A 
HETATM   14  C12 UNL     1     -21.931  32.806  -4.542  1.00  0.00     0.120 A 
HETATM   15  N5  UNL     1     -23.265  32.857  -4.424  1.00  0.00    -0.201 N 
HETATM   16  C13 UNL     1     -23.909  33.336  -3.348  1.00  0.00     0.682 A 
ATOM     17  H5  UNL     1     -23.826  32.509  -5.201  1.00  0.00     0.183 HD
HETATM   18  N8  UNL     1     -23.151  33.792  -2.335  1.00  0.00    -0.201 N 
HETATM   19  C24 UNL     1     -21.779  33.763  -2.403  1.00  0.00     0.120 A 
ATOM     20  H8  UNL     1     -23.603  34.168  -1.501  1.00  0.00     0.183 HD
BRANCH  16  21
HETATM   21  N6  UNL     1     -25.186  33.277  -3.223  1.00  0.00    -0.192 N 
ATOM     22  H6  UNL     1     -25.617  34.000  -2.646  1.00  0.00     0.184 HD
BRANCH  21  23
HETATM   23  C14 UNL     1     -26.065  32.329  -3.791  1.00  0.00     0.049 A 
HETATM   24  C15 UNL     1     -27.064  32.692  -4.646  1.00  0.00     0.030 A 
HETATM   25  C16 UNL     1     -27.992  31.804  -5.214  1.00  0.00     0.012 A 
HETATM   26  C17 UNL     1     -27.848  30.452  -4.854  1.00  0.00    -0.024 A 
HETATM   27  C18 UNL     1     -26.866  30.054  -4.007  1.00  0.00    -0.046 A 
HETATM   28  C23 UNL     1     -28.811  29.448  -5.369  1.00  0.00     0.311 C 
HETATM   29  C19 UNL     1     -25.967  30.984  -3.469  1.00  0.00     0.037 A 
HETATM   30  C20 UNL     1     -26.734  28.613  -3.692  1.00  0.00     0.069 C 
HETATM   31  C21 UNL     1     -26.990  27.894  -5.022  1.00  0.00     0.277 C 
HETATM   32  N7  UNL     1     -28.284  28.143  -5.556  1.00  0.00     0.088 N 
HETATM   33  C22 UNL     1     -28.353  27.818  -6.964  1.00  0.00     0.310 C 
ENDBRANCH  21  23
ENDBRANCH  16  21
ENDBRANCH   5  13
BRANCH   1  34
HETATM   34  N3  UNL     1     -19.326  35.727  -7.503  1.00  0.00    -0.352 NA
BRANCH  34  35
HETATM   35  C7  UNL     1     -19.776  36.449  -8.501  1.00  0.00     0.182 A 
HETATM   36  C6  UNL     1     -20.813  35.888  -9.332  1.00  0.00     0.066 A 
HETATM   37  C5  UNL     1     -21.376  36.520 -10.363  1.00  0.00     0.035 A 
HETATM   38  C4  UNL     1     -20.960  37.793 -10.677  1.00  0.00     0.046 A 
HETATM   39  C30 UNL     1     -19.963  38.357  -9.901  1.00  0.00     0.120 A 
HETATM   40  N10 UNL     1     -19.412  37.704  -8.868  1.00  0.00    -0.339 N 
ATOM     41  H10 UNL     1     -18.683  38.174  -8.332  1.00  0.00     0.168 HD
BRANCH  38  42
HETATM   42  N2  UNL     1     -21.610  38.480 -11.739  1.00  0.00    -0.376 N 
HETATM   43  C3  UNL     1     -20.945  39.468 -12.544  1.00  0.00     0.153 C 
HETATM   44  C2  UNL     1     -21.624  39.850 -13.803  1.00  0.00     0.291 C 
HETATM   45  N1  UNL     1     -23.043  39.673 -13.853  1.00  0.00     0.087 N 
HETATM   46  C1  UNL     1     -23.451  38.598 -14.736  1.00  0.00     0.310 C 
HETATM   47  C32 UNL     1     -23.621  39.465 -12.534  1.00  0.00     0.291 C 
HETATM   48  C31 UNL     1     -23.008  38.183 -11.978  1.00  0.00     0.153 C 
ENDBRANCH  38  42
ENDBRANCH  34  35
ENDBRANCH   1  34
TORSDOF 6
ENDMDL
MODEL 3
REMARK VINA RESULT: -8.982471117      1.184      1.579
REMARK  6 active torsions:
REMARK  status: ('A' for Active; 'I' for Inactive)
REMARK    1  A    between atoms: N2_5  and  C4_6 
REMARK    2  A    between atoms: C7_9  and  N3_10 
REMARK    3  A    between atoms: N3_10  and  C8_11 
REMARK    4  A    between atoms: C10_15  and  C11_16 
REMARK    5  A    between atoms: C13_20  and  N6_21 
REMARK    6  A    between atoms: N6_21  and  C14_23 
ROOT
HETATM    1  C8  UNL     1     -19.389  35.390  -7.057  1.00  0.00     0.261 A 
HETATM    2  N4  UNL     1     -19.863  34.700  -6.011  1.00  0.00    -0.315 N 
ATOM      3  H4  UNL     1     -20.866  34.726  -5.830  1.00  0.00     0.170 HD
HETATM    4  C9  UNL     1     -19.086  33.980  -5.194  1.00  0.00     0.058 A 
HETATM    5  C10 UNL     1     -19.608  33.287  -4.122  1.00  0.00     0.004 A 
HETATM    6  C25 UNL     1     -18.739  32.562  -3.308  1.00  0.00     0.014 A 
HETATM    7  C26 UNL     1     -17.388  32.481  -3.490  1.00  0.00     0.002 A 
HETATM    8  C27 UNL     1     -16.906  33.198  -4.586  1.00  0.00     0.015 A 
HETATM    9  C28 UNL     1     -17.712  33.917  -5.403  1.00  0.00     0.007 A 
HETATM   10  C29 UNL     1     -17.197  34.619  -6.474  1.00  0.00     0.106 A 
HETATM   11  N9  UNL     1     -17.996  35.303  -7.238  1.00  0.00    -0.325 N 
ATOM     12  H9  UNL     1     -17.585  35.812  -8.021  1.00  0.00     0.169 HD
ENDROOT
BRANCH   5  13
HETATM   13  C11 UNL     1     -21.031  33.279  -3.802  1.00  0.00     0.008 A 
HETATM   14  C12 UNL     1     -21.900  32.653  -4.717  1.00  0.00     0.120 A 
HETATM   15  N5  UNL     1     -23.207  32.563  -4.435  1.00  0.00    -0.201 N 
HETATM   16  C13 UNL     1     -23.771  33.040  -3.314  1.00  0.00     0.682 A 
ATOM     17  H5  UNL     1     -23.811  32.103  -5.115  1.00  0.00     0.183 HD
HETATM   18  N8  UNL     1     -22.958  33.646  -2.430  1.00  0.00    -0.201 N 
HETATM   19  C24 UNL     1     -21.610  33.764  -2.669  1.00  0.00     0.120 A 
ATOM     20  H8  UNL     1     -23.349  34.024  -1.568  1.00  0.00     0.183 HD
BRANCH  16  21
HETATM   21  N6  UNL     1     -25.008  32.847  -3.027  1.00  0.00    -0.192 N 
ATOM     22  H6  UNL     1     -25.386  33.410  -2.264  1.00  0.00     0.184 HD
BRANCH  21  23
HETATM   23  C14 UNL     1     -25.907  31.949  -3.643  1.00  0.00     0.049 A 
HETATM   24  C15 UNL     1     -26.885  32.376  -4.492  1.00  0.00     0.030 A 
HETATM   25  C16 UNL     1     -27.831  31.539  -5.106  1.00  0.00     0.012 A 
HETATM   26  C17 UNL     1     -27.730  30.170  -4.800  1.00  0.00    -0.024 A 
HETATM   27  C18 UNL     1     -26.769  29.709  -3.961  1.00  0.00    -0.046 A 
HETATM   28  C23 UNL     1     -28.714  29.216  -5.367  1.00  0.00     0.311 C 
HETATM   29  C19 UNL     1     -25.851  30.590  -3.375  1.00  0.00     0.037 A 
HETATM   30  C20 UNL     1     -26.682  28.253  -3.705  1.00  0.00     0.069 C 
HETATM   31  C21 UNL     1     -26.942  27.597  -5.066  1.00  0.00     0.277 C 
HETATM   32  N7  UNL     1     -28.223  27.905  -5.602  1.00  0.00     0.088 N 
HETATM   33  C22 UNL     1     -28.284  27.640  -7.024  1.00  0.00     0.310 C 
ENDBRANCH  21  23
ENDBRANCH  16  21
ENDBRANCH   5  13
BRANCH   1  34
HETATM   34  N3  UNL     1     -19.975  36.035  -7.880  1.00  0.00    -0.352 NA
BRANCH  34  35
HETATM   35  C7  UNL     1     -20.612  36.736  -8.787  1.00  0.00     0.182 A 
HETATM   36  C6  UNL     1     -19.857  37.693  -9.559  1.00  0.00     0.066 A 
HETATM   37  C5  UNL     1     -20.372  38.455 -10.526  1.00  0.00     0.035 A 
HETATM   38  C4  UNL     1     -21.710  38.341 -10.828  1.00  0.00     0.046 A 
HETATM   39  C30 UNL     1     -22.461  37.435 -10.101  1.00  0.00     0.120 A 
HETATM   40  N10 UNL     1     -21.922  36.678  -9.135  1.00  0.00    -0.339 N 
ATOM     41  H10 UNL     1     -22.527  36.026  -8.636  1.00  0.00     0.168 HD
BRANCH  38  42
HETATM   42  N2  UNL     1     -22.234  39.112 -11.902  1.00  0.00    -0.376 N 
HETATM   43  C3  UNL     1     -23.645  39.248 -12.140  1.00  0.00     0.153 C 
HETATM   44  C2  UNL     1     -24.051  40.330 -13.066  1.00  0.00     0.291 C 
HETATM   45  N1  UNL     1     -23.082  40.753 -14.031  1.00  0.00     0.087 N 
HETATM   46  C1  UNL     1     -22.558  42.079 -13.766  1.00  0.00     0.310 C 
HETATM   47  C32 UNL     1     -21.981  39.811 -14.158  1.00  0.00     0.291 C 
HETATM   48  C31 UNL     1     -21.290  39.748 -12.799  1.00  0.00     0.153 C 
ENDBRANCH  38  42
ENDBRANCH  34  35
ENDBRANCH   1  34
TORSDOF 6
ENDMDL
MODEL 4
REMARK VINA RESULT: -8.929612612      1.780      2.106
REMARK  6 active torsions:
REMARK  status: ('A' for Active; 'I' for Inactive)
REMARK    1  A    between atoms: N2_5  and  C4_6 
REMARK    2  A    between atoms: C7_9  and  N3_10 
REMARK    3  A    between atoms: N3_10  and  C8_11 
REMARK    4  A    between atoms: C10_15  and  C11_16 
REMARK    5  A    between atoms: C13_20  and  N6_21 
REMARK    6  A    between atoms: N6_21  and  C14_23 
ROOT
HETATM    1  C8  UNL     1     -19.352  35.288  -6.858  1.00  0.00     0.261 A 
HETATM    2  N4  UNL     1     -19.816  34.602  -5.806  1.00  0.00    -0.315 N 
ATOM      3  H4  UNL     1     -20.814  34.649  -5.600  1.00  0.00     0.170 HD
HETATM    4  C9  UNL     1     -19.036  33.859  -5.011  1.00  0.00     0.058 A 
HETATM    5  C10 UNL     1     -19.549  33.171  -3.932  1.00  0.00     0.004 A 
HETATM    6  C25 UNL     1     -18.676  32.422  -3.143  1.00  0.00     0.014 A 
HETATM    7  C26 UNL     1     -17.333  32.313  -3.357  1.00  0.00     0.002 A 
HETATM    8  C27 UNL     1     -16.860  33.025  -4.460  1.00  0.00     0.015 A 
HETATM    9  C28 UNL     1     -17.669  33.767  -5.254  1.00  0.00     0.007 A 
HETATM   10  C29 UNL     1     -17.164  34.465  -6.332  1.00  0.00     0.106 A 
HETATM   11  N9  UNL     1     -17.965  35.172  -7.072  1.00  0.00    -0.325 N 
ATOM     12  H9  UNL     1     -17.561  35.676  -7.862  1.00  0.00     0.169 HD
ENDROOT
BRANCH   5  13
HETATM   13  C11 UNL     1     -20.963  33.192  -3.578  1.00  0.00     0.008 A 
HETATM   14  C12 UNL     1     -21.874  32.655  -4.508  1.00  0.00     0.120 A 
HETATM   15  N5  UNL     1     -23.177  32.593  -4.200  1.00  0.00    -0.201 N 
HETATM   16  C13 UNL     1     -23.698  33.018  -3.039  1.00  0.00     0.682 A 
ATOM     17  H5  UNL     1     -23.812  32.196  -4.893  1.00  0.00     0.183 HD
HETATM   18  N8  UNL     1     -22.845  33.540  -2.140  1.00  0.00    -0.201 N 
HETATM   19  C24 UNL     1     -21.499  33.626  -2.404  1.00  0.00     0.120 A 
ATOM     20  H8  UNL     1     -23.203  33.877  -1.247  1.00  0.00     0.183 HD
BRANCH  16  21
HETATM   21  N6  UNL     1     -24.935  32.851  -2.734  1.00  0.00    -0.192 N 
ATOM     22  H6  UNL     1     -25.288  33.414  -1.960  1.00  0.00     0.184 HD
BRANCH  21  23
HETATM   23  C14 UNL     1     -25.863  31.979  -3.344  1.00  0.00     0.049 A 
HETATM   24  C15 UNL     1     -25.982  30.673  -2.968  1.00  0.00     0.030 A 
HETATM   25  C16 UNL     1     -26.857  29.748  -3.559  1.00  0.00     0.012 A 
HETATM   26  C17 UNL     1     -27.652  30.240  -4.610  1.00  0.00    -0.024 A 
HETATM   27  C18 UNL     1     -27.562  31.532  -5.011  1.00  0.00    -0.046 A 
HETATM   28  C23 UNL     1     -28.574  29.323  -5.325  1.00  0.00     0.311 C 
HETATM   29  C19 UNL     1     -26.670  32.413  -4.385  1.00  0.00     0.037 A 
HETATM   30  C20 UNL     1     -28.451  32.008  -6.095  1.00  0.00     0.069 C 
HETATM   31  C21 UNL     1     -29.805  31.347  -5.813  1.00  0.00     0.277 C 
HETATM   32  N7  UNL     1     -29.752  29.926  -5.837  1.00  0.00     0.088 N 
HETATM   33  C22 UNL     1     -30.895  29.337  -5.173  1.00  0.00     0.310 C 
ENDBRANCH  21  23
ENDBRANCH  16  21
ENDBRANCH   5  13
BRANCH   1  34
HETATM   34  N3  UNL     1     -19.942  35.951  -7.664  1.00  0.00    -0.352 NA
BRANCH  34  35
HETATM   35  C7  UNL     1     -20.585  36.672  -8.551  1.00  0.00     0.182 A 
HETATM   36  C6  UNL     1     -19.832  37.631  -9.321  1.00  0.00     0.066 A 
HETATM   37  C5  UNL     1     -20.353  38.412 -10.269  1.00  0.00     0.035 A 
HETATM   38  C4  UNL     1     -21.696  38.316 -10.552  1.00  0.00     0.046 A 
HETATM   39  C30 UNL     1     -22.447  37.407  -9.828  1.00  0.00     0.120 A 
HETATM   40  N10 UNL     1     -21.901  36.632  -8.880  1.00  0.00    -0.339 N 
ATOM     41  H10 UNL     1     -22.505  35.979  -8.381  1.00  0.00     0.168 HD
BRANCH  38  42
HETATM   42  N2  UNL     1     -22.229  39.107 -11.607  1.00  0.00    -0.376 N 
HETATM   43  C3  UNL     1     -23.640  39.319 -11.780  1.00  0.00     0.153 C 
HETATM   44  C2  UNL     1     -24.030  40.415 -12.696  1.00  0.00     0.291 C 
HETATM   45  N1  UNL     1     -23.086  40.779 -13.709  1.00  0.00     0.087 N 
HETATM   46  C1  UNL     1     -22.479  42.075 -13.481  1.00  0.00     0.310 C 
HETATM   47  C32 UNL     1     -22.045  39.777 -13.880  1.00  0.00     0.291 C 
HETATM   48  C31 UNL     1     -21.295  39.685 -12.554  1.00  0.00     0.153 C 
ENDBRANCH  38  42
ENDBRANCH  34  35
ENDBRANCH   1  34
TORSDOF 6
ENDMDL
MODEL 5
REMARK VINA RESULT: -8.892434571      2.279      2.716
REMARK  6 active torsions:
REMARK  status: ('A' for Active; 'I' for Inactive)
REMARK    1  A    between atoms: N2_5  and  C4_6 
REMARK    2  A    between atoms: C7_9  and  N3_10 
REMARK    3  A    between atoms: N3_10  and  C8_11 
REMARK    4  A    between atoms: C10_15  and  C11_16 
REMARK    5  A    between atoms: C13_20  and  N6_21 
REMARK    6  A    between atoms: N6_21  and  C14_23 
ROOT
HETATM    1  C8  UNL     1     -19.647  35.719  -6.971  1.00  0.00     0.261 A 
HETATM    2  N4  UNL     1     -19.976  34.870  -5.989  1.00  0.00    -0.315 N 
ATOM      3  H4  UNL     1     -20.942  34.858  -5.663  1.00  0.00     0.170 HD
HETATM    4  C9  UNL     1     -19.100  34.036  -5.415  1.00  0.00     0.058 A 
HETATM    5  C10 UNL     1     -19.473  33.179  -4.401  1.00  0.00     0.004 A 
HETATM    6  C25 UNL     1     -18.506  32.344  -3.843  1.00  0.00     0.014 A 
HETATM    7  C26 UNL     1     -17.197  32.304  -4.228  1.00  0.00     0.002 A 
HETATM    8  C27 UNL     1     -16.867  33.187  -5.256  1.00  0.00     0.015 A 
HETATM    9  C28 UNL     1     -17.771  34.018  -5.827  1.00  0.00     0.007 A 
HETATM   10  C29 UNL     1     -17.405  34.884  -6.837  1.00  0.00     0.106 A 
HETATM   11  N9  UNL     1     -18.295  35.673  -7.362  1.00  0.00    -0.325 N 
ATOM     12  H9  UNL     1     -17.993  36.301  -8.107  1.00  0.00     0.169 HD
ENDROOT
BRANCH   5  13
HETATM   13  C11 UNL     1     -20.836  33.110  -3.884  1.00  0.00     0.008 A 
HETATM   14  C12 UNL     1     -21.838  32.643  -4.756  1.00  0.00     0.120 A 
HETATM   15  N5  UNL     1     -23.092  32.499  -4.308  1.00  0.00    -0.201 N 
HETATM   16  C13 UNL     1     -23.481  32.776  -3.053  1.00  0.00     0.682 A 
ATOM     17  H5  UNL     1     -23.796  32.158  -4.962  1.00  0.00     0.183 HD
HETATM   18  N8  UNL     1     -22.539  33.228  -2.207  1.00  0.00    -0.201 N 
HETATM   19  C24 UNL     1     -21.237  33.393  -2.614  1.00  0.00     0.120 A 
ATOM     20  H8  UNL     1     -22.795  33.452  -1.246  1.00  0.00     0.183 HD
BRANCH  16  21
HETATM   21  N6  UNL     1     -24.668  32.531  -2.627  1.00  0.00    -0.192 N 
ATOM     22  H6  UNL     1     -24.941  32.995  -1.761  1.00  0.00     0.184 HD
BRANCH  21  23
HETATM   23  C14 UNL     1     -25.640  31.694  -3.217  1.00  0.00     0.049 A 
HETATM   24  C15 UNL     1     -25.903  30.444  -2.738  1.00  0.00     0.030 A 
HETATM   25  C16 UNL     1     -26.828  29.550  -3.301  1.00  0.00     0.012 A 
HETATM   26  C17 UNL     1     -27.515  30.013  -4.438  1.00  0.00    -0.024 A 
HETATM   27  C18 UNL     1     -27.280  31.250  -4.942  1.00  0.00    -0.046 A 
HETATM   28  C23 UNL     1     -28.478  29.121  -5.128  1.00  0.00     0.311 C 
HETATM   29  C19 UNL     1     -26.345  32.101  -4.340  1.00  0.00     0.037 A 
HETATM   30  C20 UNL     1     -28.060  31.703  -6.118  1.00  0.00     0.069 C 
HETATM   31  C21 UNL     1     -29.484  31.194  -5.866  1.00  0.00     0.277 C 
HETATM   32  N7  UNL     1     -29.565  29.778  -5.764  1.00  0.00     0.088 N 
HETATM   33  C22 UNL     1     -30.793  29.357  -5.125  1.00  0.00     0.310 C 
ENDBRANCH  21  23
ENDBRANCH  16  21
ENDBRANCH   5  13
BRANCH   1  34
HETATM   34  N3  UNL     1     -20.335  36.479  -7.591  1.00  0.00    -0.352 NA
BRANCH  34  35
HETATM   35  C7  UNL     1     -21.092  37.314  -8.263  1.00  0.00     0.182 A 
HETATM   36  C6  UNL     1     -21.645  38.445  -7.561  1.00  0.00     0.066 A 
HETATM   37  C5  UNL     1     -22.411  39.381  -8.125  1.00  0.00     0.035 A 
HETATM   38  C4  UNL     1     -22.708  39.285  -9.466  1.00  0.00     0.046 A 
HETATM   39  C30 UNL     1     -22.195  38.208 -10.166  1.00  0.00     0.120 A 
HETATM   40  N10 UNL     1     -21.426  37.280  -9.578  1.00  0.00    -0.339 N 
ATOM     41  H10 UNL     1     -21.075  36.511 -10.148  1.00  0.00     0.168 HD
BRANCH  38  42
HETATM   42  N2  UNL     1     -23.472  40.321 -10.070  1.00  0.00    -0.376 N 
HETATM   43  C3  UNL     1     -23.864  40.288 -11.452  1.00  0.00     0.153 C 
HETATM   44  C2  UNL     1     -24.921  41.243 -11.856  1.00  0.00     0.291 C 
HETATM   45  N1  UNL     1     -25.059  42.428 -11.064  1.00  0.00     0.087 N 
HETATM   46  C1  UNL     1     -26.272  42.443 -10.271  1.00  0.00     0.310 C 
HETATM   47  C32 UNL     1     -23.910  42.653 -10.201  1.00  0.00     0.291 C 
HETATM   48  C31 UNL     1     -23.828  41.462  -9.250  1.00  0.00     0.153 C 
ENDBRANCH  38  42
ENDBRANCH  34  35
ENDBRANCH   1  34
TORSDOF 6
ENDMDL
