MODEL 1
REMARK VINA RESULT: -8.882822977      0.000      0.000
REMARK  4 active torsions:
REMARK  status: ('A' for Active; 'I' for Inactive)
REMARK    1  A    between atoms: N1_4  and  C4_5 
REMARK    2  A    between atoms: C4_5  and  C5_6 
REMARK    3  A    between atoms: C16_27  and  N6_28 
REMARK       I    between atoms: N6_28  and  C17_30 
REMARK       I    between atoms: C17_30  and  N7_32 
REMARK    4  A    between atoms: N8_35  and  C20_36 
ROOT
HETATM    1  C1  UNL     1     -23.150  37.371 -12.058  1.00  0.00     0.021 C 
HETATM    2  C2  UNL     1     -22.306  38.077 -11.298  1.00  0.00    -0.029 C 
HETATM    3  C3  UNL     1     -22.033  39.472 -11.707  1.00  0.00     0.311 C 
HETATM    4  N1  UNL     1     -22.318  39.710 -13.132  1.00  0.00     0.101 N 
HETATM    5  C6  UNL     1     -23.108  40.948 -13.265  1.00  0.00     0.299 C 
HETATM    6  C7  UNL     1     -24.577  40.733 -13.222  1.00  0.00     0.198 C 
HETATM    7  O1  UNL     1     -25.143  40.743 -11.971  1.00  0.00    -0.386 OA
HETATM    8  C8  UNL     1     -25.223  42.047 -11.506  1.00  0.00     0.194 C 
HETATM    9  C9  UNL     1     -26.110  42.208 -10.327  1.00  0.00    -0.003 C 
HETATM   10  C10 UNL     1     -26.132  41.458  -9.259  1.00  0.00    -0.003 C 
HETATM   11  C11 UNL     1     -25.281  40.286  -8.986  1.00  0.00     0.194 C 
HETATM   12  O2  UNL     1     -23.979  40.603  -8.595  1.00  0.00    -0.387 OA
HETATM   13  C12 UNL     1     -23.375  39.408  -8.211  1.00  0.00     0.172 C 
HETATM   14  C13 UNL     1     -21.912  39.324  -8.525  1.00  0.00     0.066 C 
HETATM   15  C14 UNL     1     -21.527  37.903  -8.896  1.00  0.00    -0.043 A 
HETATM   16  C15 UNL     1     -20.964  37.096  -7.934  1.00  0.00     0.037 A 
HETATM   17  C16 UNL     1     -20.576  35.761  -8.129  1.00  0.00     0.036 A 
HETATM   18  C28 UNL     1     -20.796  35.271  -9.384  1.00  0.00     0.030 A 
HETATM   19  C29 UNL     1     -21.364  36.073 -10.370  1.00  0.00     0.015 A 
HETATM   20  C30 UNL     1     -21.738  37.389 -10.154  1.00  0.00    -0.022 A 
ENDROOT
BRANCH  17  21
HETATM   21  N6  UNL     1     -20.027  35.039  -7.044  1.00  0.00    -0.309 N 
HETATM   22  C17 UNL     1     -18.673  34.897  -6.796  1.00  0.00     0.323 C 
HETATM   23  O3  UNL     1     -17.777  35.424  -7.538  1.00  0.00    -0.247 OA
HETATM   24  N7  UNL     1     -18.242  34.127  -5.661  1.00  0.00    -0.331 N 
HETATM   25  C18 UNL     1     -16.833  33.958  -5.384  1.00  0.00     0.147 C 
HETATM   26  C27 UNL     1     -19.222  33.527  -4.802  1.00  0.00     0.147 C 
HETATM   27  C19 UNL     1     -16.672  32.493  -4.978  1.00  0.00     0.143 C 
HETATM   28  N8  UNL     1     -17.464  32.242  -3.799  1.00  0.00    -0.378 N 
HETATM   29  C26 UNL     1     -18.615  33.057  -3.483  1.00  0.00     0.143 C 
ATOM     30  H6  UNL     1     -20.677  34.590  -6.399  1.00  0.00     0.170 HD
BRANCH  28  31
HETATM   31  C20 UNL     1     -17.074  31.158  -2.966  1.00  0.00     0.030 A 
HETATM   32  C21 UNL     1     -15.852  30.564  -3.210  1.00  0.00     0.029 A 
HETATM   33  C22 UNL     1     -15.441  29.502  -2.402  1.00  0.00     0.002 A 
HETATM   34  C23 UNL     1     -16.247  29.063  -1.384  1.00  0.00     0.000 A 
HETATM   35  C24 UNL     1     -17.463  29.661  -1.146  1.00  0.00     0.002 A 
HETATM   36  C25 UNL     1     -17.872  30.707  -1.939  1.00  0.00     0.029 A 
ENDBRANCH  28  31
ENDBRANCH  17  21
BRANCH   4  37
HETATM   37  C4  UNL     1     -21.082  39.867 -13.897  1.00  0.00     0.351 C 
BRANCH  37  38
HETATM   38  C5  UNL     1     -20.164  40.748 -13.155  1.00  0.00     0.141 A 
HETATM   39  N2  UNL     1     -20.159  42.086 -13.056  1.00  0.00    -0.271 N 
HETATM   40  N3  UNL     1     -19.148  42.440 -12.296  1.00  0.00    -0.227 N 
ATOM     41  H2  UNL     1     -20.826  42.720 -13.496  1.00  0.00     0.190 HD
HETATM   42  N4  UNL     1     -18.515  41.365 -11.912  1.00  0.00    -0.227 N 
ATOM     43  H3  UNL     1     -18.899  43.397 -12.046  1.00  0.00     0.210 HD
HETATM   44  N5  UNL     1     -19.120  40.311 -12.427  1.00  0.00    -0.271 N 
ATOM     45  H4  UNL     1     -17.689  41.343 -11.313  1.00  0.00     0.210 HD
ATOM     46  H5  UNL     1     -18.845  39.337 -12.296  1.00  0.00     0.190 HD
ENDBRANCH  37  38
ENDBRANCH   4  37
TORSDOF 4
ENDMDL
MODEL 2
REMARK VINA RESULT: -8.738093535      4.298      5.234
REMARK  4 active torsions:
REMARK  status: ('A' for Active; 'I' for Inactive)
REMARK    1  A    between atoms: N1_4  and  C4_5 
REMARK    2  A    between atoms: C4_5  and  C5_6 
REMARK    3  A    between atoms: C16_27  and  N6_28 
REMARK       I    between atoms: N6_28  and  C17_30 
REMARK       I    between atoms: C17_30  and  N7_32 
REMARK    4  A    between atoms: N8_35  and  C20_36 
ROOT
HETATM    1  C1  UNL     1     -20.456  38.737 -13.496  1.00  0.00     0.021 C 
HETATM    2  C2  UNL     1     -21.127  39.550 -12.674  1.00  0.00    -0.029 C 
HETATM    3  C3  UNL     1     -21.464  40.898 -13.182  1.00  0.00     0.311 C 
HETATM    4  N1  UNL     1     -20.594  41.318 -14.293  1.00  0.00     0.101 N 
HETATM    5  C6  UNL     1     -21.429  41.860 -15.380  1.00  0.00     0.299 C 
HETATM    6  C7  UNL     1     -21.857  40.845 -16.375  1.00  0.00     0.198 C 
HETATM    7  O1  UNL     1     -23.021  40.179 -16.083  1.00  0.00    -0.386 OA
HETATM    8  C8  UNL     1     -24.106  41.010 -16.321  1.00  0.00     0.194 C 
HETATM    9  C9  UNL     1     -25.407  40.298 -16.360  1.00  0.00    -0.003 C 
HETATM   10  C10 UNL     1     -25.836  39.407 -15.508  1.00  0.00    -0.003 C 
HETATM   11  C11 UNL     1     -25.122  38.911 -14.317  1.00  0.00     0.194 C 
HETATM   12  O2  UNL     1     -25.141  39.789 -13.232  1.00  0.00    -0.387 OA
HETATM   13  C12 UNL     1     -24.586  39.103 -12.153  1.00  0.00     0.172 C 
HETATM   14  C13 UNL     1     -23.793  39.960 -11.216  1.00  0.00     0.066 C 
HETATM   15  C14 UNL     1     -22.612  39.187 -10.657  1.00  0.00    -0.043 A 
HETATM   16  C15 UNL     1     -22.725  38.616  -9.410  1.00  0.00     0.037 A 
HETATM   17  C16 UNL     1     -21.725  37.861  -8.777  1.00  0.00     0.036 A 
HETATM   18  C28 UNL     1     -20.572  37.709  -9.493  1.00  0.00     0.030 A 
HETATM   19  C29 UNL     1     -20.440  38.280 -10.755  1.00  0.00     0.015 A 
HETATM   20  C30 UNL     1     -21.442  39.022 -11.359  1.00  0.00    -0.022 A 
ENDROOT
BRANCH  17  21
HETATM   21  N6  UNL     1     -21.982  37.312  -7.499  1.00  0.00    -0.309 N 
HETATM   22  C17 UNL     1     -22.362  36.001  -7.266  1.00  0.00     0.323 C 
HETATM   23  O3  UNL     1     -22.510  35.149  -8.206  1.00  0.00    -0.247 OA
HETATM   24  N7  UNL     1     -22.603  35.567  -5.918  1.00  0.00    -0.331 N 
HETATM   25  C18 UNL     1     -23.007  34.205  -5.650  1.00  0.00     0.147 C 
HETATM   26  C27 UNL     1     -22.440  36.495  -4.837  1.00  0.00     0.147 C 
HETATM   27  C19 UNL     1     -24.097  34.307  -4.582  1.00  0.00     0.143 C 
HETATM   28  N8  UNL     1     -23.543  34.924  -3.402  1.00  0.00    -0.378 N 
HETATM   29  C26 UNL     1     -22.392  35.794  -3.482  1.00  0.00     0.143 C 
ATOM     30  H6  UNL     1     -21.882  37.926  -6.691  1.00  0.00     0.170 HD
BRANCH  28  31
HETATM   31  C20 UNL     1     -24.178  34.649  -2.160  1.00  0.00     0.030 A 
HETATM   32  C21 UNL     1     -24.225  35.659  -1.220  1.00  0.00     0.029 A 
HETATM   33  C22 UNL     1     -24.849  35.418   0.005  1.00  0.00     0.002 A 
HETATM   34  C23 UNL     1     -25.404  34.191   0.261  1.00  0.00     0.000 A 
HETATM   35  C24 UNL     1     -25.354  33.189  -0.680  1.00  0.00     0.002 A 
HETATM   36  C25 UNL     1     -24.741  33.422  -1.889  1.00  0.00     0.029 A 
ENDBRANCH  28  31
ENDBRANCH  17  21
BRANCH   4  37
HETATM   37  C4  UNL     1     -19.660  42.359 -13.865  1.00  0.00     0.351 C 
BRANCH  37  38
HETATM   38  C5  UNL     1     -18.505  41.728 -13.204  1.00  0.00     0.141 A 
HETATM   39  N2  UNL     1     -17.550  40.940 -13.721  1.00  0.00    -0.271 N 
HETATM   40  N3  UNL     1     -16.726  40.601 -12.756  1.00  0.00    -0.227 N 
ATOM     41  H2  UNL     1     -17.476  40.654 -14.697  1.00  0.00     0.190 HD
HETATM   42  N4  UNL     1     -17.133  41.151 -11.644  1.00  0.00    -0.227 N 
ATOM     43  H3  UNL     1     -15.905  40.006 -12.858  1.00  0.00     0.210 HD
HETATM   44  N5  UNL     1     -18.225  41.850 -11.893  1.00  0.00    -0.271 N 
ATOM     45  H4  UNL     1     -16.681  41.057 -10.734  1.00  0.00     0.210 HD
ATOM     46  H5  UNL     1     -18.762  42.387 -11.212  1.00  0.00     0.190 HD
ENDBRANCH  37  38
ENDBRANCH   4  37
TORSDOF 4
ENDMDL
MODEL 3
REMARK VINA RESULT: -8.261877736      2.727      4.401
REMARK  4 active torsions:
REMARK  status: ('A' for Active; 'I' for Inactive)
REMARK    1  A    between atoms: N1_4  and  C4_5 
REMARK    2  A    between atoms: C4_5  and  C5_6 
REMARK    3  A    between atoms: C16_27  and  N6_28 
REMARK       I    between atoms: N6_28  and  C17_30 
REMARK       I    between atoms: C17_30  and  N7_32 
REMARK    4  A    between atoms: N8_35  and  C20_36 
ROOT
HETATM    1  C1  UNL     1     -23.510  40.301  -9.054  1.00  0.00     0.021 C 
HETATM    2  C2  UNL     1     -23.469  39.018  -9.430  1.00  0.00    -0.029 C 
HETATM    3  C3  UNL     1     -24.256  38.636 -10.622  1.00  0.00     0.311 C 
HETATM    4  N1  UNL     1     -25.343  39.587 -10.910  1.00  0.00     0.101 N 
HETATM    5  C6  UNL     1     -25.320  39.924 -12.345  1.00  0.00     0.299 C 
HETATM    6  C7  UNL     1     -24.482  41.105 -12.674  1.00  0.00     0.198 C 
HETATM    7  O1  UNL     1     -23.157  40.844 -12.918  1.00  0.00    -0.386 OA
HETATM    8  C8  UNL     1     -23.017  40.276 -14.175  1.00  0.00     0.194 C 
HETATM    9  C9  UNL     1     -21.619  40.262 -14.674  1.00  0.00    -0.003 C 
HETATM   10  C10 UNL     1     -20.557  39.896 -14.009  1.00  0.00    -0.003 C 
HETATM   11  C11 UNL     1     -20.510  39.414 -12.617  1.00  0.00     0.194 C 
HETATM   12  O2  UNL     1     -20.925  38.092 -12.455  1.00  0.00    -0.387 OA
HETATM   13  C12 UNL     1     -20.654  37.746 -11.132  1.00  0.00     0.172 C 
HETATM   14  C13 UNL     1     -21.648  36.807 -10.521  1.00  0.00     0.066 C 
HETATM   15  C14 UNL     1     -21.840  37.118  -9.048  1.00  0.00    -0.043 A 
HETATM   16  C15 UNL     1     -21.154  36.372  -8.117  1.00  0.00     0.037 A 
HETATM   17  C16 UNL     1     -21.222  36.559  -6.728  1.00  0.00     0.036 A 
HETATM   18  C28 UNL     1     -22.041  37.571  -6.317  1.00  0.00     0.030 A 
HETATM   19  C29 UNL     1     -22.743  38.336  -7.244  1.00  0.00     0.015 A 
HETATM   20  C30 UNL     1     -22.661  38.132  -8.612  1.00  0.00    -0.022 A 
ENDROOT
BRANCH  17  21
HETATM   21  N6  UNL     1     -20.445  35.731  -5.884  1.00  0.00    -0.309 N 
HETATM   22  C17 UNL     1     -19.234  35.161  -6.237  1.00  0.00     0.323 C 
HETATM   23  O3  UNL     1     -18.693  35.342  -7.380  1.00  0.00    -0.247 OA
HETATM   24  N7  UNL     1     -18.544  34.329  -5.289  1.00  0.00    -0.331 N 
HETATM   25  C18 UNL     1     -17.281  33.717  -5.636  1.00  0.00     0.147 C 
HETATM   26  C27 UNL     1     -19.118  34.110  -3.993  1.00  0.00     0.147 C 
HETATM   27  C19 UNL     1     -17.354  32.293  -5.083  1.00  0.00     0.143 C 
HETATM   28  N8  UNL     1     -17.524  32.353  -3.651  1.00  0.00    -0.378 N 
HETATM   29  C26 UNL     1     -18.112  33.510  -3.015  1.00  0.00     0.143 C 
ATOM     30  H6  UNL     1     -20.803  35.540  -4.948  1.00  0.00     0.170 HD
BRANCH  28  31
HETATM   31  C20 UNL     1     -17.098  31.228  -2.894  1.00  0.00     0.030 A 
HETATM   32  C21 UNL     1     -15.895  30.641  -3.230  1.00  0.00     0.029 A 
HETATM   33  C22 UNL     1     -15.449  29.539  -2.498  1.00  0.00     0.002 A 
HETATM   34  C23 UNL     1     -16.204  29.055  -1.462  1.00  0.00     0.000 A 
HETATM   35  C24 UNL     1     -17.402  29.645  -1.132  1.00  0.00     0.002 A 
HETATM   36  C25 UNL     1     -17.844  30.731  -1.850  1.00  0.00     0.029 A 
ENDBRANCH  28  31
ENDBRANCH  17  21
BRANCH   4  37
HETATM   37  C4  UNL     1     -26.647  39.007 -10.593  1.00  0.00     0.351 C 
BRANCH  37  38
HETATM   38  C5  UNL     1     -26.944  39.236  -9.169  1.00  0.00     0.141 A 
HETATM   39  N2  UNL     1     -26.963  38.365  -8.149  1.00  0.00    -0.271 N 
HETATM   40  N3  UNL     1     -27.290  39.015  -7.056  1.00  0.00    -0.227 N 
ATOM     41  H2  UNL     1     -26.758  37.368  -8.212  1.00  0.00     0.190 HD
HETATM   42  N4  UNL     1     -27.479  40.271  -7.355  1.00  0.00    -0.227 N 
ATOM     43  H3  UNL     1     -27.382  38.605  -6.127  1.00  0.00     0.210 HD
HETATM   44  N5  UNL     1     -27.272  40.434  -8.649  1.00  0.00    -0.271 N 
ATOM     45  H4  UNL     1     -27.743  41.006  -6.698  1.00  0.00     0.210 HD
ATOM     46  H5  UNL     1     -27.348  41.311  -9.164  1.00  0.00     0.190 HD
ENDBRANCH  37  38
ENDBRANCH   4  37
TORSDOF 4
ENDMDL
MODEL 4
REMARK VINA RESULT: -8.079511848      2.027      2.390
REMARK  4 active torsions:
REMARK  status: ('A' for Active; 'I' for Inactive)
REMARK    1  A    between atoms: N1_4  and  C4_5 
REMARK    2  A    between atoms: C4_5  and  C5_6 
REMARK    3  A    between atoms: C16_27  and  N6_28 
REMARK       I    between atoms: N6_28  and  C17_30 
REMARK       I    between atoms: C17_30  and  N7_32 
REMARK    4  A    between atoms: N8_35  and  C20_36 
ROOT
HETATM    1  C1  UNL     1     -22.817  37.418 -12.590  1.00  0.00     0.021 C 
HETATM    2  C2  UNL     1     -23.048  37.962 -11.390  1.00  0.00    -0.029 C 
HETATM    3  C3  UNL     1     -23.834  39.214 -11.354  1.00  0.00     0.311 C 
HETATM    4  N1  UNL     1     -23.810  39.934 -12.639  1.00  0.00     0.101 N 
HETATM    5  C6  UNL     1     -25.185  40.331 -12.993  1.00  0.00     0.299 C 
HETATM    6  C7  UNL     1     -25.912  39.325 -13.809  1.00  0.00     0.198 C 
HETATM    7  O1  UNL     1     -26.586  38.360 -13.102  1.00  0.00    -0.386 OA
HETATM    8  C8  UNL     1     -27.744  38.901 -12.564  1.00  0.00     0.194 C 
HETATM    9  C9  UNL     1     -28.705  37.884 -12.070  1.00  0.00    -0.003 C 
HETATM   10  C10 UNL     1     -28.431  36.846 -11.327  1.00  0.00    -0.003 C 
HETATM   11  C11 UNL     1     -27.106  36.454 -10.814  1.00  0.00     0.194 C 
HETATM   12  O2  UNL     1     -26.671  37.205  -9.721  1.00  0.00    -0.387 OA
HETATM   13  C12 UNL     1     -25.505  36.599  -9.258  1.00  0.00     0.172 C 
HETATM   14  C13 UNL     1     -24.485  37.552  -8.713  1.00  0.00     0.066 C 
HETATM   15  C14 UNL     1     -23.082  37.065  -9.023  1.00  0.00    -0.043 A 
HETATM   16  C15 UNL     1     -22.386  36.383  -8.051  1.00  0.00     0.037 A 
HETATM   17  C16 UNL     1     -21.092  35.862  -8.202  1.00  0.00     0.036 A 
HETATM   18  C28 UNL     1     -20.522  36.070  -9.425  1.00  0.00     0.030 A 
HETATM   19  C29 UNL     1     -21.210  36.758 -10.421  1.00  0.00     0.015 A 
HETATM   20  C30 UNL     1     -22.487  37.264 -10.247  1.00  0.00    -0.022 A 
ENDROOT
BRANCH  17  21
HETATM   21  N6  UNL     1     -20.502  35.162  -7.124  1.00  0.00    -0.309 N 
HETATM   22  C17 UNL     1     -19.139  35.057  -6.904  1.00  0.00     0.323 C 
HETATM   23  O3  UNL     1     -18.273  35.602  -7.669  1.00  0.00    -0.247 OA
HETATM   24  N7  UNL     1     -18.664  34.308  -5.774  1.00  0.00    -0.331 N 
HETATM   25  C18 UNL     1     -17.245  34.178  -5.526  1.00  0.00     0.147 C 
HETATM   26  C27 UNL     1     -19.609  33.688  -4.890  1.00  0.00     0.147 C 
HETATM   27  C19 UNL     1     -17.036  32.720  -5.113  1.00  0.00     0.143 C 
HETATM   28  N8  UNL     1     -17.797  32.457  -3.916  1.00  0.00    -0.378 N 
HETATM   29  C26 UNL     1     -18.962  33.244  -3.580  1.00  0.00     0.143 C 
ATOM     30  H6  UNL     1     -21.125  34.700  -6.462  1.00  0.00     0.170 HD
BRANCH  28  31
HETATM   31  C20 UNL     1     -17.360  31.390  -3.084  1.00  0.00     0.030 A 
HETATM   32  C21 UNL     1     -18.142  31.056  -1.998  1.00  0.00     0.029 A 
HETATM   33  C22 UNL     1     -17.740  30.007  -1.168  1.00  0.00     0.002 A 
HETATM   34  C23 UNL     1     -16.581  29.326  -1.438  1.00  0.00     0.000 A 
HETATM   35  C24 UNL     1     -15.806  29.665  -2.524  1.00  0.00     0.002 A 
HETATM   36  C25 UNL     1     -16.199  30.696  -3.343  1.00  0.00     0.029 A 
ENDBRANCH  28  31
ENDBRANCH  17  21
BRANCH   4  37
HETATM   37  C4  UNL     1     -22.990  41.141 -12.551  1.00  0.00     0.351 C 
BRANCH  37  38
HETATM   38  C5  UNL     1     -21.619  40.825 -12.987  1.00  0.00     0.141 A 
HETATM   39  N2  UNL     1     -20.567  40.410 -12.265  1.00  0.00    -0.271 N 
HETATM   40  N3  UNL     1     -19.543  40.264 -13.073  1.00  0.00    -0.227 N 
ATOM     41  H2  UNL     1     -20.563  40.239 -11.259  1.00  0.00     0.190 HD
HETATM   42  N4  UNL     1     -19.916  40.574 -14.285  1.00  0.00    -0.227 N 
ATOM     43  H3  UNL     1     -18.609  39.959 -12.799  1.00  0.00     0.210 HD
HETATM   44  N5  UNL     1     -21.189  40.922 -14.259  1.00  0.00    -0.271 N 
ATOM     45  H4  UNL     1     -19.322  40.551 -15.114  1.00  0.00     0.210 HD
ATOM     46  H5  UNL     1     -21.748  41.214 -15.060  1.00  0.00     0.190 HD
ENDBRANCH  37  38
ENDBRANCH   4  37
TORSDOF 4
ENDMDL
MODEL 5
REMARK VINA RESULT: -7.949914811      1.914      2.844
REMARK  4 active torsions:
REMARK  status: ('A' for Active; 'I' for Inactive)
REMARK    1  A    between atoms: N1_4  and  C4_5 
REMARK    2  A    between atoms: C4_5  and  C5_6 
REMARK    3  A    between atoms: C16_27  and  N6_28 
REMARK       I    between atoms: N6_28  and  C17_30 
REMARK       I    between atoms: C17_30  and  N7_32 
REMARK    4  A    between atoms: N8_35  and  C20_36 
ROOT
HETATM    1  C1  UNL     1     -22.077  40.060 -13.682  1.00  0.00     0.021 C 
HETATM    2  C2  UNL     1     -22.281  40.405 -12.406  1.00  0.00    -0.029 C 
HETATM    3  C3  UNL     1     -22.985  41.681 -12.155  1.00  0.00     0.311 C 
HETATM    4  N1  UNL     1     -22.905  42.606 -13.297  1.00  0.00     0.101 N 
HETATM    5  C6  UNL     1     -24.248  43.147 -13.575  1.00  0.00     0.299 C 
HETATM    6  C7  UNL     1     -25.032  42.344 -14.548  1.00  0.00     0.198 C 
HETATM    7  O1  UNL     1     -25.772  41.319 -14.014  1.00  0.00    -0.386 OA
HETATM    8  C8  UNL     1     -26.897  41.834 -13.388  1.00  0.00     0.194 C 
HETATM    9  C9  UNL     1     -27.926  40.812 -13.072  1.00  0.00    -0.003 C 
HETATM   10  C10 UNL     1     -27.725  39.647 -12.519  1.00  0.00    -0.003 C 
HETATM   11  C11 UNL     1     -26.433  39.088 -12.084  1.00  0.00     0.194 C 
HETATM   12  O2  UNL     1     -25.959  39.612 -10.881  1.00  0.00    -0.387 OA
HETATM   13  C12 UNL     1     -24.838  38.861 -10.531  1.00  0.00     0.172 C 
HETATM   14  C13 UNL     1     -23.764  39.638  -9.835  1.00  0.00     0.066 C 
HETATM   15  C14 UNL     1     -22.392  39.121 -10.228  1.00  0.00    -0.043 A 
HETATM   16  C15 UNL     1     -21.750  38.240  -9.388  1.00  0.00     0.037 A 
HETATM   17  C16 UNL     1     -20.491  37.669  -9.631  1.00  0.00     0.036 A 
HETATM   18  C28 UNL     1     -19.899  38.045 -10.802  1.00  0.00     0.030 A 
HETATM   19  C29 UNL     1     -20.533  38.936 -11.664  1.00  0.00     0.015 A 
HETATM   20  C30 UNL     1     -21.776  39.487 -11.402  1.00  0.00    -0.022 A 
ENDROOT
BRANCH  17  21
HETATM   21  N6  UNL     1     -19.955  36.758  -8.690  1.00  0.00    -0.309 N 
HETATM   22  C17 UNL     1     -20.375  35.448  -8.534  1.00  0.00     0.323 C 
HETATM   23  O3  UNL     1     -21.300  34.930  -9.248  1.00  0.00    -0.247 OA
HETATM   24  N7  UNL     1     -19.755  34.624  -7.533  1.00  0.00    -0.331 N 
HETATM   25  C18 UNL     1     -20.180  33.255  -7.346  1.00  0.00     0.147 C 
HETATM   26  C27 UNL     1     -18.708  35.171  -6.719  1.00  0.00     0.147 C 
HETATM   27  C19 UNL     1     -20.227  33.047  -5.832  1.00  0.00     0.143 C 
HETATM   28  N8  UNL     1     -18.908  33.258  -5.287  1.00  0.00    -0.378 N 
HETATM   29  C26 UNL     1     -17.939  34.085  -5.970  1.00  0.00     0.143 C 
ATOM     30  H6  UNL     1     -19.207  37.091  -8.083  1.00  0.00     0.170 HD
BRANCH  28  31
HETATM   31  C20 UNL     1     -18.602  32.628  -4.051  1.00  0.00     0.030 A 
HETATM   32  C21 UNL     1     -17.631  31.647  -4.048  1.00  0.00     0.029 A 
HETATM   33  C22 UNL     1     -17.306  31.016  -2.846  1.00  0.00     0.002 A 
HETATM   34  C23 UNL     1     -17.950  31.374  -1.689  1.00  0.00     0.000 A 
HETATM   35  C24 UNL     1     -18.917  32.352  -1.699  1.00  0.00     0.002 A 
HETATM   36  C25 UNL     1     -19.239  32.976  -2.880  1.00  0.00     0.029 A 
ENDBRANCH  28  31
ENDBRANCH  17  21
BRANCH   4  37
HETATM   37  C4  UNL     1     -22.008  43.725 -13.007  1.00  0.00     0.351 C 
BRANCH  37  38
HETATM   38  C5  UNL     1     -20.618  43.303 -13.244  1.00  0.00     0.141 A 
HETATM   39  N2  UNL     1     -19.625  43.096 -12.365  1.00  0.00    -0.271 N 
HETATM   40  N3  UNL     1     -18.552  42.738 -13.031  1.00  0.00    -0.227 N 
ATOM     41  H2  UNL     1     -19.694  43.200 -11.353  1.00  0.00     0.190 HD
HETATM   42  N4  UNL     1     -18.836  42.712 -14.305  1.00  0.00    -0.227 N 
ATOM     43  H3  UNL     1     -17.645  42.517 -12.620  1.00  0.00     0.210 HD
HETATM   44  N5  UNL     1     -20.101  43.055 -14.463  1.00  0.00    -0.271 N 
ATOM     45  H4  UNL     1     -18.188  42.467 -15.053  1.00  0.00     0.210 HD
ATOM     46  H5  UNL     1     -20.598  43.122 -15.350  1.00  0.00     0.190 HD
ENDBRANCH  37  38
ENDBRANCH   4  37
TORSDOF 4
ENDMDL
