MODEL 1
REMARK VINA RESULT: -7.449098130      0.000      0.000
REMARK  3 active torsions:
REMARK  status: ('A' for Active; 'I' for Inactive)
REMARK    1  A    between atoms: N2_6  and  N3_7 
REMARK    2  A    between atoms: N5_28  and  C19_29 
REMARK    3  A    between atoms: C19_29  and  C20_30 
ROOT
HETATM    1  C1  UNL     1     -22.271  37.850  -9.598  1.00  0.00     0.143 C 
HETATM    2  N1  UNL     1     -23.321  37.339  -8.779  1.00  0.00    -0.415 N 
HETATM    3  C2  UNL     1     -24.352  36.642  -9.468  1.00  0.00     0.118 C 
HETATM    4  C3  UNL     1     -25.656  37.378  -9.558  1.00  0.00     0.041 C 
HETATM    5  C4  UNL     1     -26.690  36.635  -8.770  1.00  0.00     0.150 C 
HETATM    6  N2  UNL     1     -27.552  35.858  -9.630  1.00  0.00    -0.269 N 
HETATM    7  C5  UNL     1     -28.830  35.443  -9.164  1.00  0.00     0.150 C 
HETATM    8  C6  UNL     1     -28.777  34.126  -8.383  1.00  0.00     0.041 C 
HETATM    9  C7  UNL     1     -30.098  33.437  -8.635  1.00  0.00     0.121 C 
HETATM   10  N4  UNL     1     -30.074  32.044  -8.232  1.00  0.00    -0.390 N 
ATOM     11  H4  UNL     1     -30.910  31.523  -8.498  1.00  0.00     0.159 HD
HETATM   12  C8  UNL     1     -29.106  31.265  -7.534  1.00  0.00     0.030 A 
HETATM   13  C9  UNL     1     -29.003  29.992  -8.155  1.00  0.00     0.029 A 
HETATM   14  C10 UNL     1     -28.168  28.994  -7.739  1.00  0.00     0.005 A 
HETATM   15  C11 UNL     1     -27.402  29.302  -6.639  1.00  0.00     0.037 A 
HETATM   16  C12 UNL     1     -27.457  30.541  -5.980  1.00  0.00     0.070 A 
HETATM   17  C13 UNL     1     -28.321  31.524  -6.442  1.00  0.00     0.065 A 
HETATM   18  O3  UNL     1     -26.584  30.578  -4.909  1.00  0.00    -0.351 OA
HETATM   19  C14 UNL     1     -26.661  30.768  -3.542  1.00  0.00     0.178 C 
HETATM   20  C15 UNL     1     -25.702  31.896  -3.163  1.00  0.00     0.053 C 
HETATM   21  C16 UNL     1     -25.216  31.763  -1.756  1.00  0.00     0.169 C 
HETATM   22  O4  UNL     1     -23.828  31.831  -1.751  1.00  0.00    -0.389 OA
HETATM   23  C17 UNL     1     -23.468  33.102  -2.195  1.00  0.00     0.187 C 
HETATM   24  C18 UNL     1     -22.198  33.029  -3.055  1.00  0.00     0.153 C 
HETATM   25  N5  UNL     1     -21.707  34.341  -3.216  1.00  0.00    -0.366 N 
HETATM   26  C25 UNL     1     -22.643  35.370  -3.403  1.00  0.00     0.065 C 
HETATM   27  C26 UNL     1     -22.138  36.627  -4.016  1.00  0.00     0.072 C 
HETATM   28  C27 UNL     1     -21.578  36.465  -5.389  1.00  0.00     0.237 C 
HETATM   29  N7  UNL     1     -22.592  36.652  -6.399  1.00  0.00    -0.073 N 
ATOM     30  H71 UNL     1     -23.461  36.166  -6.181  1.00  0.00     0.277 HD
ATOM     31  H72 UNL     1     -22.378  36.164  -7.269  1.00  0.00     0.277 HD
HETATM   32  C28 UNL     1     -22.776  38.083  -6.586  1.00  0.00     0.251 C 
HETATM   33  C29 UNL     1     -23.765  38.222  -7.751  1.00  0.00     0.143 C 
ENDROOT
BRANCH  25  34
HETATM   34  C19 UNL     1     -20.434  34.666  -2.728  1.00  0.00     0.119 C 
BRANCH  34  35
HETATM   35  C20 UNL     1     -19.395  33.825  -3.379  1.00  0.00     0.047 A 
HETATM   36  C21 UNL     1     -18.600  33.018  -2.621  1.00  0.00     0.031 A 
HETATM   37  C22 UNL     1     -17.643  32.248  -3.250  1.00  0.00     0.004 A 
HETATM   38  C23 UNL     1     -17.486  32.292  -4.627  1.00  0.00     0.017 A 
HETATM   39  C24 UNL     1     -18.306  33.116  -5.345  1.00  0.00     0.088 A 
HETATM   40  N6  UNL     1     -19.226  33.854  -4.735  1.00  0.00    -0.365 N 
ATOM     41  H6  UNL     1     -19.824  34.461  -5.295  1.00  0.00     0.165 HD
ENDBRANCH  34  35
ENDBRANCH  25  34
BRANCH   6  42
HETATM   42  N3  UNL     1     -27.105  35.535 -10.902  1.00  0.00    -0.041 N 
HETATM   43  O1  UNL     1     -26.453  34.520 -11.102  1.00  0.00    -0.517 OA
HETATM   44  O2  UNL     1     -27.402  36.373 -11.944  1.00  0.00    -0.517 OA
ENDBRANCH   6  42
TORSDOF 3
ENDMDL
MODEL 2
REMARK VINA RESULT: -7.205098829      3.445      7.112
REMARK  3 active torsions:
REMARK  status: ('A' for Active; 'I' for Inactive)
REMARK    1  A    between atoms: N2_6  and  N3_7 
REMARK    2  A    between atoms: N5_28  and  C19_29 
REMARK    3  A    between atoms: C19_29  and  C20_30 
ROOT
HETATM    1  C1  UNL     1     -29.433  37.249  -5.654  1.00  0.00     0.143 C 
HETATM    2  N1  UNL     1     -28.474  36.621  -6.503  1.00  0.00    -0.415 N 
HETATM    3  C2  UNL     1     -27.948  37.437  -7.542  1.00  0.00     0.118 C 
HETATM    4  C3  UNL     1     -28.434  37.093  -8.919  1.00  0.00     0.041 C 
HETATM    5  C4  UNL     1     -27.280  36.590  -9.731  1.00  0.00     0.150 C 
HETATM    6  N2  UNL     1     -26.778  37.610 -10.621  1.00  0.00    -0.269 N 
HETATM    7  C5  UNL     1     -26.008  37.242 -11.759  1.00  0.00     0.150 C 
HETATM    8  C6  UNL     1     -24.517  37.085 -11.441  1.00  0.00     0.041 C 
HETATM    9  C7  UNL     1     -23.778  37.476 -12.699  1.00  0.00     0.121 C 
HETATM   10  N4  UNL     1     -22.364  37.689 -12.459  1.00  0.00    -0.390 N 
ATOM     11  H4  UNL     1     -21.861  38.068 -13.261  1.00  0.00     0.159 HD
HETATM   12  C8  UNL     1     -21.543  37.471 -11.314  1.00  0.00     0.030 A 
HETATM   13  C9  UNL     1     -20.656  38.570 -11.165  1.00  0.00     0.029 A 
HETATM   14  C10 UNL     1     -19.727  38.684 -10.170  1.00  0.00     0.005 A 
HETATM   15  C11 UNL     1     -19.695  37.632  -9.284  1.00  0.00     0.037 A 
HETATM   16  C12 UNL     1     -20.543  36.517  -9.377  1.00  0.00     0.070 A 
HETATM   17  C13 UNL     1     -21.473  36.448 -10.406  1.00  0.00     0.065 A 
HETATM   18  O3  UNL     1     -20.297  35.614  -8.361  1.00  0.00    -0.351 OA
HETATM   19  C14 UNL     1     -19.913  34.291  -8.250  1.00  0.00     0.178 C 
HETATM   20  C15 UNL     1     -20.940  33.569  -7.376  1.00  0.00     0.053 C 
HETATM   21  C16 UNL     1     -20.342  32.396  -6.670  1.00  0.00     0.169 C 
HETATM   22  O4  UNL     1     -20.629  32.493  -5.314  1.00  0.00    -0.389 OA
HETATM   23  C17 UNL     1     -22.013  32.402  -5.169  1.00  0.00     0.187 C 
HETATM   24  C18 UNL     1     -22.497  33.329  -4.046  1.00  0.00     0.153 C 
HETATM   25  N5  UNL     1     -23.826  32.977  -3.735  1.00  0.00    -0.366 N 
HETATM   26  C25 UNL     1     -24.675  32.633  -4.797  1.00  0.00     0.065 C 
HETATM   27  C26 UNL     1     -26.137  32.714  -4.536  1.00  0.00     0.072 C 
HETATM   28  C27 UNL     1     -26.627  34.077  -4.177  1.00  0.00     0.237 C 
HETATM   29  N7  UNL     1     -27.030  34.819  -5.347  1.00  0.00    -0.073 N 
ATOM     30  H71 UNL     1     -26.362  34.742  -6.113  1.00  0.00     0.277 HD
ATOM     31  H72 UNL     1     -26.969  35.829  -5.215  1.00  0.00     0.277 HD
HETATM   32  C28 UNL     1     -28.366  34.379  -5.717  1.00  0.00     0.251 C 
HETATM   33  C29 UNL     1     -28.791  35.283  -6.880  1.00  0.00     0.143 C 
ENDROOT
BRANCH  25  34
HETATM   34  C19 UNL     1     -24.136  32.520  -2.446  1.00  0.00     0.119 C 
BRANCH  34  35
HETATM   35  C20 UNL     1     -24.462  33.661  -1.551  1.00  0.00     0.047 A 
HETATM   36  C21 UNL     1     -23.679  34.777  -1.558  1.00  0.00     0.031 A 
HETATM   37  C22 UNL     1     -24.004  35.821  -0.717  1.00  0.00     0.004 A 
HETATM   38  C23 UNL     1     -25.104  35.743   0.123  1.00  0.00     0.017 A 
HETATM   39  C24 UNL     1     -25.860  34.604   0.094  1.00  0.00     0.088 A 
HETATM   40  N6  UNL     1     -25.543  33.603  -0.717  1.00  0.00    -0.365 N 
ATOM     41  H6  UNL     1     -26.124  32.764  -0.718  1.00  0.00     0.165 HD
ENDBRANCH  34  35
ENDBRANCH  25  34
BRANCH   6  42
HETATM   42  N3  UNL     1     -27.064  38.938 -10.340  1.00  0.00    -0.041 N 
HETATM   43  O1  UNL     1     -28.039  39.490 -10.830  1.00  0.00    -0.517 OA
HETATM   44  O2  UNL     1     -26.234  39.633  -9.501  1.00  0.00    -0.517 OA
ENDBRANCH   6  42
TORSDOF 3
ENDMDL
MODEL 3
REMARK VINA RESULT: -6.954397554      1.555      2.190
REMARK  3 active torsions:
REMARK  status: ('A' for Active; 'I' for Inactive)
REMARK    1  A    between atoms: N2_6  and  N3_7 
REMARK    2  A    between atoms: N5_28  and  C19_29 
REMARK    3  A    between atoms: C19_29  and  C20_30 
ROOT
HETATM    1  C1  UNL     1     -24.566  37.180 -10.049  1.00  0.00     0.143 C 
HETATM    2  N1  UNL     1     -25.392  36.425  -9.164  1.00  0.00    -0.415 N 
HETATM    3  C2  UNL     1     -26.086  35.333  -9.754  1.00  0.00     0.118 C 
HETATM    4  C3  UNL     1     -27.563  35.541  -9.918  1.00  0.00     0.041 C 
HETATM    5  C4  UNL     1     -28.291  34.574  -9.036  1.00  0.00     0.150 C 
HETATM    6  N2  UNL     1     -28.793  33.449  -9.789  1.00  0.00    -0.269 N 
HETATM    7  C5  UNL     1     -29.855  32.661  -9.265  1.00  0.00     0.150 C 
HETATM    8  C6  UNL     1     -29.364  31.548  -8.334  1.00  0.00     0.041 C 
HETATM    9  C7  UNL     1     -30.346  30.410  -8.489  1.00  0.00     0.121 C 
HETATM   10  N4  UNL     1     -29.843  29.173  -7.924  1.00  0.00    -0.390 N 
ATOM     11  H4  UNL     1     -30.430  28.361  -8.118  1.00  0.00     0.159 HD
HETATM   12  C8  UNL     1     -28.683  28.874  -7.150  1.00  0.00     0.030 A 
HETATM   13  C9  UNL     1     -28.116  27.659  -7.617  1.00  0.00     0.029 A 
HETATM   14  C10 UNL     1     -26.996  27.079  -7.095  1.00  0.00     0.005 A 
HETATM   15  C11 UNL     1     -26.424  27.763  -6.047  1.00  0.00     0.037 A 
HETATM   16  C12 UNL     1     -26.937  28.966  -5.538  1.00  0.00     0.070 A 
HETATM   17  C13 UNL     1     -28.078  29.518  -6.104  1.00  0.00     0.065 A 
HETATM   18  O3  UNL     1     -26.169  29.434  -4.489  1.00  0.00    -0.351 OA
HETATM   19  C14 UNL     1     -26.352  29.739  -3.153  1.00  0.00     0.178 C 
HETATM   20  C15 UNL     1     -25.868  31.170  -2.920  1.00  0.00     0.053 C 
HETATM   21  C16 UNL     1     -25.412  31.379  -1.512  1.00  0.00     0.169 C 
HETATM   22  O4  UNL     1     -24.140  31.937  -1.529  1.00  0.00    -0.389 OA
HETATM   23  C17 UNL     1     -24.239  33.194  -2.124  1.00  0.00     0.187 C 
HETATM   24  C18 UNL     1     -23.000  33.480  -2.982  1.00  0.00     0.153 C 
HETATM   25  N5  UNL     1     -23.001  34.853  -3.303  1.00  0.00    -0.366 N 
HETATM   26  C25 UNL     1     -24.234  35.453  -3.600  1.00  0.00     0.065 C 
HETATM   27  C26 UNL     1     -24.188  36.729  -4.362  1.00  0.00     0.072 C 
HETATM   28  C27 UNL     1     -23.563  36.621  -5.713  1.00  0.00     0.237 C 
HETATM   29  N7  UNL     1     -24.544  36.319  -6.727  1.00  0.00    -0.073 N 
ATOM     30  H71 UNL     1     -25.191  35.584  -6.444  1.00  0.00     0.277 HD
ATOM     31  H72 UNL     1     -24.143  35.843  -7.535  1.00  0.00     0.277 HD
HETATM   32  C28 UNL     1     -25.218  37.559  -7.080  1.00  0.00     0.251 C 
HETATM   33  C29 UNL     1     -26.153  37.204  -8.242  1.00  0.00     0.143 C 
ENDROOT
BRANCH  25  34
HETATM   34  C19 UNL     1     -21.941  35.664  -2.870  1.00  0.00     0.119 C 
BRANCH  34  35
HETATM   35  C20 UNL     1     -20.653  34.927  -2.952  1.00  0.00     0.047 A 
HETATM   36  C21 UNL     1     -19.926  34.700  -1.821  1.00  0.00     0.031 A 
HETATM   37  C22 UNL     1     -18.733  34.014  -1.927  1.00  0.00     0.004 A 
HETATM   38  C23 UNL     1     -18.276  33.564  -3.155  1.00  0.00     0.017 A 
HETATM   39  C24 UNL     1     -19.039  33.815  -4.261  1.00  0.00     0.088 A 
HETATM   40  N6  UNL     1     -20.186  34.475  -4.155  1.00  0.00    -0.365 N 
ATOM     41  H6  UNL     1     -20.736  34.650  -4.996  1.00  0.00     0.165 HD
ENDBRANCH  34  35
ENDBRANCH  25  34
BRANCH   6  42
HETATM   42  N3  UNL     1     -28.219  33.163 -11.019  1.00  0.00    -0.041 N 
HETATM   43  O1  UNL     1     -28.694  33.608 -12.054  1.00  0.00    -0.517 OA
HETATM   44  O2  UNL     1     -27.104  32.368 -11.065  1.00  0.00    -0.517 OA
ENDBRANCH   6  42
TORSDOF 3
ENDMDL
MODEL 4
REMARK VINA RESULT: -6.902519449      2.953      6.479
REMARK  3 active torsions:
REMARK  status: ('A' for Active; 'I' for Inactive)
REMARK    1  A    between atoms: N2_6  and  N3_7 
REMARK    2  A    between atoms: N5_28  and  C19_29 
REMARK    3  A    between atoms: C19_29  and  C20_30 
ROOT
HETATM    1  C1  UNL     1     -29.698  34.174  -4.403  1.00  0.00     0.143 C 
HETATM    2  N1  UNL     1     -28.740  34.043  -5.453  1.00  0.00    -0.415 N 
HETATM    3  C2  UNL     1     -28.968  34.858  -6.596  1.00  0.00     0.118 C 
HETATM    4  C3  UNL     1     -29.441  34.118  -7.811  1.00  0.00     0.041 C 
HETATM    5  C4  UNL     1     -28.387  34.201  -8.873  1.00  0.00     0.150 C 
HETATM    6  N2  UNL     1     -28.718  35.194  -9.867  1.00  0.00    -0.269 N 
HETATM    7  C5  UNL     1     -28.113  35.138 -11.153  1.00  0.00     0.150 C 
HETATM    8  C6  UNL     1     -26.756  35.848 -11.202  1.00  0.00     0.041 C 
HETATM    9  C7  UNL     1     -26.619  36.391 -12.606  1.00  0.00     0.121 C 
HETATM   10  N4  UNL     1     -25.544  37.358 -12.715  1.00  0.00    -0.390 N 
ATOM     11  H4  UNL     1     -25.503  37.830 -13.618  1.00  0.00     0.159 HD
HETATM   12  C8  UNL     1     -24.534  37.776 -11.800  1.00  0.00     0.030 A 
HETATM   13  C9  UNL     1     -24.393  39.186 -11.879  1.00  0.00     0.029 A 
HETATM   14  C10 UNL     1     -23.509  39.918 -11.139  1.00  0.00     0.005 A 
HETATM   15  C11 UNL     1     -22.729  39.183 -10.277  1.00  0.00     0.037 A 
HETATM   16  C12 UNL     1     -22.818  37.787 -10.152  1.00  0.00     0.070 A 
HETATM   17  C13 UNL     1     -23.735  37.088 -10.926  1.00  0.00     0.065 A 
HETATM   18  O3  UNL     1     -21.921  37.309  -9.217  1.00  0.00    -0.351 OA
HETATM   19  C14 UNL     1     -20.858  36.426  -9.188  1.00  0.00     0.178 C 
HETATM   20  C15 UNL     1     -21.120  35.400  -8.086  1.00  0.00     0.053 C 
HETATM   21  C16 UNL     1     -19.849  34.841  -7.533  1.00  0.00     0.169 C 
HETATM   22  O4  UNL     1     -19.870  34.958  -6.149  1.00  0.00    -0.389 OA
HETATM   23  C17 UNL     1     -20.913  34.164  -5.674  1.00  0.00     0.187 C 
HETATM   24  C18 UNL     1     -21.597  34.837  -4.476  1.00  0.00     0.153 C 
HETATM   25  N5  UNL     1     -22.419  33.878  -3.851  1.00  0.00    -0.366 N 
HETATM   26  C25 UNL     1     -23.125  32.987  -4.674  1.00  0.00     0.065 C 
HETATM   27  C26 UNL     1     -24.304  32.311  -4.069  1.00  0.00     0.072 C 
HETATM   28  C27 UNL     1     -25.383  33.236  -3.616  1.00  0.00     0.237 C 
HETATM   29  N7  UNL     1     -26.348  33.475  -4.661  1.00  0.00    -0.073 N 
ATOM     30  H71 UNL     1     -25.914  33.659  -5.565  1.00  0.00     0.277 HD
ATOM     31  H72 UNL     1     -26.830  34.368  -4.558  1.00  0.00     0.277 HD
HETATM   32  C28 UNL     1     -27.260  32.342  -4.694  1.00  0.00     0.251 C 
HETATM   33  C29 UNL     1     -28.332  32.705  -5.729  1.00  0.00     0.143 C 
ENDROOT
BRANCH  25  34
HETATM   34  C19 UNL     1     -22.165  33.512  -2.521  1.00  0.00     0.119 C 
BRANCH  34  35
HETATM   35  C20 UNL     1     -20.731  33.717  -2.189  1.00  0.00     0.047 A 
HETATM   36  C21 UNL     1     -20.312  34.915  -1.692  1.00  0.00     0.031 A 
HETATM   37  C22 UNL     1     -18.975  35.078  -1.392  1.00  0.00     0.004 A 
HETATM   38  C23 UNL     1     -18.069  34.048  -1.591  1.00  0.00     0.017 A 
HETATM   39  C24 UNL     1     -18.536  32.865  -2.091  1.00  0.00     0.088 A 
HETATM   40  N6  UNL     1     -19.823  32.712  -2.378  1.00  0.00    -0.365 N 
ATOM     41  H6  UNL     1     -20.145  31.819  -2.750  1.00  0.00     0.165 HD
ENDBRANCH  34  35
ENDBRANCH  25  34
BRANCH   6  42
HETATM   42  N3  UNL     1     -29.628  36.187  -9.538  1.00  0.00    -0.041 N 
HETATM   43  O1  UNL     1     -30.817  36.060  -9.790  1.00  0.00    -0.517 OA
HETATM   44  O2  UNL     1     -29.176  37.325  -8.923  1.00  0.00    -0.517 OA
ENDBRANCH   6  42
TORSDOF 3
ENDMDL
MODEL 5
REMARK VINA RESULT: -6.858865175      1.505      1.951
REMARK  3 active torsions:
REMARK  status: ('A' for Active; 'I' for Inactive)
REMARK    1  A    between atoms: N2_6  and  N3_7 
REMARK    2  A    between atoms: N5_28  and  C19_29 
REMARK    3  A    between atoms: C19_29  and  C20_30 
ROOT
HETATM    1  C1  UNL     1     -24.594  37.142 -10.231  1.00  0.00     0.143 C 
HETATM    2  N1  UNL     1     -25.399  36.513  -9.236  1.00  0.00    -0.415 N 
HETATM    3  C2  UNL     1     -26.310  35.532  -9.714  1.00  0.00     0.118 C 
HETATM    4  C3  UNL     1     -27.751  35.948  -9.693  1.00  0.00     0.041 C 
HETATM    5  C4  UNL     1     -28.490  35.094  -8.709  1.00  0.00     0.150 C 
HETATM    6  N2  UNL     1     -29.238  34.053  -9.372  1.00  0.00    -0.269 N 
HETATM    7  C5  UNL     1     -30.325  33.424  -8.704  1.00  0.00     0.150 C 
HETATM    8  C6  UNL     1     -29.882  32.252  -7.823  1.00  0.00     0.041 C 
HETATM    9  C7  UNL     1     -31.027  31.266  -7.832  1.00  0.00     0.121 C 
HETATM   10  N4  UNL     1     -30.636  29.969  -7.314  1.00  0.00    -0.390 N 
ATOM     11  H4  UNL     1     -31.352  29.250  -7.417  1.00  0.00     0.159 HD
HETATM   12  C8  UNL     1     -29.441  29.508  -6.687  1.00  0.00     0.030 A 
HETATM   13  C9  UNL     1     -29.115  28.225  -7.201  1.00  0.00     0.029 A 
HETATM   14  C10 UNL     1     -28.031  27.490  -6.814  1.00  0.00     0.005 A 
HETATM   15  C11 UNL     1     -27.239  28.085  -5.860  1.00  0.00     0.037 A 
HETATM   16  C12 UNL     1     -27.507  29.349  -5.311  1.00  0.00     0.070 A 
HETATM   17  C13 UNL     1     -28.622  30.059  -5.739  1.00  0.00     0.065 A 
HETATM   18  O3  UNL     1     -26.553  29.702  -4.376  1.00  0.00    -0.351 OA
HETATM   19  C14 UNL     1     -26.519  30.029  -3.034  1.00  0.00     0.178 C 
HETATM   20  C15 UNL     1     -25.811  31.377  -2.889  1.00  0.00     0.053 C 
HETATM   21  C16 UNL     1     -25.154  31.518  -1.555  1.00  0.00     0.169 C 
HETATM   22  O4  UNL     1     -23.828  31.889  -1.743  1.00  0.00    -0.389 OA
HETATM   23  C17 UNL     1     -23.824  33.147  -2.343  1.00  0.00     0.187 C 
HETATM   24  C18 UNL     1     -22.676  33.254  -3.356  1.00  0.00     0.153 C 
HETATM   25  N5  UNL     1     -22.524  34.613  -3.698  1.00  0.00    -0.366 N 
HETATM   26  C25 UNL     1     -23.687  35.383  -3.847  1.00  0.00     0.065 C 
HETATM   27  C26 UNL     1     -23.560  36.640  -4.632  1.00  0.00     0.072 C 
HETATM   28  C27 UNL     1     -23.134  36.445  -6.049  1.00  0.00     0.237 C 
HETATM   29  N7  UNL     1     -24.269  36.286  -6.924  1.00  0.00    -0.073 N 
ATOM     30  H71 UNL     1     -24.972  35.650  -6.549  1.00  0.00     0.277 HD
ATOM     31  H72 UNL     1     -24.047  35.758  -7.768  1.00  0.00     0.277 HD
HETATM   32  C28 UNL     1     -24.800  37.609  -7.211  1.00  0.00     0.251 C 
HETATM   33  C29 UNL     1     -25.917  37.392  -8.239  1.00  0.00     0.143 C 
ENDROOT
BRANCH  25  34
HETATM   34  C19 UNL     1     -21.314  35.264  -3.417  1.00  0.00     0.119 C 
BRANCH  34  35
HETATM   35  C20 UNL     1     -20.171  34.517  -4.005  1.00  0.00     0.047 A 
HETATM   36  C21 UNL     1     -20.008  34.477  -5.358  1.00  0.00     0.031 A 
HETATM   37  C22 UNL     1     -18.938  33.776  -5.876  1.00  0.00     0.004 A 
HETATM   38  C23 UNL     1     -18.044  33.122  -5.044  1.00  0.00     0.017 A 
HETATM   39  C24 UNL     1     -18.248  33.191  -3.694  1.00  0.00     0.088 A 
HETATM   40  N6  UNL     1     -19.278  33.866  -3.200  1.00  0.00    -0.365 N 
ATOM     41  H6  UNL     1     -19.408  33.901  -2.188  1.00  0.00     0.165 HD
ENDBRANCH  34  35
ENDBRANCH  25  34
BRANCH   6  42
HETATM   42  N3  UNL     1     -28.873  33.688 -10.660  1.00  0.00    -0.041 N 
HETATM   43  O1  UNL     1     -28.045  32.811 -10.855  1.00  0.00    -0.517 OA
HETATM   44  O2  UNL     1     -29.455  34.329 -11.722  1.00  0.00    -0.517 OA
ENDBRANCH   6  42
TORSDOF 3
ENDMDL
