MODEL 1
REMARK VINA RESULT: -6.350376656      0.000      0.000
REMARK  10 active torsions:
REMARK  status: ('A' for Active; 'I' for Inactive)
REMARK    1  A    between atoms: O1_2  and  C2_3 
REMARK    2  A    between atoms: C2_3  and  C3_4 
REMARK    3  A    between atoms: C5_7  and  C6_8 
REMARK    4  A    between atoms: C6_8  and  O2_9 
REMARK    5  A    between atoms: C8_12  and  O3_13 
REMARK    6  A    between atoms: C11_18  and  O4_19 
REMARK    7  A    between atoms: C12_21  and  C13_22 
REMARK    8  A    between atoms: C13_22  and  C14_23 
REMARK    9  A    between atoms: C14_23  and  N1_24 
REMARK       I    between atoms: N1_24  and  C15_26 
REMARK   10  A    between atoms: C15_26  and  O6_28 
ROOT
HETATM    1  C3  UNL     1       8.091  65.165   2.370  1.00  0.00     0.063 C 
HETATM    2  C4  UNL     1       8.910  63.890   2.341  1.00  0.00     0.085 C 
HETATM    3 BR1  UNL     1       7.977  62.647   1.190  1.00  0.00    -0.089 Br
HETATM    4  C5  UNL     1      10.254  64.308   1.747  1.00  0.00     0.062 C 
HETATM    5  C7  UNL     1       9.843  65.302   0.685  1.00  0.00     0.063 C 
HETATM    6  C8  UNL     1       8.717  66.062   1.296  1.00  0.00     0.085 C 
HETATM    7  C9  UNL     1       9.178  67.320   1.893  1.00  0.00     0.028 C 
HETATM    8  C10 UNL     1      10.099  67.749   2.768  1.00  0.00     0.021 C 
HETATM    9 BR2  UNL     1       9.902  69.676   2.892  1.00  0.00    -0.053 Br
HETATM   10  C11 UNL     1      11.146  67.185   3.632  1.00  0.00     0.191 C 
HETATM   11  C12 UNL     1      11.952  66.075   3.126  1.00  0.00     0.005 C 
HETATM   12  C17 UNL     1      11.153  64.855   2.777  1.00  0.00     0.167 C 
HETATM   13  O7  UNL     1      11.300  64.023   3.656  1.00  0.00    -0.292 OA
ENDROOT
BRANCH  11  14
HETATM   14  C13 UNL     1      13.006  66.361   2.142  1.00  0.00     0.085 C 
BRANCH  14  15
HETATM   15  C14 UNL     1      14.294  65.679   2.298  1.00  0.00     0.070 C 
BRANCH  15  16
HETATM   16  N1  UNL     1      14.423  64.507   3.069  1.00  0.00    -0.316 N 
HETATM   17  C15 UNL     1      15.125  64.493   4.329  1.00  0.00     0.363 C 
HETATM   18  O5  UNL     1      15.627  65.572   4.727  1.00  0.00    -0.238 OA
ATOM     19  H1  UNL     1      14.008  63.641   2.725  1.00  0.00     0.170 HD
BRANCH  17  20
HETATM   20  O6  UNL     1      15.254  63.360   5.080  1.00  0.00    -0.309 OA
HETATM   21  C16 UNL     1      15.668  63.357   6.422  1.00  0.00     0.215 C 
ENDBRANCH  17  20
ENDBRANCH  15  16
ENDBRANCH  14  15
ENDBRANCH  11  14
BRANCH  10  22
HETATM   22  O4  UNL     1      10.499  66.762   4.875  1.00  0.00    -0.386 OA
ATOM     23  H4  UNL     1      10.820  67.331   5.565  1.00  0.00     0.210 HD
ENDBRANCH  10  22
BRANCH   4  24
HETATM   24  C6  UNL     1      10.806  63.087   1.043  1.00  0.00     0.183 C 
BRANCH  24  25
HETATM   25  O2  UNL     1      12.202  63.122   1.065  1.00  0.00    -0.400 OA
ATOM     26  H2  UNL     1      12.536  62.333   1.475  1.00  0.00     0.209 HD
ENDBRANCH  24  25
ENDBRANCH   4  24
BRANCH   6  27
HETATM   27  O3  UNL     1       7.730  66.346   0.320  1.00  0.00    -0.385 OA
ATOM     28  H3  UNL     1       7.665  67.289   0.225  1.00  0.00     0.211 HD
ENDBRANCH   6  27
BRANCH   1  29
HETATM   29  C2  UNL     1       6.659  64.937   2.026  1.00  0.00     0.176 C 
BRANCH  29  30
HETATM   30  O1  UNL     1       5.880  65.887   2.670  1.00  0.00    -0.395 OA
HETATM   31  C1  UNL     1       6.197  65.972   4.032  1.00  0.00     0.201 C 
ENDBRANCH  29  30
ENDBRANCH   1  29
TORSDOF 10
ENDMDL
MODEL 2
REMARK VINA RESULT: -5.664489549      2.830      4.205
REMARK  10 active torsions:
REMARK  status: ('A' for Active; 'I' for Inactive)
REMARK    1  A    between atoms: O1_2  and  C2_3 
REMARK    2  A    between atoms: C2_3  and  C3_4 
REMARK    3  A    between atoms: C5_7  and  C6_8 
REMARK    4  A    between atoms: C6_8  and  O2_9 
REMARK    5  A    between atoms: C8_12  and  O3_13 
REMARK    6  A    between atoms: C11_18  and  O4_19 
REMARK    7  A    between atoms: C12_21  and  C13_22 
REMARK    8  A    between atoms: C13_22  and  C14_23 
REMARK    9  A    between atoms: C14_23  and  N1_24 
REMARK       I    between atoms: N1_24  and  C15_26 
REMARK   10  A    between atoms: C15_26  and  O6_28 
ROOT
HETATM    1  C3  UNL     1       6.239  63.271   3.724  1.00  0.00     0.063 C 
HETATM    2  C4  UNL     1       6.235  62.100   2.761  1.00  0.00     0.085 C 
HETATM    3 BR1  UNL     1       4.415  61.456   2.667  1.00  0.00    -0.089 Br
HETATM    4  C5  UNL     1       6.693  62.693   1.430  1.00  0.00     0.062 C 
HETATM    5  C7  UNL     1       6.013  64.042   1.426  1.00  0.00     0.063 C 
HETATM    6  C8  UNL     1       6.100  64.513   2.836  1.00  0.00     0.085 C 
HETATM    7  C9  UNL     1       7.246  65.408   3.033  1.00  0.00     0.028 C 
HETATM    8  C10 UNL     1       8.570  65.422   2.822  1.00  0.00     0.021 C 
HETATM    9 BR2  UNL     1       9.223  67.135   3.458  1.00  0.00    -0.053 Br
HETATM   10  C11 UNL     1       9.610  64.531   2.288  1.00  0.00     0.191 C 
HETATM   11  C12 UNL     1       9.299  63.705   1.123  1.00  0.00     0.005 C 
HETATM   12  C17 UNL     1       8.162  62.752   1.341  1.00  0.00     0.167 C 
HETATM   13  O7  UNL     1       8.613  61.630   1.503  1.00  0.00    -0.292 OA
ENDROOT
BRANCH  11  14
HETATM   14  C13 UNL     1       9.256  64.343  -0.201  1.00  0.00     0.085 C 
BRANCH  14  15
HETATM   15  C14 UNL     1      10.516  64.490  -0.933  1.00  0.00     0.070 C 
BRANCH  15  16
HETATM   16  N1  UNL     1      11.520  65.384  -0.510  1.00  0.00    -0.316 N 
HETATM   17  C15 UNL     1      12.737  64.927   0.115  1.00  0.00     0.363 C 
HETATM   18  O5  UNL     1      12.880  63.692   0.277  1.00  0.00    -0.238 OA
ATOM     19  H1  UNL     1      11.382  66.385  -0.650  1.00  0.00     0.170 HD
BRANCH  17  20
HETATM   20  O6  UNL     1      13.713  65.789   0.528  1.00  0.00    -0.309 OA
HETATM   21  C16 UNL     1      14.114  65.931   1.866  1.00  0.00     0.215 C 
ENDBRANCH  17  20
ENDBRANCH  15  16
ENDBRANCH  14  15
ENDBRANCH  11  14
BRANCH  10  22
HETATM   22  O4  UNL     1      10.030  63.653   3.383  1.00  0.00    -0.386 OA
ATOM     23  H4  UNL     1      10.955  63.812   3.529  1.00  0.00     0.210 HD
ENDBRANCH  10  22
BRANCH   4  24
HETATM   24  C6  UNL     1       6.052  61.852   0.347  1.00  0.00     0.183 C 
BRANCH  24  25
HETATM   25  O2  UNL     1       6.672  62.108  -0.878  1.00  0.00    -0.400 OA
ATOM     26  H2  UNL     1       6.014  62.254  -1.547  1.00  0.00     0.209 HD
ENDBRANCH  24  25
ENDBRANCH   4  24
BRANCH   6  27
HETATM   27  O3  UNL     1       4.912  65.193   3.201  1.00  0.00    -0.385 OA
ATOM     28  H3  UNL     1       4.209  64.892   2.638  1.00  0.00     0.211 HD
ENDBRANCH   6  27
BRANCH   1  29
HETATM   29  C2  UNL     1       5.096  63.236   4.678  1.00  0.00     0.176 C 
BRANCH  29  30
HETATM   30  O1  UNL     1       5.382  64.055   5.761  1.00  0.00    -0.395 OA
HETATM   31  C1  UNL     1       4.251  64.261   6.561  1.00  0.00     0.201 C 
ENDBRANCH  29  30
ENDBRANCH   1  29
TORSDOF 10
ENDMDL
MODEL 3
REMARK VINA RESULT: -5.610769563      2.561      4.276
REMARK  10 active torsions:
REMARK  status: ('A' for Active; 'I' for Inactive)
REMARK    1  A    between atoms: O1_2  and  C2_3 
REMARK    2  A    between atoms: C2_3  and  C3_4 
REMARK    3  A    between atoms: C5_7  and  C6_8 
REMARK    4  A    between atoms: C6_8  and  O2_9 
REMARK    5  A    between atoms: C8_12  and  O3_13 
REMARK    6  A    between atoms: C11_18  and  O4_19 
REMARK    7  A    between atoms: C12_21  and  C13_22 
REMARK    8  A    between atoms: C13_22  and  C14_23 
REMARK    9  A    between atoms: C14_23  and  N1_24 
REMARK       I    between atoms: N1_24  and  C15_26 
REMARK   10  A    between atoms: C15_26  and  O6_28 
ROOT
HETATM    1  C3  UNL     1       7.126  62.989   1.057  1.00  0.00     0.063 C 
HETATM    2  C4  UNL     1       6.258  63.888   1.916  1.00  0.00     0.085 C 
HETATM    3 BR1  UNL     1       4.865  62.776   2.665  1.00  0.00    -0.089 Br
HETATM    4  C5  UNL     1       7.200  64.415   2.996  1.00  0.00     0.062 C 
HETATM    5  C7  UNL     1       8.058  63.208   3.295  1.00  0.00     0.063 C 
HETATM    6  C8  UNL     1       8.284  62.568   1.969  1.00  0.00     0.085 C 
HETATM    7  C9  UNL     1       9.564  62.980   1.384  1.00  0.00     0.028 C 
HETATM    8  C10 UNL     1      10.227  64.106   1.085  1.00  0.00     0.021 C 
HETATM    9 BR2  UNL     1      11.921  63.572   0.302  1.00  0.00    -0.053 Br
HETATM   10  C11 UNL     1      10.022  65.560   1.164  1.00  0.00     0.191 C 
HETATM   11  C12 UNL     1       9.345  66.111   2.336  1.00  0.00     0.005 C 
HETATM   12  C17 UNL     1       7.950  65.595   2.531  1.00  0.00     0.167 C 
HETATM   13  O7  UNL     1       7.158  66.452   2.179  1.00  0.00    -0.292 OA
ENDROOT
BRANCH  11  14
HETATM   14  C13 UNL     1      10.091  66.212   3.599  1.00  0.00     0.085 C 
BRANCH  14  15
HETATM   15  C14 UNL     1      11.461  66.730   3.546  1.00  0.00     0.070 C 
BRANCH  15  16
HETATM   16  N1  UNL     1      12.259  66.838   4.702  1.00  0.00    -0.316 N 
HETATM   17  C15 UNL     1      13.220  65.826   5.066  1.00  0.00     0.363 C 
HETATM   18  O5  UNL     1      13.329  64.828   4.312  1.00  0.00    -0.238 OA
ATOM     19  H1  UNL     1      12.153  67.657   5.301  1.00  0.00     0.170 HD
BRANCH  17  20
HETATM   20  O6  UNL     1      13.996  65.925   6.185  1.00  0.00    -0.309 OA
HETATM   21  C16 UNL     1      14.483  64.817   6.898  1.00  0.00     0.215 C 
ENDBRANCH  17  20
ENDBRANCH  15  16
ENDBRANCH  14  15
ENDBRANCH  11  14
BRANCH  10  22
HETATM   22  O4  UNL     1       9.278  65.956  -0.033  1.00  0.00    -0.386 OA
ATOM     23  H4  UNL     1       8.375  66.090   0.229  1.00  0.00     0.210 HD
ENDBRANCH  10  22
BRANCH   4  24
HETATM   24  C6  UNL     1       6.343  64.681   4.215  1.00  0.00     0.183 C 
BRANCH  24  25
HETATM   25  O2  UNL     1       6.949  65.654   5.014  1.00  0.00    -0.400 OA
ATOM     26  H2  UNL     1       7.012  65.340   5.908  1.00  0.00     0.209 HD
ENDBRANCH  24  25
ENDBRANCH   4  24
BRANCH   6  27
HETATM   27  O3  UNL     1       8.264  61.157   2.094  1.00  0.00    -0.385 OA
ATOM     28  H3  UNL     1       8.814  60.913   2.829  1.00  0.00     0.211 HD
ENDBRANCH   6  27
BRANCH   1  29
HETATM   29  C2  UNL     1       6.410  61.765   0.599  1.00  0.00     0.176 C 
BRANCH  29  30
HETATM   30  O1  UNL     1       6.330  61.776  -0.786  1.00  0.00    -0.395 OA
HETATM   31  C1  UNL     1       5.219  61.055  -1.241  1.00  0.00     0.201 C 
ENDBRANCH  29  30
ENDBRANCH   1  29
TORSDOF 10
ENDMDL
MODEL 4
REMARK VINA RESULT: -5.563923385      2.673      3.859
REMARK  10 active torsions:
REMARK  status: ('A' for Active; 'I' for Inactive)
REMARK    1  A    between atoms: O1_2  and  C2_3 
REMARK    2  A    between atoms: C2_3  and  C3_4 
REMARK    3  A    between atoms: C5_7  and  C6_8 
REMARK    4  A    between atoms: C6_8  and  O2_9 
REMARK    5  A    between atoms: C8_12  and  O3_13 
REMARK    6  A    between atoms: C11_18  and  O4_19 
REMARK    7  A    between atoms: C12_21  and  C13_22 
REMARK    8  A    between atoms: C13_22  and  C14_23 
REMARK    9  A    between atoms: C14_23  and  N1_24 
REMARK       I    between atoms: N1_24  and  C15_26 
REMARK   10  A    between atoms: C15_26  and  O6_28 
ROOT
HETATM    1  C3  UNL     1       8.518  63.952  -1.364  1.00  0.00     0.063 C 
HETATM    2  C4  UNL     1       9.958  63.821  -1.820  1.00  0.00     0.085 C 
HETATM    3 BR1  UNL     1      10.069  64.633  -3.571  1.00  0.00    -0.089 Br
HETATM    4  C5  UNL     1      10.763  64.602  -0.784  1.00  0.00     0.062 C 
HETATM    5  C7  UNL     1       9.868  65.786  -0.503  1.00  0.00     0.063 C 
HETATM    6  C8  UNL     1       8.488  65.225  -0.511  1.00  0.00     0.085 C 
HETATM    7  C9  UNL     1       8.026  64.914   0.846  1.00  0.00     0.028 C 
HETATM    8  C10 UNL     1       8.430  64.220   1.921  1.00  0.00     0.021 C 
HETATM    9 BR2  UNL     1       7.058  64.436   3.277  1.00  0.00    -0.053 Br
HETATM   10  C11 UNL     1       9.558  63.367   2.322  1.00  0.00     0.191 C 
HETATM   11  C12 UNL     1      10.904  63.732   1.887  1.00  0.00     0.005 C 
HETATM   12  C17 UNL     1      11.069  63.776   0.397  1.00  0.00     0.167 C 
HETATM   13  O7  UNL     1      11.667  62.777   0.036  1.00  0.00    -0.292 OA
ENDROOT
BRANCH  11  14
HETATM   14  C13 UNL     1      11.587  64.844   2.564  1.00  0.00     0.085 C 
BRANCH  14  15
HETATM   15  C14 UNL     1      12.970  64.636   3.001  1.00  0.00     0.070 C 
BRANCH  15  16
HETATM   16  N1  UNL     1      13.459  65.182   4.203  1.00  0.00    -0.316 N 
HETATM   17  C15 UNL     1      14.597  64.623   4.891  1.00  0.00     0.363 C 
HETATM   18  O5  UNL     1      15.149  63.619   4.382  1.00  0.00    -0.238 OA
ATOM     19  H1  UNL     1      12.994  65.999   4.601  1.00  0.00     0.170 HD
BRANCH  17  20
HETATM   20  O6  UNL     1      15.075  65.149   6.057  1.00  0.00    -0.309 OA
HETATM   21  C16 UNL     1      14.833  64.589   7.323  1.00  0.00     0.215 C 
ENDBRANCH  17  20
ENDBRANCH  15  16
ENDBRANCH  14  15
ENDBRANCH  11  14
BRANCH  10  22
HETATM   22  O4  UNL     1       9.265  62.014   1.848  1.00  0.00    -0.386 OA
ATOM     23  H4  UNL     1       9.829  61.420   2.329  1.00  0.00     0.210 HD
ENDBRANCH  10  22
BRANCH   4  24
HETATM   24  C6  UNL     1      11.993  65.116  -1.502  1.00  0.00     0.183 C 
BRANCH  24  25
HETATM   25  O2  UNL     1      12.989  65.420  -0.571  1.00  0.00    -0.400 OA
ATOM     26  H2  UNL     1      13.336  66.287  -0.744  1.00  0.00     0.209 HD
ENDBRANCH  24  25
ENDBRANCH   4  24
BRANCH   6  27
HETATM   27  O3  UNL     1       7.588  66.143  -1.108  1.00  0.00    -0.385 OA
ATOM     28  H3  UNL     1       7.400  66.830  -0.480  1.00  0.00     0.211 HD
ENDBRANCH   6  27
BRANCH   1  29
HETATM   29  C2  UNL     1       7.566  64.116  -2.499  1.00  0.00     0.176 C 
BRANCH  29  30
HETATM   30  O1  UNL     1       7.021  62.881  -2.817  1.00  0.00    -0.395 OA
HETATM   31  C1  UNL     1       6.422  62.896  -4.084  1.00  0.00     0.201 C 
ENDBRANCH  29  30
ENDBRANCH   1  29
TORSDOF 10
ENDMDL
MODEL 5
REMARK VINA RESULT: -5.412560822      2.985      5.313
REMARK  10 active torsions:
REMARK  status: ('A' for Active; 'I' for Inactive)
REMARK    1  A    between atoms: O1_2  and  C2_3 
REMARK    2  A    between atoms: C2_3  and  C3_4 
REMARK    3  A    between atoms: C5_7  and  C6_8 
REMARK    4  A    between atoms: C6_8  and  O2_9 
REMARK    5  A    between atoms: C8_12  and  O3_13 
REMARK    6  A    between atoms: C11_18  and  O4_19 
REMARK    7  A    between atoms: C12_21  and  C13_22 
REMARK    8  A    between atoms: C13_22  and  C14_23 
REMARK    9  A    between atoms: C14_23  and  N1_24 
REMARK       I    between atoms: N1_24  and  C15_26 
REMARK   10  A    between atoms: C15_26  and  O6_28 
ROOT
HETATM    1  C3  UNL     1       4.674  63.800   3.272  1.00  0.00     0.063 C 
HETATM    2  C4  UNL     1       5.286  65.101   2.790  1.00  0.00     0.085 C 
HETATM    3 BR1  UNL     1       4.389  66.529   3.736  1.00  0.00    -0.089 Br
HETATM    4  C5  UNL     1       6.759  65.003   3.181  1.00  0.00     0.062 C 
HETATM    5  C7  UNL     1       6.691  64.326   4.530  1.00  0.00     0.063 C 
HETATM    6  C8  UNL     1       5.603  63.317   4.392  1.00  0.00     0.085 C 
HETATM    7  C9  UNL     1       6.139  61.991   4.068  1.00  0.00     0.028 C 
HETATM    8  C10 UNL     1       6.948  61.416   3.167  1.00  0.00     0.021 C 
HETATM    9 BR2  UNL     1       7.025  59.526   3.604  1.00  0.00    -0.053 Br
HETATM   10  C11 UNL     1       7.734  61.802   1.987  1.00  0.00     0.191 C 
HETATM   11  C12 UNL     1       8.440  63.082   2.000  1.00  0.00     0.005 C 
HETATM   12  C17 UNL     1       7.539  64.269   2.170  1.00  0.00     0.167 C 
HETATM   13  O7  UNL     1       7.405  64.821   1.091  1.00  0.00    -0.292 OA
ENDROOT
BRANCH  11  14
HETATM   14  C13 UNL     1       9.679  63.196   2.784  1.00  0.00     0.085 C 
BRANCH  14  15
HETATM   15  C14 UNL     1      10.532  64.365   2.552  1.00  0.00     0.070 C 
BRANCH  15  16
HETATM   16  N1  UNL     1      10.960  65.192   3.608  1.00  0.00    -0.316 N 
HETATM   17  C15 UNL     1      12.354  65.343   3.945  1.00  0.00     0.363 C 
HETATM   18  O5  UNL     1      13.191  64.706   3.261  1.00  0.00    -0.238 OA
ATOM     19  H1  UNL     1      10.262  65.701   4.152  1.00  0.00     0.170 HD
BRANCH  17  20
HETATM   20  O6  UNL     1      12.775  66.144   4.968  1.00  0.00    -0.309 OA
HETATM   21  C16 UNL     1      13.827  65.813   5.837  1.00  0.00     0.215 C 
ENDBRANCH  17  20
ENDBRANCH  15  16
ENDBRANCH  14  15
ENDBRANCH  11  14
BRANCH  10  22
HETATM   22  O4  UNL     1       6.827  61.782   0.838  1.00  0.00    -0.386 OA
ATOM     23  H4  UNL     1       7.071  62.508   0.276  1.00  0.00     0.210 HD
ENDBRANCH  10  22
BRANCH   4  24
HETATM   24  C6  UNL     1       7.234  66.423   3.404  1.00  0.00     0.183 C 
BRANCH  24  25
HETATM   25  O2  UNL     1       8.202  66.443   4.411  1.00  0.00    -0.400 OA
ATOM     26  H2  UNL     1       7.983  67.107   5.053  1.00  0.00     0.209 HD
ENDBRANCH  24  25
ENDBRANCH   4  24
BRANCH   6  27
HETATM   27  O3  UNL     1       4.854  63.235   5.591  1.00  0.00    -0.385 OA
ATOM     28  H3  UNL     1       4.615  62.327   5.734  1.00  0.00     0.211 HD
ENDBRANCH   6  27
BRANCH   1  29
HETATM   29  C2  UNL     1       3.305  63.980   3.833  1.00  0.00     0.176 C 
BRANCH  29  30
HETATM   30  O1  UNL     1       2.609  62.785   3.724  1.00  0.00    -0.395 OA
HETATM   31  C1  UNL     1       2.674  62.270   2.423  1.00  0.00     0.201 C 
ENDBRANCH  29  30
ENDBRANCH   1  29
TORSDOF 10
ENDMDL
