MODEL 1
REMARK VINA RESULT: -7.475821667      0.000      0.000
REMARK  10 active torsions:
REMARK  status: ('A' for Active; 'I' for Inactive)
REMARK    1  A    between atoms: C3_3  and  N1_4 
REMARK    2  A    between atoms: C3_3  and  N3_32 
REMARK    3  A    between atoms: N1_4  and  C4_6 
REMARK    4  A    between atoms: C4_6  and  C6_8 
REMARK    5  A    between atoms: C4_6  and  C9_11 
REMARK    6  A    between atoms: C6_8  and  C7_9 
REMARK       I    between atoms: C9_11  and  N2_13 
REMARK    7  A    between atoms: N2_13  and  C10_15 
REMARK    8  A    between atoms: C13_18  and  O2_19 
REMARK    9  A    between atoms: C16_24  and  O3_25 
REMARK   10  A    between atoms: C23_35  and  O5_36 
ROOT
HETATM    1  C1  UNL     1       3.249  63.717   7.082  1.00  0.00     0.021 C 
HETATM    2  C2  UNL     1       4.032  64.007   6.195  1.00  0.00    -0.041 C 
HETATM    3  C3  UNL     1       4.989  64.339   5.101  1.00  0.00     0.159 C 
ENDROOT
BRANCH   3   4
HETATM    4  N1  UNL     1       6.069  63.479   4.990  1.00  0.00    -0.351 N 
ATOM      5  H1  UNL     1       6.847  63.664   5.624  1.00  0.00     0.163 HD
BRANCH   4   6
HETATM    6  C4  UNL     1       6.237  62.403   4.139  1.00  0.00     0.112 C 
HETATM    7  C5  UNL     1       4.987  62.006   3.362  1.00  0.00     0.049 C 
BRANCH   6   8
HETATM    8  C6  UNL     1       7.052  61.225   4.480  1.00  0.00     0.067 C 
BRANCH   8   9
HETATM    9  C7  UNL     1       6.646  59.895   4.010  1.00  0.00    -0.034 C 
HETATM   10  C8  UNL     1       7.490  59.176   3.298  1.00  0.00     0.007 C 
ENDBRANCH   8   9
ENDBRANCH   6   8
BRANCH   6  11
HETATM   11  C9  UNL     1       7.097  63.035   2.978  1.00  0.00     0.246 C 
HETATM   12  O1  UNL     1       6.761  62.668   1.840  1.00  0.00    -0.271 OA
HETATM   13  N2  UNL     1       8.107  63.910   3.236  1.00  0.00    -0.351 N 
ATOM     14  H2  UNL     1       8.250  64.054   4.237  1.00  0.00     0.163 HD
BRANCH  13  15
HETATM   15  C10 UNL     1       9.032  64.689   2.428  1.00  0.00     0.120 C 
HETATM   16  C11 UNL     1      10.396  64.109   2.367  1.00  0.00     0.042 C 
HETATM   17  C12 UNL     1      10.362  63.030   1.247  1.00  0.00     0.015 C 
HETATM   18  C13 UNL     1      11.433  65.106   1.967  1.00  0.00     0.201 C 
HETATM   19  C15 UNL     1      11.953  65.885   3.179  1.00  0.00     0.295 C 
HETATM   20  F1  UNL     1      13.191  66.419   2.872  1.00  0.00    -0.201 F 
HETATM   21  F2  UNL     1      12.128  65.013   4.228  1.00  0.00    -0.201 F 
HETATM   22  C16 UNL     1      11.022  66.971   3.581  1.00  0.00     0.199 C 
HETATM   23  C17 UNL     1       9.852  67.126   2.628  1.00  0.00     0.053 C 
HETATM   24  C18 UNL     1       9.080  68.353   3.216  1.00  0.00     0.036 C 
HETATM   25  C20 UNL     1       8.813  66.105   2.717  1.00  0.00     0.151 C 
HETATM   26  C19 UNL     1       8.002  67.663   4.006  1.00  0.00     0.168 C 
HETATM   27  O4  UNL     1       8.343  66.316   4.043  1.00  0.00    -0.383 OA
BRANCH  18  28
HETATM   28  O2  UNL     1      12.584  64.505   1.386  1.00  0.00    -0.384 OA
HETATM   29  C14 UNL     1      12.772  64.926   0.080  1.00  0.00     0.202 C 
ENDBRANCH  18  28
BRANCH  22  30
HETATM   30  O3  UNL     1      11.722  68.185   3.567  1.00  0.00    -0.389 OA
ATOM     31  H3  UNL     1      11.451  68.697   4.319  1.00  0.00     0.210 HD
ENDBRANCH  22  30
ENDBRANCH  13  15
ENDBRANCH   6  11
ENDBRANCH   4   6
ENDBRANCH   3   4
BRANCH   3  32
HETATM   32  N3  UNL     1       5.127  65.725   4.879  1.00  0.00    -0.340 N 
HETATM   33  C21 UNL     1       4.736  66.089   3.560  1.00  0.00     0.133 C 
HETATM   34  C22 UNL     1       3.825  67.243   3.397  1.00  0.00     0.052 C 
HETATM   35  C23 UNL     1       4.068  68.339   4.423  1.00  0.00     0.124 C 
HETATM   36  C24 UNL     1       3.839  67.649   5.777  1.00  0.00     0.076 C 
HETATM   37  C25 UNL     1       4.965  66.651   5.912  1.00  0.00     0.069 C 
BRANCH  35  38
HETATM   38  O5  UNL     1       3.189  69.381   4.216  1.00  0.00    -0.395 OA
ATOM     39  H5  UNL     1       3.648  70.125   3.846  1.00  0.00     0.210 HD
ENDBRANCH  35  38
ENDBRANCH   3  32
TORSDOF 10
ENDMDL
MODEL 2
REMARK VINA RESULT: -7.441533496      2.391      5.194
REMARK  10 active torsions:
REMARK  status: ('A' for Active; 'I' for Inactive)
REMARK    1  A    between atoms: C3_3  and  N1_4 
REMARK    2  A    between atoms: C3_3  and  N3_32 
REMARK    3  A    between atoms: N1_4  and  C4_6 
REMARK    4  A    between atoms: C4_6  and  C6_8 
REMARK    5  A    between atoms: C4_6  and  C9_11 
REMARK    6  A    between atoms: C6_8  and  C7_9 
REMARK       I    between atoms: C9_11  and  N2_13 
REMARK    7  A    between atoms: N2_13  and  C10_15 
REMARK    8  A    between atoms: C13_18  and  O2_19 
REMARK    9  A    between atoms: C16_24  and  O3_25 
REMARK   10  A    between atoms: C23_35  and  O5_36 
ROOT
HETATM    1  C1  UNL     1       2.816  60.932   2.004  1.00  0.00     0.021 C 
HETATM    2  C2  UNL     1       4.000  60.926   2.293  1.00  0.00    -0.041 C 
HETATM    3  C3  UNL     1       5.445  60.939   2.660  1.00  0.00     0.159 C 
ENDROOT
BRANCH   3   4
HETATM    4  N1  UNL     1       6.108  62.120   2.372  1.00  0.00    -0.351 N 
ATOM      5  H1  UNL     1       6.441  62.216   1.413  1.00  0.00     0.163 HD
BRANCH   4   6
HETATM    6  C4  UNL     1       6.380  63.187   3.207  1.00  0.00     0.112 C 
HETATM    7  C5  UNL     1       6.632  62.807   4.662  1.00  0.00     0.049 C 
BRANCH   6   8
HETATM    8  C6  UNL     1       5.697  64.487   3.104  1.00  0.00     0.067 C 
BRANCH   8   9
HETATM    9  C7  UNL     1       4.259  64.536   2.817  1.00  0.00    -0.034 C 
HETATM   10  C8  UNL     1       3.398  64.353   3.798  1.00  0.00     0.007 C 
ENDBRANCH   8   9
ENDBRANCH   6   8
BRANCH   6  11
HETATM   11  C9  UNL     1       7.843  63.583   2.768  1.00  0.00     0.246 C 
HETATM   12  O1  UNL     1       8.719  62.785   3.140  1.00  0.00    -0.271 OA
HETATM   13  N2  UNL     1       8.086  64.705   2.037  1.00  0.00    -0.351 N 
ATOM     14  H2  UNL     1       7.238  65.247   1.864  1.00  0.00     0.163 HD
BRANCH  13  15
HETATM   15  C10 UNL     1       9.264  65.317   1.443  1.00  0.00     0.120 C 
HETATM   16  C11 UNL     1      10.228  64.332   0.895  1.00  0.00     0.042 C 
HETATM   17  C12 UNL     1       9.723  63.973  -0.532  1.00  0.00     0.015 C 
HETATM   18  C13 UNL     1      11.602  64.893   0.732  1.00  0.00     0.201 C 
HETATM   19  C15 UNL     1      12.409  64.774   2.029  1.00  0.00     0.295 C 
HETATM   20  F1  UNL     1      13.757  64.842   1.727  1.00  0.00    -0.201 F 
HETATM   21  F2  UNL     1      12.173  63.541   2.590  1.00  0.00    -0.201 F 
HETATM   22  C16 UNL     1      12.056  65.841   3.001  1.00  0.00     0.199 C 
HETATM   23  C17 UNL     1      11.082  66.856   2.434  1.00  0.00     0.053 C 
HETATM   24  C18 UNL     1      10.933  67.890   3.597  1.00  0.00     0.036 C 
HETATM   25  C20 UNL     1       9.697  66.414   2.307  1.00  0.00     0.151 C 
HETATM   26  C19 UNL     1       9.658  67.420   4.239  1.00  0.00     0.168 C 
HETATM   27  O4  UNL     1       9.363  66.186   3.671  1.00  0.00    -0.383 OA
BRANCH  18  28
HETATM   28  O2  UNL     1      12.368  64.206  -0.249  1.00  0.00    -0.384 OA
HETATM   29  C14 UNL     1      12.702  65.036  -1.306  1.00  0.00     0.202 C 
ENDBRANCH  18  28
BRANCH  22  30
HETATM   30  O3  UNL     1      13.223  66.541   3.336  1.00  0.00    -0.389 OA
ATOM     31  H3  UNL     1      13.160  66.815   4.243  1.00  0.00     0.210 HD
ENDBRANCH  22  30
ENDBRANCH  13  15
ENDBRANCH   6  11
ENDBRANCH   4   6
ENDBRANCH   3   4
BRANCH   3  32
HETATM   32  N3  UNL     1       6.073  59.686   2.503  1.00  0.00    -0.340 N 
HETATM   33  C21 UNL     1       7.086  59.479   3.482  1.00  0.00     0.133 C 
HETATM   34  C22 UNL     1       7.101  58.191   4.208  1.00  0.00     0.052 C 
HETATM   35  C23 UNL     1       6.658  57.019   3.346  1.00  0.00     0.124 C 
HETATM   36  C24 UNL     1       5.231  57.385   2.911  1.00  0.00     0.076 C 
HETATM   37  C25 UNL     1       5.385  58.580   1.999  1.00  0.00     0.069 C 
BRANCH  35  38
HETATM   38  O5  UNL     1       6.694  55.853   4.081  1.00  0.00    -0.395 OA
ATOM     39  H5  UNL     1       6.074  55.226   3.727  1.00  0.00     0.210 HD
ENDBRANCH  35  38
ENDBRANCH   3  32
TORSDOF 10
ENDMDL
MODEL 3
REMARK VINA RESULT: -7.261216928      2.158      5.257
REMARK  10 active torsions:
REMARK  status: ('A' for Active; 'I' for Inactive)
REMARK    1  A    between atoms: C3_3  and  N1_4 
REMARK    2  A    between atoms: C3_3  and  N3_32 
REMARK    3  A    between atoms: N1_4  and  C4_6 
REMARK    4  A    between atoms: C4_6  and  C6_8 
REMARK    5  A    between atoms: C4_6  and  C9_11 
REMARK    6  A    between atoms: C6_8  and  C7_9 
REMARK       I    between atoms: C9_11  and  N2_13 
REMARK    7  A    between atoms: N2_13  and  C10_15 
REMARK    8  A    between atoms: C13_18  and  O2_19 
REMARK    9  A    between atoms: C16_24  and  O3_25 
REMARK   10  A    between atoms: C23_35  and  O5_36 
ROOT
HETATM    1  C1  UNL     1       2.829  60.290   1.806  1.00  0.00     0.021 C 
HETATM    2  C2  UNL     1       3.987  60.317   2.184  1.00  0.00    -0.041 C 
HETATM    3  C3  UNL     1       5.399  60.371   2.660  1.00  0.00     0.159 C 
ENDROOT
BRANCH   3   4
HETATM    4  N1  UNL     1       6.059  61.558   2.389  1.00  0.00    -0.351 N 
ATOM      5  H1  UNL     1       6.393  61.668   1.432  1.00  0.00     0.163 HD
BRANCH   4   6
HETATM    6  C4  UNL     1       6.329  62.614   3.239  1.00  0.00     0.112 C 
HETATM    7  C5  UNL     1       7.285  62.283   4.379  1.00  0.00     0.049 C 
BRANCH   6   8
HETATM    8  C6  UNL     1       5.310  63.590   3.661  1.00  0.00     0.067 C 
BRANCH   8   9
HETATM    9  C7  UNL     1       4.459  63.303   4.821  1.00  0.00    -0.034 C 
HETATM   10  C8  UNL     1       4.524  64.086   5.878  1.00  0.00     0.007 C 
ENDBRANCH   8   9
ENDBRANCH   6   8
BRANCH   6  11
HETATM   11  C9  UNL     1       7.262  63.521   2.349  1.00  0.00     0.246 C 
HETATM   12  O1  UNL     1       6.829  63.726   1.204  1.00  0.00    -0.271 OA
HETATM   13  N2  UNL     1       8.431  64.027   2.831  1.00  0.00    -0.351 N 
ATOM     14  H2  UNL     1       8.627  63.713   3.782  1.00  0.00     0.163 HD
BRANCH  13  15
HETATM   15  C10 UNL     1       9.467  64.908   2.315  1.00  0.00     0.120 C 
HETATM   16  C11 UNL     1      10.841  64.464   2.652  1.00  0.00     0.042 C 
HETATM   17  C12 UNL     1      11.236  63.408   1.579  1.00  0.00     0.015 C 
HETATM   18  C13 UNL     1      11.846  65.563   2.557  1.00  0.00     0.201 C 
HETATM   19  C15 UNL     1      11.919  66.365   3.860  1.00  0.00     0.295 C 
HETATM   20  F1  UNL     1      13.134  67.023   3.915  1.00  0.00    -0.201 F 
HETATM   21  F2  UNL     1      11.871  65.494   4.923  1.00  0.00    -0.201 F 
HETATM   22  C16 UNL     1      10.810  67.348   3.969  1.00  0.00     0.199 C 
HETATM   23  C17 UNL     1       9.951  67.408   2.720  1.00  0.00     0.053 C 
HETATM   24  C18 UNL     1       8.927  68.542   3.050  1.00  0.00     0.036 C 
HETATM   25  C20 UNL     1       9.037  66.290   2.516  1.00  0.00     0.151 C 
HETATM   26  C19 UNL     1       7.742  67.737   3.505  1.00  0.00     0.168 C 
HETATM   27  O4  UNL     1       8.188  66.428   3.650  1.00  0.00    -0.383 OA
BRANCH  18  28
HETATM   28  O2  UNL     1      13.168  65.089   2.335  1.00  0.00    -0.384 OA
HETATM   29  C14 UNL     1      13.843  65.874   1.416  1.00  0.00     0.202 C 
ENDBRANCH  18  28
BRANCH  22  30
HETATM   30  O3  UNL     1      11.362  68.624   4.145  1.00  0.00    -0.389 OA
ATOM     31  H3  UNL     1      12.228  68.634   3.756  1.00  0.00     0.210 HD
ENDBRANCH  22  30
ENDBRANCH  13  15
ENDBRANCH   6  11
ENDBRANCH   4   6
ENDBRANCH   3   4
BRANCH   3  32
HETATM   32  N3  UNL     1       6.061  59.128   2.589  1.00  0.00    -0.340 N 
HETATM   33  C21 UNL     1       7.060  59.005   3.596  1.00  0.00     0.133 C 
HETATM   34  C22 UNL     1       7.092  57.762   4.397  1.00  0.00     0.052 C 
HETATM   35  C23 UNL     1       6.696  56.531   3.597  1.00  0.00     0.124 C 
HETATM   36  C24 UNL     1       5.269  56.834   3.115  1.00  0.00     0.076 C 
HETATM   37  C25 UNL     1       5.411  57.977   2.138  1.00  0.00     0.069 C 
BRANCH  35  38
HETATM   38  O5  UNL     1       6.747  55.411   4.400  1.00  0.00    -0.395 OA
ATOM     39  H5  UNL     1       5.898  54.985   4.417  1.00  0.00     0.210 HD
ENDBRANCH  35  38
ENDBRANCH   3  32
TORSDOF 10
ENDMDL
MODEL 4
REMARK VINA RESULT: -7.190569220      4.168      7.537
REMARK  10 active torsions:
REMARK  status: ('A' for Active; 'I' for Inactive)
REMARK    1  A    between atoms: C3_3  and  N1_4 
REMARK    2  A    between atoms: C3_3  and  N3_32 
REMARK    3  A    between atoms: N1_4  and  C4_6 
REMARK    4  A    between atoms: C4_6  and  C6_8 
REMARK    5  A    between atoms: C4_6  and  C9_11 
REMARK    6  A    between atoms: C6_8  and  C7_9 
REMARK       I    between atoms: C9_11  and  N2_13 
REMARK    7  A    between atoms: N2_13  and  C10_15 
REMARK    8  A    between atoms: C13_18  and  O2_19 
REMARK    9  A    between atoms: C16_24  and  O3_25 
REMARK   10  A    between atoms: C23_35  and  O5_36 
ROOT
HETATM    1  C1  UNL     1       7.714  65.934   2.061  1.00  0.00     0.021 C 
HETATM    2  C2  UNL     1       8.215  64.853   2.314  1.00  0.00    -0.041 C 
HETATM    3  C3  UNL     1       8.805  63.520   2.626  1.00  0.00     0.159 C 
ENDROOT
BRANCH   3   4
HETATM    4  N1  UNL     1       8.296  62.908   3.759  1.00  0.00    -0.351 N 
ATOM      5  H1  UNL     1       8.597  63.306   4.648  1.00  0.00     0.163 HD
BRANCH   4   6
HETATM    6  C4  UNL     1       7.435  61.831   3.850  1.00  0.00     0.112 C 
HETATM    7  C5  UNL     1       6.738  61.686   5.198  1.00  0.00     0.049 C 
BRANCH   6   8
HETATM    8  C6  UNL     1       7.722  60.516   3.252  1.00  0.00     0.067 C 
BRANCH   8   9
HETATM    9  C7  UNL     1       6.958  59.337   3.677  1.00  0.00    -0.034 C 
HETATM   10  C8  UNL     1       7.533  58.152   3.653  1.00  0.00     0.007 C 
ENDBRANCH   8   9
ENDBRANCH   6   8
BRANCH   6  11
HETATM   11  C9  UNL     1       6.221  62.304   2.960  1.00  0.00     0.246 C 
HETATM   12  O1  UNL     1       5.422  63.052   3.547  1.00  0.00    -0.271 OA
HETATM   13  N2  UNL     1       6.097  61.914   1.662  1.00  0.00    -0.351 N 
ATOM     14  H2  UNL     1       6.836  61.270   1.377  1.00  0.00     0.163 HD
BRANCH  13  15
HETATM   15  C10 UNL     1       5.164  62.196   0.583  1.00  0.00     0.120 C 
HETATM   16  C11 UNL     1       4.393  61.007   0.143  1.00  0.00     0.042 C 
HETATM   17  C12 UNL     1       3.189  60.880   1.121  1.00  0.00     0.015 C 
HETATM   18  C13 UNL     1       3.816  61.162  -1.224  1.00  0.00     0.201 C 
HETATM   19  C15 UNL     1       4.823  60.753  -2.304  1.00  0.00     0.295 C 
HETATM   20  F1  UNL     1       4.138  60.452  -3.466  1.00  0.00    -0.201 F 
HETATM   21  F2  UNL     1       5.472  59.611  -1.898  1.00  0.00    -0.201 F 
HETATM   22  C16 UNL     1       5.817  61.826  -2.569  1.00  0.00     0.199 C 
HETATM   23  C17 UNL     1       5.524  63.102  -1.805  1.00  0.00     0.053 C 
HETATM   24  C18 UNL     1       6.642  64.076  -2.302  1.00  0.00     0.036 C 
HETATM   25  C20 UNL     1       5.824  63.079  -0.377  1.00  0.00     0.151 C 
HETATM   26  C19 UNL     1       7.646  63.954  -1.190  1.00  0.00     0.168 C 
HETATM   27  O4  UNL     1       7.233  62.885  -0.403  1.00  0.00    -0.383 OA
BRANCH  18  28
HETATM   28  O2  UNL     1       2.678  60.338  -1.443  1.00  0.00    -0.384 OA
HETATM   29  C14 UNL     1       1.597  61.073  -1.899  1.00  0.00     0.202 C 
ENDBRANCH  18  28
BRANCH  22  30
HETATM   30  O3  UNL     1       5.771  62.147  -3.932  1.00  0.00    -0.389 OA
ATOM     31  H3  UNL     1       6.227  61.470  -4.417  1.00  0.00     0.210 HD
ENDBRANCH  22  30
ENDBRANCH  13  15
ENDBRANCH   6  11
ENDBRANCH   4   6
ENDBRANCH   3   4
BRANCH   3  32
HETATM   32  N3  UNL     1      10.171  63.419   2.287  1.00  0.00    -0.340 N 
HETATM   33  C21 UNL     1      10.363  62.665   1.095  1.00  0.00     0.133 C 
HETATM   34  C22 UNL     1      11.251  63.223   0.053  1.00  0.00     0.052 C 
HETATM   35  C23 UNL     1      12.421  64.005   0.628  1.00  0.00     0.124 C 
HETATM   36  C24 UNL     1      11.764  65.128   1.445  1.00  0.00     0.076 C 
HETATM   37  C25 UNL     1      11.079  64.434   2.598  1.00  0.00     0.069 C 
BRANCH  35  38
HETATM   38  O5  UNL     1      13.206  64.497  -0.394  1.00  0.00    -0.395 OA
ATOM     39  H5  UNL     1      12.879  65.343  -0.676  1.00  0.00     0.210 HD
ENDBRANCH  35  38
ENDBRANCH   3  32
TORSDOF 10
ENDMDL
MODEL 5
REMARK VINA RESULT: -7.152785630      3.348      7.599
REMARK  10 active torsions:
REMARK  status: ('A' for Active; 'I' for Inactive)
REMARK    1  A    between atoms: C3_3  and  N1_4 
REMARK    2  A    between atoms: C3_3  and  N3_32 
REMARK    3  A    between atoms: N1_4  and  C4_6 
REMARK    4  A    between atoms: C4_6  and  C6_8 
REMARK    5  A    between atoms: C4_6  and  C9_11 
REMARK    6  A    between atoms: C6_8  and  C7_9 
REMARK       I    between atoms: C9_11  and  N2_13 
REMARK    7  A    between atoms: N2_13  and  C10_15 
REMARK    8  A    between atoms: C13_18  and  O2_19 
REMARK    9  A    between atoms: C16_24  and  O3_25 
REMARK   10  A    between atoms: C23_35  and  O5_36 
ROOT
HETATM    1  C1  UNL     1       9.573  67.595   3.978  1.00  0.00     0.021 C 
HETATM    2  C2  UNL     1      10.389  66.823   3.507  1.00  0.00    -0.041 C 
HETATM    3  C3  UNL     1      11.372  65.874   2.911  1.00  0.00     0.159 C 
ENDROOT
BRANCH   3   4
HETATM    4  N1  UNL     1      10.866  64.618   2.620  1.00  0.00    -0.351 N 
ATOM      5  H1  UNL     1      10.677  64.022   3.427  1.00  0.00     0.163 HD
BRANCH   4   6
HETATM    6  C4  UNL     1      10.583  64.060   1.388  1.00  0.00     0.112 C 
HETATM    7  C5  UNL     1      11.531  62.945   0.962  1.00  0.00     0.049 C 
BRANCH   6   8
HETATM    8  C6  UNL     1      10.131  64.850   0.230  1.00  0.00     0.067 C 
BRANCH   8   9
HETATM    9  C7  UNL     1      10.922  64.852  -1.006  1.00  0.00    -0.034 C 
HETATM   10  C8  UNL     1      10.336  64.552  -2.147  1.00  0.00     0.007 C 
ENDBRANCH   8   9
ENDBRANCH   6   8
BRANCH   6  11
HETATM   11  C9  UNL     1       9.287  63.218   1.699  1.00  0.00     0.246 C 
HETATM   12  O1  UNL     1       8.651  62.872   0.690  1.00  0.00    -0.271 OA
HETATM   13  N2  UNL     1       8.930  62.908   2.976  1.00  0.00    -0.351 N 
ATOM     14  H2  UNL     1       9.562  63.316   3.666  1.00  0.00     0.163 HD
BRANCH  13  15
HETATM   15  C10 UNL     1       7.863  62.134   3.592  1.00  0.00     0.120 C 
HETATM   16  C11 UNL     1       7.291  61.100   2.696  1.00  0.00     0.042 C 
HETATM   17  C12 UNL     1       8.225  59.860   2.808  1.00  0.00     0.015 C 
HETATM   18  C13 UNL     1       5.933  60.650   3.122  1.00  0.00     0.201 C 
HETATM   19  C15 UNL     1       4.841  61.564   2.557  1.00  0.00     0.295 C 
HETATM   20  F1  UNL     1       3.639  60.881   2.554  1.00  0.00    -0.201 F 
HETATM   21  F2  UNL     1       5.147  61.869   1.251  1.00  0.00    -0.201 F 
HETATM   22  C16 UNL     1       4.706  62.817   3.345  1.00  0.00     0.199 C 
HETATM   23  C17 UNL     1       5.586  62.834   4.580  1.00  0.00     0.053 C 
HETATM   24  C18 UNL     1       5.212  64.192   5.260  1.00  0.00     0.036 C 
HETATM   25  C20 UNL     1       7.011  63.049   4.349  1.00  0.00     0.151 C 
HETATM   26  C19 UNL     1       6.330  65.074   4.776  1.00  0.00     0.168 C 
HETATM   27  O4  UNL     1       6.998  64.357   3.790  1.00  0.00    -0.383 OA
BRANCH  18  28
HETATM   28  O2  UNL     1       5.608  59.347   2.653  1.00  0.00    -0.384 OA
HETATM   29  C14 UNL     1       5.953  58.374   3.577  1.00  0.00     0.202 C 
ENDBRANCH  18  28
BRANCH  22  30
HETATM   30  O3  UNL     1       3.381  62.922   3.788  1.00  0.00    -0.389 OA
ATOM     31  H3  UNL     1       2.846  63.232   3.067  1.00  0.00     0.210 HD
ENDBRANCH  22  30
ENDBRANCH  13  15
ENDBRANCH   6  11
ENDBRANCH   4   6
ENDBRANCH   3   4
BRANCH   3  32
HETATM   32  N3  UNL     1      12.683  66.044   3.402  1.00  0.00    -0.340 N 
HETATM   33  C21 UNL     1      12.692  66.287   4.805  1.00  0.00     0.133 C 
HETATM   34  C22 UNL     1      13.630  65.509   5.641  1.00  0.00     0.052 C 
HETATM   35  C23 UNL     1      14.944  65.209   4.937  1.00  0.00     0.124 C 
HETATM   36  C24 UNL     1      14.533  64.412   3.690  1.00  0.00     0.076 C 
HETATM   37  C25 UNL     1      13.772  65.389   2.824  1.00  0.00     0.069 C 
BRANCH  35  38
HETATM   38  O5  UNL     1      15.769  64.483   5.769  1.00  0.00    -0.395 OA
ATOM     39  H5  UNL     1      16.676  64.717   5.612  1.00  0.00     0.210 HD
ENDBRANCH  35  38
ENDBRANCH   3  32
TORSDOF 10
ENDMDL
