MODEL 1
REMARK VINA RESULT: -7.733653943      0.000      0.000
REMARK  9 active torsions:
REMARK  status: ('A' for Active; 'I' for Inactive)
REMARK    1  A    between atoms: C2_2  and  N1_5 
REMARK       I    between atoms: N1_5  and  C5_7 
REMARK    2  A    between atoms: C5_7  and  O2_9 
REMARK    3  A    between atoms: O2_9  and  C6_10 
REMARK    4  A    between atoms: C6_10  and  C7_11 
REMARK    5  A    between atoms: N2_15  and  S1_16 
REMARK    6  A    between atoms: S1_16  and  N3_19 
REMARK       I    between atoms: N3_19  and  C11_21 
REMARK       I    between atoms: C11_21  and  N4_23 
REMARK    7  A    between atoms: N4_23  and  C12_25 
REMARK    8  A    between atoms: C12_25  and  C13_26 
REMARK    9  A    between atoms: C12_25  and  C14_28 
ROOT
HETATM    1  C7  UNL     1       8.835  64.595   0.612  1.00  0.00     0.046 C 
HETATM    2  C8  UNL     1       9.317  65.479  -0.472  1.00  0.00     0.024 C 
HETATM    3  C9  UNL     1       7.757  65.344   1.414  1.00  0.00     0.033 C 
HETATM    4  C10 UNL     1       8.302  66.224   2.465  1.00  0.00     0.110 C 
HETATM    5  N2  UNL     1       9.671  66.570   2.345  1.00  0.00    -0.187 NA
HETATM    6  C15 UNL     1      10.580  65.530   2.058  1.00  0.00     0.188 C 
HETATM    7  C16 UNL     1       9.931  64.266   1.605  1.00  0.00     0.265 C 
HETATM    8  F1  UNL     1      10.848  63.371   1.064  1.00  0.00    -0.204 F 
HETATM    9  F2  UNL     1       9.285  63.660   2.697  1.00  0.00    -0.204 F 
ENDROOT
BRANCH   5  10
HETATM   10  S1  UNL     1      10.160  67.512   3.696  1.00  0.00     0.306 S 
HETATM   11  O3  UNL     1      11.047  68.639   3.240  1.00  0.00    -0.188 OA
HETATM   12  O4  UNL     1       8.898  68.086   4.325  1.00  0.00    -0.188 OA
BRANCH  10  13
HETATM   13  N3  UNL     1      10.956  66.487   4.821  1.00  0.00    -0.223 N 
HETATM   14  C11 UNL     1      12.355  66.357   4.783  1.00  0.00     0.331 C 
HETATM   15  O5  UNL     1      13.001  67.010   3.909  1.00  0.00    -0.246 OA
HETATM   16  N4  UNL     1      13.037  65.505   5.712  1.00  0.00    -0.331 N 
ATOM     17  H4  UNL     1      12.485  64.994   6.402  1.00  0.00     0.165 HD
ATOM     18  H3  UNL     1      10.414  65.973   5.515  1.00  0.00     0.184 HD
BRANCH  16  19
HETATM   19  C12 UNL     1      14.456  65.339   5.715  1.00  0.00     0.157 C 
BRANCH  19  20
HETATM   20  C13 UNL     1      14.901  64.381   4.645  1.00  0.00     0.257 C 
HETATM   21  O6  UNL     1      15.290  64.748   3.566  1.00  0.00    -0.305 OA
ENDBRANCH  19  20
BRANCH  19  22
HETATM   22  C14 UNL     1      14.877  64.767   7.056  1.00  0.00     0.117 C 
HETATM   23 BR1  UNL     1      15.997  63.199   6.820  1.00  0.00    -0.094 Br
ENDBRANCH  19  22
ENDBRANCH  16  19
ENDBRANCH  10  13
ENDBRANCH   5  10
BRANCH   1  24
HETATM   24  C6  UNL     1       8.229  63.285   0.174  1.00  0.00     0.196 C 
BRANCH  24  25
HETATM   25  O2  UNL     1       7.051  62.872   0.671  1.00  0.00    -0.303 OA
BRANCH  25  26
HETATM   26  C5  UNL     1       6.583  62.063   1.620  1.00  0.00     0.361 C 
HETATM   27  N1  UNL     1       7.230  60.870   2.088  1.00  0.00    -0.329 N 
ATOM     28  H1  UNL     1       8.122  60.608   1.667  1.00  0.00     0.165 HD
HETATM   29  O1  UNL     1       5.495  62.333   2.170  1.00  0.00    -0.238 OA
BRANCH  27  30
HETATM   30  C2  UNL     1       6.693  60.027   3.114  1.00  0.00     0.024 C 
HETATM   31  C1  UNL     1       6.579  60.739   4.447  1.00  0.00     0.037 C 
HETATM   32  C3  UNL     1       7.684  58.886   3.351  1.00  0.00     0.037 C 
HETATM   33  C4  UNL     1       5.367  59.422   2.756  1.00  0.00     0.037 C 
ENDBRANCH  27  30
ENDBRANCH  25  26
ENDBRANCH  24  25
ENDBRANCH   1  24
TORSDOF 9
ENDMDL
MODEL 2
REMARK VINA RESULT: -7.516751503      0.710      1.065
REMARK  9 active torsions:
REMARK  status: ('A' for Active; 'I' for Inactive)
REMARK    1  A    between atoms: C2_2  and  N1_5 
REMARK       I    between atoms: N1_5  and  C5_7 
REMARK    2  A    between atoms: C5_7  and  O2_9 
REMARK    3  A    between atoms: O2_9  and  C6_10 
REMARK    4  A    between atoms: C6_10  and  C7_11 
REMARK    5  A    between atoms: N2_15  and  S1_16 
REMARK    6  A    between atoms: S1_16  and  N3_19 
REMARK       I    between atoms: N3_19  and  C11_21 
REMARK       I    between atoms: C11_21  and  N4_23 
REMARK    7  A    between atoms: N4_23  and  C12_25 
REMARK    8  A    between atoms: C12_25  and  C13_26 
REMARK    9  A    between atoms: C12_25  and  C14_28 
ROOT
HETATM    1  C7  UNL     1       9.148  64.571   0.648  1.00  0.00     0.046 C 
HETATM    2  C8  UNL     1       9.138  65.603  -0.411  1.00  0.00     0.024 C 
HETATM    3  C9  UNL     1       8.101  64.946   1.711  1.00  0.00     0.033 C 
HETATM    4  C10 UNL     1       8.599  65.897   2.725  1.00  0.00     0.110 C 
HETATM    5  N2  UNL     1       9.769  66.621   2.385  1.00  0.00    -0.187 NA
HETATM    6  C15 UNL     1      10.842  65.894   1.827  1.00  0.00     0.188 C 
HETATM    7  C16 UNL     1      10.475  64.520   1.379  1.00  0.00     0.265 C 
HETATM    8  F1  UNL     1      11.464  63.947   0.586  1.00  0.00    -0.204 F 
HETATM    9  F2  UNL     1      10.259  63.707   2.505  1.00  0.00    -0.204 F 
ENDROOT
BRANCH   5  10
HETATM   10  S1  UNL     1      10.259  67.600   3.708  1.00  0.00     0.306 S 
HETATM   11  O3  UNL     1      11.169  68.697   3.223  1.00  0.00    -0.188 OA
HETATM   12  O4  UNL     1       9.001  68.215   4.305  1.00  0.00    -0.188 OA
BRANCH  10  13
HETATM   13  N3  UNL     1      11.027  66.601   4.875  1.00  0.00    -0.223 N 
HETATM   14  C11 UNL     1      12.417  66.393   4.814  1.00  0.00     0.331 C 
HETATM   15  O5  UNL     1      13.074  66.956   3.888  1.00  0.00    -0.246 OA
HETATM   16  N4  UNL     1      13.075  65.561   5.778  1.00  0.00    -0.331 N 
ATOM     17  H4  UNL     1      12.515  65.123   6.509  1.00  0.00     0.165 HD
ATOM     18  H3  UNL     1      10.477  66.160   5.611  1.00  0.00     0.184 HD
BRANCH  16  19
HETATM   19  C12 UNL     1      14.483  65.318   5.759  1.00  0.00     0.157 C 
BRANCH  19  20
HETATM   20  C13 UNL     1      14.861  64.353   4.670  1.00  0.00     0.257 C 
HETATM   21  O6  UNL     1      15.370  64.706   3.638  1.00  0.00    -0.305 OA
ENDBRANCH  19  20
BRANCH  19  22
HETATM   22  C14 UNL     1      14.890  64.704   7.086  1.00  0.00     0.117 C 
HETATM   23 BR1  UNL     1      16.047  63.170   6.815  1.00  0.00    -0.094 Br
ENDBRANCH  19  22
ENDBRANCH  16  19
ENDBRANCH  10  13
ENDBRANCH   5  10
BRANCH   1  24
HETATM   24  C6  UNL     1       8.837  63.164   0.201  1.00  0.00     0.196 C 
BRANCH  24  25
HETATM   25  O2  UNL     1       7.873  62.449   0.803  1.00  0.00    -0.303 OA
BRANCH  25  26
HETATM   26  C5  UNL     1       7.721  61.635   1.847  1.00  0.00     0.361 C 
HETATM   27  N1  UNL     1       6.718  60.614   1.965  1.00  0.00    -0.329 N 
ATOM     28  H1  UNL     1       6.060  60.493   1.195  1.00  0.00     0.165 HD
HETATM   29  O1  UNL     1       8.498  61.738   2.820  1.00  0.00    -0.238 OA
BRANCH  27  30
HETATM   30  C2  UNL     1       6.590  59.757   3.106  1.00  0.00     0.024 C 
HETATM   31  C1  UNL     1       7.731  58.765   3.215  1.00  0.00     0.037 C 
HETATM   32  C3  UNL     1       5.334  58.904   2.913  1.00  0.00     0.037 C 
HETATM   33  C4  UNL     1       6.451  60.502   4.401  1.00  0.00     0.037 C 
ENDBRANCH  27  30
ENDBRANCH  25  26
ENDBRANCH  24  25
ENDBRANCH   1  24
TORSDOF 9
ENDMDL
MODEL 3
REMARK VINA RESULT: -7.098670520      4.398      6.200
REMARK  9 active torsions:
REMARK  status: ('A' for Active; 'I' for Inactive)
REMARK    1  A    between atoms: C2_2  and  N1_5 
REMARK       I    between atoms: N1_5  and  C5_7 
REMARK    2  A    between atoms: C5_7  and  O2_9 
REMARK    3  A    between atoms: O2_9  and  C6_10 
REMARK    4  A    between atoms: C6_10  and  C7_11 
REMARK    5  A    between atoms: N2_15  and  S1_16 
REMARK    6  A    between atoms: S1_16  and  N3_19 
REMARK       I    between atoms: N3_19  and  C11_21 
REMARK       I    between atoms: C11_21  and  N4_23 
REMARK    7  A    between atoms: N4_23  and  C12_25 
REMARK    8  A    between atoms: C12_25  and  C13_26 
REMARK    9  A    between atoms: C12_25  and  C14_28 
ROOT
HETATM    1  C7  UNL     1       6.645  58.810   3.217  1.00  0.00     0.046 C 
HETATM    2  C8  UNL     1       6.616  58.863   4.694  1.00  0.00     0.024 C 
HETATM    3  C9  UNL     1       8.056  59.195   2.738  1.00  0.00     0.033 C 
HETATM    4  C10 UNL     1       8.267  60.651   2.624  1.00  0.00     0.110 C 
HETATM    5  N2  UNL     1       7.346  61.475   3.318  1.00  0.00    -0.187 NA
HETATM    6  C15 UNL     1       5.975  61.168   3.187  1.00  0.00     0.188 C 
HETATM    7  C16 UNL     1       5.709  59.826   2.594  1.00  0.00     0.265 C 
HETATM    8  F1  UNL     1       4.380  59.442   2.743  1.00  0.00    -0.204 F 
HETATM    9  F2  UNL     1       6.030  59.851   1.226  1.00  0.00    -0.204 F 
ENDROOT
BRANCH   5  10
HETATM   10  S1  UNL     1       7.679  63.129   2.996  1.00  0.00     0.306 S 
HETATM   11  O3  UNL     1       7.267  63.470   1.590  1.00  0.00    -0.188 OA
HETATM   12  O4  UNL     1       6.856  63.954   3.977  1.00  0.00    -0.188 OA
BRANCH  10  13
HETATM   13  N3  UNL     1       9.352  63.414   3.259  1.00  0.00    -0.223 N 
HETATM   14  C11 UNL     1       9.966  64.550   2.703  1.00  0.00     0.331 C 
HETATM   15  O5  UNL     1       9.258  65.346   2.015  1.00  0.00    -0.246 OA
HETATM   16  N4  UNL     1      11.361  64.804   2.910  1.00  0.00    -0.331 N 
ATOM     17  H4  UNL     1      11.900  64.142   3.469  1.00  0.00     0.165 HD
ATOM     18  H3  UNL     1       9.900  62.760   3.817  1.00  0.00     0.184 HD
BRANCH  16  19
HETATM   19  C12 UNL     1      12.031  65.944   2.367  1.00  0.00     0.157 C 
BRANCH  19  20
HETATM   20  C13 UNL     1      13.384  65.580   1.823  1.00  0.00     0.257 C 
HETATM   21  O6  UNL     1      13.765  65.935   0.737  1.00  0.00    -0.305 OA
ENDBRANCH  19  20
BRANCH  19  22
HETATM   22  C14 UNL     1      12.232  66.963   3.473  1.00  0.00     0.117 C 
HETATM   23 BR1  UNL     1      10.777  68.248   3.506  1.00  0.00    -0.094 Br
ENDBRANCH  19  22
ENDBRANCH  16  19
ENDBRANCH  10  13
ENDBRANCH   5  10
BRANCH   1  24
HETATM   24  C6  UNL     1       6.320  57.473   2.598  1.00  0.00     0.196 C 
BRANCH  24  25
HETATM   25  O2  UNL     1       5.328  56.712   3.089  1.00  0.00    -0.303 OA
BRANCH  25  26
HETATM   26  C5  UNL     1       5.165  55.561   3.739  1.00  0.00     0.361 C 
HETATM   27  N1  UNL     1       3.996  54.729   3.676  1.00  0.00    -0.329 N 
ATOM     28  H1  UNL     1       3.219  55.034   3.090  1.00  0.00     0.165 HD
HETATM   29  O1  UNL     1       6.084  55.138   4.472  1.00  0.00    -0.238 OA
BRANCH  27  30
HETATM   30  C2  UNL     1       3.862  53.495   4.390  1.00  0.00     0.024 C 
HETATM   31  C1  UNL     1       3.021  52.481   3.640  1.00  0.00     0.037 C 
HETATM   32  C3  UNL     1       3.091  53.781   5.681  1.00  0.00     0.037 C 
HETATM   33  C4  UNL     1       5.177  52.875   4.763  1.00  0.00     0.037 C 
ENDBRANCH  27  30
ENDBRANCH  25  26
ENDBRANCH  24  25
ENDBRANCH   1  24
TORSDOF 9
ENDMDL
MODEL 4
REMARK VINA RESULT: -7.097861954      3.276      4.632
REMARK  9 active torsions:
REMARK  status: ('A' for Active; 'I' for Inactive)
REMARK    1  A    between atoms: C2_2  and  N1_5 
REMARK       I    between atoms: N1_5  and  C5_7 
REMARK    2  A    between atoms: C5_7  and  O2_9 
REMARK    3  A    between atoms: O2_9  and  C6_10 
REMARK    4  A    between atoms: C6_10  and  C7_11 
REMARK    5  A    between atoms: N2_15  and  S1_16 
REMARK    6  A    between atoms: S1_16  and  N3_19 
REMARK       I    between atoms: N3_19  and  C11_21 
REMARK       I    between atoms: C11_21  and  N4_23 
REMARK    7  A    between atoms: N4_23  and  C12_25 
REMARK    8  A    between atoms: C12_25  and  C13_26 
REMARK    9  A    between atoms: C12_25  and  C14_28 
ROOT
HETATM    1  C7  UNL     1       6.032  60.507   2.405  1.00  0.00     0.046 C 
HETATM    2  C8  UNL     1       5.979  60.549   0.928  1.00  0.00     0.024 C 
HETATM    3  C9  UNL     1       5.233  61.698   2.960  1.00  0.00     0.033 C 
HETATM    4  C10 UNL     1       6.009  62.951   3.034  1.00  0.00     0.110 C 
HETATM    5  N2  UNL     1       7.189  63.005   2.251  1.00  0.00    -0.187 NA
HETATM    6  C15 UNL     1       8.054  61.891   2.304  1.00  0.00     0.188 C 
HETATM    7  C16 UNL     1       7.444  60.681   2.927  1.00  0.00     0.265 C 
HETATM    8  F1  UNL     1       8.206  59.538   2.707  1.00  0.00    -0.204 F 
HETATM    9  F2  UNL     1       7.315  60.887   4.312  1.00  0.00    -0.204 F 
ENDROOT
BRANCH   5  10
HETATM   10  S1  UNL     1       8.014  64.486   2.532  1.00  0.00     0.306 S 
HETATM   11  O3  UNL     1       7.901  65.371   1.321  1.00  0.00    -0.188 OA
HETATM   12  O4  UNL     1       7.335  65.162   3.716  1.00  0.00    -0.188 OA
BRANCH  10  13
HETATM   13  N3  UNL     1       9.650  64.138   2.921  1.00  0.00    -0.223 N 
HETATM   14  C11 UNL     1      10.590  65.181   2.991  1.00  0.00     0.331 C 
HETATM   15  O5  UNL     1      10.201  66.366   2.762  1.00  0.00    -0.246 OA
HETATM   16  N4  UNL     1      11.961  64.911   3.312  1.00  0.00    -0.331 N 
ATOM     17  H4  UNL     1      12.240  63.945   3.489  1.00  0.00     0.165 HD
ATOM     18  H3  UNL     1       9.939  63.177   3.102  1.00  0.00     0.184 HD
BRANCH  16  19
HETATM   19  C12 UNL     1      12.954  65.935   3.395  1.00  0.00     0.157 C 
BRANCH  19  20
HETATM   20  C13 UNL     1      14.153  65.609   2.548  1.00  0.00     0.257 C 
HETATM   21  O6  UNL     1      14.257  65.969   1.404  1.00  0.00    -0.305 OA
ENDBRANCH  19  20
BRANCH  19  22
HETATM   22  C14 UNL     1      13.419  66.047   4.835  1.00  0.00     0.117 C 
HETATM   23 BR1  UNL     1      15.019  64.987   5.132  1.00  0.00    -0.094 Br
ENDBRANCH  19  22
ENDBRANCH  16  19
ENDBRANCH  10  13
ENDBRANCH   5  10
BRANCH   1  24
HETATM   24  C6  UNL     1       5.474  59.263   3.050  1.00  0.00     0.196 C 
BRANCH  24  25
HETATM   25  O2  UNL     1       4.766  58.375   2.333  1.00  0.00    -0.303 OA
BRANCH  25  26
HETATM   26  C5  UNL     1       3.503  58.139   1.981  1.00  0.00     0.361 C 
HETATM   27  N1  UNL     1       2.774  56.934   2.261  1.00  0.00    -0.329 N 
ATOM     28  H1  UNL     1       3.251  56.189   2.770  1.00  0.00     0.165 HD
HETATM   29  O1  UNL     1       2.870  59.015   1.355  1.00  0.00    -0.238 OA
BRANCH  27  30
HETATM   30  C2  UNL     1       1.414  56.720   1.866  1.00  0.00     0.024 C 
HETATM   31  C1  UNL     1       0.482  57.789   2.399  1.00  0.00     0.037 C 
HETATM   32  C3  UNL     1       0.938  55.415   2.508  1.00  0.00     0.037 C 
HETATM   33  C4  UNL     1       1.236  56.598   0.380  1.00  0.00     0.037 C 
ENDBRANCH  27  30
ENDBRANCH  25  26
ENDBRANCH  24  25
ENDBRANCH   1  24
TORSDOF 9
ENDMDL
MODEL 5
REMARK VINA RESULT: -7.091303203      2.824      3.920
REMARK  9 active torsions:
REMARK  status: ('A' for Active; 'I' for Inactive)
REMARK    1  A    between atoms: C2_2  and  N1_5 
REMARK       I    between atoms: N1_5  and  C5_7 
REMARK    2  A    between atoms: C5_7  and  O2_9 
REMARK    3  A    between atoms: O2_9  and  C6_10 
REMARK    4  A    between atoms: C6_10  and  C7_11 
REMARK    5  A    between atoms: N2_15  and  S1_16 
REMARK    6  A    between atoms: S1_16  and  N3_19 
REMARK       I    between atoms: N3_19  and  C11_21 
REMARK       I    between atoms: C11_21  and  N4_23 
REMARK    7  A    between atoms: N4_23  and  C12_25 
REMARK    8  A    between atoms: C12_25  and  C13_26 
REMARK    9  A    between atoms: C12_25  and  C14_28 
ROOT
HETATM    1  C7  UNL     1       6.521  61.380   2.380  1.00  0.00     0.046 C 
HETATM    2  C8  UNL     1       6.236  61.337   0.929  1.00  0.00     0.024 C 
HETATM    3  C9  UNL     1       6.148  62.775   2.912  1.00  0.00     0.033 C 
HETATM    4  C10 UNL     1       7.214  63.781   2.740  1.00  0.00     0.110 C 
HETATM    5  N2  UNL     1       8.224  63.469   1.795  1.00  0.00    -0.187 NA
HETATM    6  C15 UNL     1       8.778  62.172   1.843  1.00  0.00     0.188 C 
HETATM    7  C16 UNL     1       7.997  61.210   2.673  1.00  0.00     0.265 C 
HETATM    8  F1  UNL     1       8.402  59.895   2.470  1.00  0.00    -0.204 F 
HETATM    9  F2  UNL     1       8.156  61.535   4.031  1.00  0.00    -0.204 F 
ENDROOT
BRANCH   5  10
HETATM   10  S1  UNL     1       9.427  64.695   1.795  1.00  0.00     0.306 S 
HETATM   11  O3  UNL     1      10.134  64.717   0.467  1.00  0.00    -0.188 OA
HETATM   12  O4  UNL     1       8.716  66.024   2.010  1.00  0.00    -0.188 OA
BRANCH  10  13
HETATM   13  N3  UNL     1      10.512  64.399   3.093  1.00  0.00    -0.223 N 
HETATM   14  C11 UNL     1      11.655  65.204   3.248  1.00  0.00     0.331 C 
HETATM   15  O5  UNL     1      11.856  66.139   2.416  1.00  0.00    -0.246 OA
HETATM   16  N4  UNL     1      12.574  64.971   4.324  1.00  0.00    -0.331 N 
ATOM     17  H4  UNL     1      12.381  64.209   4.974  1.00  0.00     0.165 HD
ATOM     18  H3  UNL     1      10.329  63.641   3.750  1.00  0.00     0.184 HD
BRANCH  16  19
HETATM   19  C12 UNL     1      13.748  65.760   4.524  1.00  0.00     0.157 C 
BRANCH  19  20
HETATM   20  C13 UNL     1      14.988  65.014   4.119  1.00  0.00     0.257 C 
HETATM   21  O6  UNL     1      14.955  64.018   3.443  1.00  0.00    -0.305 OA
ENDBRANCH  19  20
BRANCH  19  22
HETATM   22  C14 UNL     1      13.866  66.091   6.001  1.00  0.00     0.117 C 
HETATM   23 BR1  UNL     1      14.761  64.662   6.962  1.00  0.00    -0.094 Br
ENDBRANCH  19  22
ENDBRANCH  16  19
ENDBRANCH  10  13
ENDBRANCH   5  10
BRANCH   1  24
HETATM   24  C6  UNL     1       5.784  60.373   3.227  1.00  0.00     0.196 C 
BRANCH  24  25
HETATM   25  O2  UNL     1       5.544  59.134   2.770  1.00  0.00    -0.303 OA
BRANCH  25  26
HETATM   26  C5  UNL     1       4.530  58.409   2.298  1.00  0.00     0.361 C 
HETATM   27  N1  UNL     1       3.267  58.934   1.861  1.00  0.00    -0.329 N 
ATOM     28  H1  UNL     1       3.120  59.942   1.912  1.00  0.00     0.165 HD
HETATM   29  O1  UNL     1       4.653  57.169   2.214  1.00  0.00    -0.238 OA
BRANCH  27  30
HETATM   30  C2  UNL     1       2.202  58.119   1.358  1.00  0.00     0.024 C 
HETATM   31  C1  UNL     1       2.492  57.580  -0.029  1.00  0.00     0.037 C 
HETATM   32  C3  UNL     1       0.968  59.009   1.193  1.00  0.00     0.037 C 
HETATM   33  C4  UNL     1       1.837  56.983   2.268  1.00  0.00     0.037 C 
ENDBRANCH  27  30
ENDBRANCH  25  26
ENDBRANCH  24  25
ENDBRANCH   1  24
TORSDOF 9
ENDMDL
