MODEL 1
REMARK VINA RESULT: -7.442259861      0.000      0.000
REMARK  12 active torsions:
REMARK  status: ('A' for Active; 'I' for Inactive)
REMARK    1  A    between atoms: N1_2  and  C2_5 
REMARK    2  A    between atoms: C2_5  and  C4_7 
REMARK       I    between atoms: C4_7  and  N2_9 
REMARK    3  A    between atoms: N2_9  and  C5_11 
REMARK    4  A    between atoms: C5_11  and  C6_12 
REMARK    5  A    between atoms: C5_11  and  C19_41 
REMARK    6  A    between atoms: C6_12  and  O2_13 
REMARK    7  A    between atoms: C6_12  and  N3_15 
REMARK    8  A    between atoms: C7_16  and  C8_17 
REMARK    9  A    between atoms: C10_21  and  C12_23 
REMARK       I    between atoms: C12_23  and  N4_25 
REMARK       I    between atoms: N4_25  and  C13_27 
REMARK       I    between atoms: C13_27  and  N5_29 
REMARK   10  A    between atoms: C17_33  and  C18_34 
REMARK   11  A    between atoms: C18_34  and  O5_35 
REMARK   12  A    between atoms: N6_37  and  O6_39 
ROOT
HETATM    1  N3  UNL     1       5.788  62.405   1.975  1.00  0.00    -0.336 N 
HETATM    2  C7  UNL     1       5.038  63.568   1.672  1.00  0.00     0.155 A 
HETATM    3  C9  UNL     1       6.219  64.485   2.030  1.00  0.00     0.071 A 
HETATM    4  C10 UNL     1       6.959  63.247   2.375  1.00  0.00     0.114 A 
HETATM    5  C11 UNL     1       7.281  63.011   3.851  1.00  0.00     0.049 C 
ENDROOT
BRANCH   4   6
HETATM    6  C12 UNL     1       8.155  62.980   1.557  1.00  0.00     0.254 C 
HETATM    7  O3  UNL     1       8.009  62.045   0.678  1.00  0.00    -0.270 OA
HETATM    8  N4  UNL     1       9.421  63.566   1.571  1.00  0.00    -0.277 N 
HETATM    9  C13 UNL     1       9.920  64.638   2.328  1.00  0.00     0.325 C 
ATOM     10  H4  UNL     1      10.092  63.149   0.927  1.00  0.00     0.173 HD
HETATM   11  O4  UNL     1       9.074  65.168   3.153  1.00  0.00    -0.247 OA
HETATM   12  N5  UNL     1      11.176  65.225   2.341  1.00  0.00    -0.322 N 
HETATM   13  C14 UNL     1      11.569  66.357   3.268  1.00  0.00     0.129 C 
HETATM   14  C17 UNL     1      12.390  65.042   1.638  1.00  0.00     0.165 C 
HETATM   15  C15 UNL     1      12.949  65.925   3.717  1.00  0.00     0.022 C 
HETATM   16  C16 UNL     1      13.334  64.743   2.805  1.00  0.00     0.035 C 
BRANCH  14  17
HETATM   17  C18 UNL     1      12.528  64.172   0.514  1.00  0.00     0.159 C 
HETATM   18  N6  UNL     1      12.919  64.478  -0.695  1.00  0.00    -0.249 N 
ATOM     19  H6  UNL     1      12.962  63.727  -1.385  1.00  0.00     0.196 HD
BRANCH  17  20
HETATM   20  O5  UNL     1      12.222  62.791   0.646  1.00  0.00    -0.347 OA
ATOM     21  H5  UNL     1      11.405  62.452   0.300  1.00  0.00     0.219 HD
ENDBRANCH  17  20
BRANCH  18  22
HETATM   22  O6  UNL     1      13.273  65.728  -1.100  1.00  0.00    -0.288 OA
ATOM     23  H6  UNL     1      13.825  65.917  -1.849  1.00  0.00     0.244 HD
ENDBRANCH  18  22
ENDBRANCH  14  17
ENDBRANCH   4   6
BRANCH   1  24
HETATM   24  C6  UNL     1       5.668  61.011   1.894  1.00  0.00     0.139 C 
BRANCH  24  25
HETATM   25  C5  UNL     1       5.590  59.932   2.826  1.00  0.00     0.162 C 
BRANCH  25  26
HETATM   26  N2  UNL     1       4.917  58.802   2.122  1.00  0.00    -0.347 N 
HETATM   27  C4  UNL     1       3.540  58.832   1.805  1.00  0.00     0.248 C 
HETATM   28  O1  UNL     1       2.874  59.838   2.130  1.00  0.00    -0.271 OA
ATOM     29  H2  UNL     1       5.467  57.983   1.861  1.00  0.00     0.163 HD
BRANCH  27  30
HETATM   30  C2  UNL     1       2.851  57.727   1.107  1.00  0.00     0.272 C 
HETATM   31  C3  UNL     1       1.411  57.568   1.521  1.00  0.00     0.050 C 
BRANCH  30  32
HETATM   32  N1  UNL     1       2.889  57.914  -0.329  1.00  0.00    -0.067 N 
HETATM   33  C1  UNL     1       1.835  57.184  -0.975  1.00  0.00     0.267 C 
ATOM     34  H12 UNL     1       3.803  57.673  -0.715  1.00  0.00     0.277 HD
ATOM     35  H11 UNL     1       2.870  58.902  -0.580  1.00  0.00     0.277 HD
ENDBRANCH  30  32
ENDBRANCH  27  30
ENDBRANCH  25  26
BRANCH  25  36
HETATM   36  C19 UNL     1       6.715  59.356   3.545  1.00  0.00     0.008 C 
HETATM   37  C20 UNL     1       6.586  57.982   4.095  1.00  0.00     0.012 C 
HETATM   38  C21 UNL     1       8.048  59.744   2.979  1.00  0.00     0.012 C 
ENDBRANCH  25  36
ENDBRANCH  24  25
BRANCH  24  39
HETATM   39  O2  UNL     1       5.609  60.584   0.655  1.00  0.00    -0.348 OA
ATOM     40  H2  UNL     1       5.517  61.303   0.042  1.00  0.00     0.219 HD
ENDBRANCH  24  39
ENDBRANCH   1  24
BRANCH   2  41
HETATM   41  C8  UNL     1       3.908  63.986   2.589  1.00  0.00     0.376 C 
HETATM   42  F1  UNL     1       4.282  65.063   3.369  1.00  0.00    -0.212 F 
HETATM   43  F2  UNL     1       3.499  63.005   3.462  1.00  0.00    -0.212 F 
ENDBRANCH   2  41
TORSDOF 12
ENDMDL
MODEL 2
REMARK VINA RESULT: -7.252718865      1.038      1.235
REMARK  12 active torsions:
REMARK  status: ('A' for Active; 'I' for Inactive)
REMARK    1  A    between atoms: N1_2  and  C2_5 
REMARK    2  A    between atoms: C2_5  and  C4_7 
REMARK       I    between atoms: C4_7  and  N2_9 
REMARK    3  A    between atoms: N2_9  and  C5_11 
REMARK    4  A    between atoms: C5_11  and  C6_12 
REMARK    5  A    between atoms: C5_11  and  C19_41 
REMARK    6  A    between atoms: C6_12  and  O2_13 
REMARK    7  A    between atoms: C6_12  and  N3_15 
REMARK    8  A    between atoms: C7_16  and  C8_17 
REMARK    9  A    between atoms: C10_21  and  C12_23 
REMARK       I    between atoms: C12_23  and  N4_25 
REMARK       I    between atoms: N4_25  and  C13_27 
REMARK       I    between atoms: C13_27  and  N5_29 
REMARK   10  A    between atoms: C17_33  and  C18_34 
REMARK   11  A    between atoms: C18_34  and  O5_35 
REMARK   12  A    between atoms: N6_37  and  O6_39 
ROOT
HETATM    1  N3  UNL     1       5.941  62.081   2.464  1.00  0.00    -0.336 N 
HETATM    2  C7  UNL     1       5.312  63.344   2.340  1.00  0.00     0.155 A 
HETATM    3  C9  UNL     1       6.447  64.043   3.107  1.00  0.00     0.071 A 
HETATM    4  C10 UNL     1       7.056  62.698   3.251  1.00  0.00     0.114 A 
HETATM    5  C11 UNL     1       7.091  62.090   4.654  1.00  0.00     0.049 C 
ENDROOT
BRANCH   4   6
HETATM    6  C12 UNL     1       8.368  62.528   2.603  1.00  0.00     0.254 C 
HETATM    7  O3  UNL     1       8.596  61.341   2.148  1.00  0.00    -0.270 OA
HETATM    8  N4  UNL     1       9.408  63.434   2.397  1.00  0.00    -0.277 N 
HETATM    9  C13 UNL     1       9.494  64.806   2.689  1.00  0.00     0.325 C 
ATOM     10  H4  UNL     1      10.242  63.037   1.964  1.00  0.00     0.173 HD
HETATM   11  O4  UNL     1       8.441  65.315   3.244  1.00  0.00    -0.247 OA
HETATM   12  N5  UNL     1      10.525  65.708   2.482  1.00  0.00    -0.322 N 
HETATM   13  C14 UNL     1      10.472  67.161   2.907  1.00  0.00     0.129 C 
HETATM   14  C17 UNL     1      11.817  65.661   1.907  1.00  0.00     0.165 C 
HETATM   15  C15 UNL     1      11.853  67.363   3.492  1.00  0.00     0.022 C 
HETATM   16  C16 UNL     1      12.660  66.108   3.104  1.00  0.00     0.035 C 
BRANCH  14  17
HETATM   17  C18 UNL     1      12.327  64.528   1.202  1.00  0.00     0.159 C 
HETATM   18  N6  UNL     1      12.918  64.507   0.037  1.00  0.00    -0.249 N 
ATOM     19  H6  UNL     1      13.223  63.603  -0.324  1.00  0.00     0.196 HD
BRANCH  17  20
HETATM   20  O5  UNL     1      12.214  63.232   1.771  1.00  0.00    -0.347 OA
ATOM     21  H5  UNL     1      12.242  63.124   2.714  1.00  0.00     0.219 HD
ENDBRANCH  17  20
BRANCH  18  22
HETATM   22  O6  UNL     1      13.155  65.607  -0.729  1.00  0.00    -0.288 OA
ATOM     23  H6  UNL     1      13.858  66.228  -0.578  1.00  0.00     0.244 HD
ENDBRANCH  18  22
ENDBRANCH  14  17
ENDBRANCH   4   6
BRANCH   1  24
HETATM   24  C6  UNL     1       5.776  60.763   2.019  1.00  0.00     0.139 C 
BRANCH  24  25
HETATM   25  C5  UNL     1       5.126  59.589   2.507  1.00  0.00     0.162 C 
BRANCH  25  26
HETATM   26  N2  UNL     1       4.431  58.965   1.344  1.00  0.00    -0.347 N 
HETATM   27  C4  UNL     1       3.039  59.105   1.141  1.00  0.00     0.248 C 
HETATM   28  O1  UNL     1       2.380  59.772   1.967  1.00  0.00    -0.271 OA
ATOM     29  H2  UNL     1       4.977  58.421   0.675  1.00  0.00     0.163 HD
BRANCH  27  30
HETATM   30  C2  UNL     1       2.329  58.499  -0.003  1.00  0.00     0.272 C 
HETATM   31  C3  UNL     1       2.834  58.979  -1.340  1.00  0.00     0.050 C 
BRANCH  30  32
HETATM   32  N1  UNL     1       2.432  57.053   0.025  1.00  0.00    -0.067 N 
HETATM   33  C1  UNL     1       1.217  56.457   0.504  1.00  0.00     0.267 C 
ATOM     34  H12 UNL     1       3.240  56.745   0.566  1.00  0.00     0.277 HD
ATOM     35  H11 UNL     1       2.701  56.678  -0.884  1.00  0.00     0.277 HD
ENDBRANCH  30  32
ENDBRANCH  27  30
ENDBRANCH  25  26
BRANCH  25  36
HETATM   36  C19 UNL     1       5.774  58.504   3.228  1.00  0.00     0.008 C 
HETATM   37  C20 UNL     1       5.737  57.137   2.650  1.00  0.00     0.012 C 
HETATM   38  C21 UNL     1       7.037  58.919   3.923  1.00  0.00     0.012 C 
ENDBRANCH  25  36
ENDBRANCH  24  25
BRANCH  24  39
HETATM   39  O2  UNL     1       6.358  60.547   0.864  1.00  0.00    -0.348 OA
ATOM     40  H2  UNL     1       6.800  59.707   0.847  1.00  0.00     0.219 HD
ENDBRANCH  24  39
ENDBRANCH   1  24
BRANCH   2  41
HETATM   41  C8  UNL     1       4.053  63.631   3.132  1.00  0.00     0.376 C 
HETATM   42  F1  UNL     1       4.199  64.775   3.890  1.00  0.00    -0.212 F 
HETATM   43  F2  UNL     1       3.702  62.632   4.010  1.00  0.00    -0.212 F 
ENDBRANCH   2  41
TORSDOF 12
ENDMDL
MODEL 3
REMARK VINA RESULT: -7.204779419      2.417      3.530
REMARK  12 active torsions:
REMARK  status: ('A' for Active; 'I' for Inactive)
REMARK    1  A    between atoms: N1_2  and  C2_5 
REMARK    2  A    between atoms: C2_5  and  C4_7 
REMARK       I    between atoms: C4_7  and  N2_9 
REMARK    3  A    between atoms: N2_9  and  C5_11 
REMARK    4  A    between atoms: C5_11  and  C6_12 
REMARK    5  A    between atoms: C5_11  and  C19_41 
REMARK    6  A    between atoms: C6_12  and  O2_13 
REMARK    7  A    between atoms: C6_12  and  N3_15 
REMARK    8  A    between atoms: C7_16  and  C8_17 
REMARK    9  A    between atoms: C10_21  and  C12_23 
REMARK       I    between atoms: C12_23  and  N4_25 
REMARK       I    between atoms: N4_25  and  C13_27 
REMARK       I    between atoms: C13_27  and  N5_29 
REMARK   10  A    between atoms: C17_33  and  C18_34 
REMARK   11  A    between atoms: C18_34  and  O5_35 
REMARK   12  A    between atoms: N6_37  and  O6_39 
ROOT
HETATM    1  N3  UNL     1       5.556  65.241   2.339  1.00  0.00    -0.336 N 
HETATM    2  C7  UNL     1       5.416  66.632   2.114  1.00  0.00     0.155 A 
HETATM    3  C9  UNL     1       6.834  66.912   2.638  1.00  0.00     0.071 A 
HETATM    4  C10 UNL     1       6.929  65.455   2.896  1.00  0.00     0.114 A 
HETATM    5  C11 UNL     1       6.966  65.002   4.356  1.00  0.00     0.049 C 
ENDROOT
BRANCH   4   6
HETATM    6  C12 UNL     1       7.968  64.745   2.129  1.00  0.00     0.254 C 
HETATM    7  O3  UNL     1       7.520  63.861   1.302  1.00  0.00    -0.270 OA
HETATM    8  N4  UNL     1       9.358  64.867   2.146  1.00  0.00    -0.277 N 
HETATM    9  C13 UNL     1      10.187  65.752   2.854  1.00  0.00     0.325 C 
ATOM     10  H4  UNL     1       9.851  64.206   1.546  1.00  0.00     0.173 HD
HETATM   11  O4  UNL     1       9.566  66.589   3.622  1.00  0.00    -0.247 OA
HETATM   12  N5  UNL     1      11.567  65.877   2.869  1.00  0.00    -0.322 N 
HETATM   13  C14 UNL     1      12.315  66.866   3.740  1.00  0.00     0.129 C 
HETATM   14  C17 UNL     1      12.652  65.249   2.212  1.00  0.00     0.165 C 
HETATM   15  C15 UNL     1      13.463  66.021   4.252  1.00  0.00     0.022 C 
HETATM   16  C16 UNL     1      13.429  64.723   3.421  1.00  0.00     0.035 C 
BRANCH  14  17
HETATM   17  C18 UNL     1      12.493  64.313   1.145  1.00  0.00     0.159 C 
HETATM   18  N6  UNL     1      12.805  64.472  -0.114  1.00  0.00    -0.249 N 
ATOM     19  H6  UNL     1      12.624  63.695  -0.750  1.00  0.00     0.196 HD
BRANCH  17  20
HETATM   20  O5  UNL     1      11.936  63.033   1.403  1.00  0.00    -0.347 OA
ATOM     21  H5  UNL     1      10.994  62.929   1.457  1.00  0.00     0.219 HD
ENDBRANCH  17  20
BRANCH  18  22
HETATM   22  O6  UNL     1      13.354  65.602  -0.638  1.00  0.00    -0.288 OA
ATOM     23  H6  UNL     1      14.189  65.970  -0.372  1.00  0.00     0.244 HD
ENDBRANCH  18  22
ENDBRANCH  14  17
ENDBRANCH   4   6
BRANCH   1  24
HETATM   24  C6  UNL     1       4.855  64.050   2.104  1.00  0.00     0.139 C 
BRANCH  24  25
HETATM   25  C5  UNL     1       4.304  63.008   2.911  1.00  0.00     0.162 C 
BRANCH  25  26
HETATM   26  N2  UNL     1       5.422  62.075   3.232  1.00  0.00    -0.347 N 
HETATM   27  C4  UNL     1       5.704  60.944   2.432  1.00  0.00     0.248 C 
HETATM   28  O1  UNL     1       4.990  60.728   1.430  1.00  0.00    -0.271 OA
ATOM     29  H2  UNL     1       6.000  62.257   4.052  1.00  0.00     0.163 HD
BRANCH  27  30
HETATM   30  C2  UNL     1       6.807  60.005   2.727  1.00  0.00     0.272 C 
HETATM   31  C3  UNL     1       8.172  60.627   2.583  1.00  0.00     0.050 C 
BRANCH  30  32
HETATM   32  N1  UNL     1       6.693  59.473   4.070  1.00  0.00    -0.067 N 
HETATM   33  C1  UNL     1       7.057  58.085   4.110  1.00  0.00     0.267 C 
ATOM     34  H12 UNL     1       5.762  59.628   4.458  1.00  0.00     0.277 HD
ATOM     35  H11 UNL     1       7.232  60.022   4.739  1.00  0.00     0.277 HD
ENDBRANCH  30  32
ENDBRANCH  27  30
ENDBRANCH  25  26
BRANCH  25  36
HETATM   36  C19 UNL     1       3.563  63.202   4.148  1.00  0.00     0.008 C 
HETATM   37  C20 UNL     1       4.312  63.543   5.385  1.00  0.00     0.012 C 
HETATM   38  C21 UNL     1       2.232  63.863   3.950  1.00  0.00     0.012 C 
ENDBRANCH  25  36
ENDBRANCH  24  25
BRANCH  24  39
HETATM   39  O2  UNL     1       4.647  63.833   0.828  1.00  0.00    -0.348 OA
ATOM     40  H2  UNL     1       4.823  64.608   0.309  1.00  0.00     0.219 HD
ENDBRANCH  24  39
ENDBRANCH   1  24
BRANCH   2  41
HETATM   41  C8  UNL     1       4.491  67.441   2.999  1.00  0.00     0.376 C 
HETATM   42  F1  UNL     1       5.178  68.462   3.625  1.00  0.00    -0.212 F 
HETATM   43  F2  UNL     1       3.892  66.713   4.000  1.00  0.00    -0.212 F 
ENDBRANCH   2  41
TORSDOF 12
ENDMDL
MODEL 4
REMARK VINA RESULT: -7.165468060      4.519      7.617
REMARK  12 active torsions:
REMARK  status: ('A' for Active; 'I' for Inactive)
REMARK    1  A    between atoms: N1_2  and  C2_5 
REMARK    2  A    between atoms: C2_5  and  C4_7 
REMARK       I    between atoms: C4_7  and  N2_9 
REMARK    3  A    between atoms: N2_9  and  C5_11 
REMARK    4  A    between atoms: C5_11  and  C6_12 
REMARK    5  A    between atoms: C5_11  and  C19_41 
REMARK    6  A    between atoms: C6_12  and  O2_13 
REMARK    7  A    between atoms: C6_12  and  N3_15 
REMARK    8  A    between atoms: C7_16  and  C8_17 
REMARK    9  A    between atoms: C10_21  and  C12_23 
REMARK       I    between atoms: C12_23  and  N4_25 
REMARK       I    between atoms: N4_25  and  C13_27 
REMARK       I    between atoms: C13_27  and  N5_29 
REMARK   10  A    between atoms: C17_33  and  C18_34 
REMARK   11  A    between atoms: C18_34  and  O5_35 
REMARK   12  A    between atoms: N6_37  and  O6_39 
ROOT
HETATM    1  N3  UNL     1       5.535  65.948   4.966  1.00  0.00    -0.336 N 
HETATM    2  C7  UNL     1       5.430  64.682   5.594  1.00  0.00     0.155 A 
HETATM    3  C9  UNL     1       6.391  64.041   4.579  1.00  0.00     0.071 A 
HETATM    4  C10 UNL     1       6.445  65.372   3.925  1.00  0.00     0.114 A 
HETATM    5  C11 UNL     1       5.797  65.503   2.547  1.00  0.00     0.049 C 
ENDROOT
BRANCH   4   6
HETATM    6  C12 UNL     1       7.772  66.014   3.915  1.00  0.00     0.254 C 
HETATM    7  O3  UNL     1       7.843  67.117   4.583  1.00  0.00    -0.270 OA
HETATM    8  N4  UNL     1       8.966  65.633   3.303  1.00  0.00    -0.277 N 
HETATM    9  C13 UNL     1       9.284  64.482   2.563  1.00  0.00     0.325 C 
ATOM     10  H4  UNL     1       9.732  66.297   3.410  1.00  0.00     0.173 HD
HETATM   11  O4  UNL     1       8.313  63.638   2.417  1.00  0.00    -0.247 OA
HETATM   12  N5  UNL     1      10.470  64.099   1.957  1.00  0.00    -0.322 N 
HETATM   13  C14 UNL     1      10.631  62.832   1.144  1.00  0.00     0.129 C 
HETATM   14  C17 UNL     1      11.777  64.634   1.854  1.00  0.00     0.165 C 
HETATM   15  C15 UNL     1      11.439  63.324  -0.039  1.00  0.00     0.022 C 
HETATM   16  C16 UNL     1      11.901  64.747   0.333  1.00  0.00     0.035 C 
BRANCH  14  17
HETATM   17  C18 UNL     1      12.221  65.780   2.581  1.00  0.00     0.159 C 
HETATM   18  N6  UNL     1      13.158  65.840   3.490  1.00  0.00    -0.249 N 
ATOM     19  H6  UNL     1      13.351  66.748   3.913  1.00  0.00     0.196 HD
BRANCH  17  20
HETATM   20  O5  UNL     1      11.620  67.044   2.344  1.00  0.00    -0.347 OA
ATOM     21  H5  UNL     1      12.140  67.836   2.414  1.00  0.00     0.219 HD
ENDBRANCH  17  20
BRANCH  18  22
HETATM   22  O6  UNL     1      13.896  64.776   3.911  1.00  0.00    -0.288 OA
ATOM     23  H6  UNL     1      14.496  64.285   3.363  1.00  0.00     0.244 HD
ENDBRANCH  18  22
ENDBRANCH  14  17
ENDBRANCH   4   6
BRANCH   1  24
HETATM   24  C6  UNL     1       5.119  67.272   5.164  1.00  0.00     0.139 C 
BRANCH  24  25
HETATM   25  C5  UNL     1       4.481  68.275   4.374  1.00  0.00     0.162 C 
BRANCH  25  26
HETATM   26  N2  UNL     1       5.541  68.900   3.533  1.00  0.00    -0.347 N 
HETATM   27  C4  UNL     1       6.213  70.079   3.930  1.00  0.00     0.248 C 
HETATM   28  O1  UNL     1       5.901  70.606   5.019  1.00  0.00    -0.271 OA
ATOM     29  H2  UNL     1       5.789  68.465   2.644  1.00  0.00     0.163 HD
BRANCH  27  30
HETATM   30  C2  UNL     1       7.268  70.717   3.115  1.00  0.00     0.272 C 
HETATM   31  C3  UNL     1       7.807  71.984   3.726  1.00  0.00     0.050 C 
BRANCH  30  32
HETATM   32  N1  UNL     1       8.379  69.812   2.900  1.00  0.00    -0.067 N 
HETATM   33  C1  UNL     1       9.499  70.161   3.728  1.00  0.00     0.267 C 
ATOM     34  H12 UNL     1       8.640  69.765   1.915  1.00  0.00     0.277 HD
ATOM     35  H11 UNL     1       8.102  68.839   3.034  1.00  0.00     0.277 HD
ENDBRANCH  30  32
ENDBRANCH  27  30
ENDBRANCH  25  26
BRANCH  25  36
HETATM   36  C19 UNL     1       3.337  68.060   3.502  1.00  0.00     0.008 C 
HETATM   37  C20 UNL     1       3.498  68.285   2.042  1.00  0.00     0.012 C 
HETATM   38  C21 UNL     1       2.469  66.913   3.925  1.00  0.00     0.012 C 
ENDBRANCH  25  36
ENDBRANCH  24  25
BRANCH  24  39
HETATM   39  O2  UNL     1       5.374  67.701   6.377  1.00  0.00    -0.348 OA
ATOM     40  H2  UNL     1       6.089  68.325   6.383  1.00  0.00     0.219 HD
ENDBRANCH  24  39
ENDBRANCH   1  24
BRANCH   2  41
HETATM   41  C8  UNL     1       4.139  63.899   5.478  1.00  0.00     0.376 C 
HETATM   42  F1  UNL     1       3.793  63.340   6.692  1.00  0.00    -0.212 F 
HETATM   43  F2  UNL     1       4.190  62.860   4.579  1.00  0.00    -0.212 F 
ENDBRANCH   2  41
TORSDOF 12
ENDMDL
MODEL 5
REMARK VINA RESULT: -7.142582194      2.769      8.589
REMARK  12 active torsions:
REMARK  status: ('A' for Active; 'I' for Inactive)
REMARK    1  A    between atoms: N1_2  and  C2_5 
REMARK    2  A    between atoms: C2_5  and  C4_7 
REMARK       I    between atoms: C4_7  and  N2_9 
REMARK    3  A    between atoms: N2_9  and  C5_11 
REMARK    4  A    between atoms: C5_11  and  C6_12 
REMARK    5  A    between atoms: C5_11  and  C19_41 
REMARK    6  A    between atoms: C6_12  and  O2_13 
REMARK    7  A    between atoms: C6_12  and  N3_15 
REMARK    8  A    between atoms: C7_16  and  C8_17 
REMARK    9  A    between atoms: C10_21  and  C12_23 
REMARK       I    between atoms: C12_23  and  N4_25 
REMARK       I    between atoms: N4_25  and  C13_27 
REMARK       I    between atoms: C13_27  and  N5_29 
REMARK   10  A    between atoms: C17_33  and  C18_34 
REMARK   11  A    between atoms: C18_34  and  O5_35 
REMARK   12  A    between atoms: N6_37  and  O6_39 
ROOT
HETATM    1  N3  UNL     1       8.114  66.937   3.722  1.00  0.00    -0.336 N 
HETATM    2  C7  UNL     1       6.822  67.127   4.270  1.00  0.00     0.155 A 
HETATM    3  C9  UNL     1       6.187  66.186   3.234  1.00  0.00     0.071 A 
HETATM    4  C10 UNL     1       7.549  66.042   2.663  1.00  0.00     0.114 A 
HETATM    5  C11 UNL     1       7.800  66.656   1.285  1.00  0.00     0.049 C 
ENDROOT
BRANCH   4   6
HETATM    6  C12 UNL     1       8.112  64.681   2.712  1.00  0.00     0.254 C 
HETATM    7  O3  UNL     1       9.398  64.633   2.816  1.00  0.00    -0.270 OA
HETATM    8  N4  UNL     1       7.489  63.434   2.665  1.00  0.00    -0.277 N 
HETATM    9  C13 UNL     1       6.126  63.096   2.622  1.00  0.00     0.325 C 
ATOM     10  H4  UNL     1       8.127  62.638   2.661  1.00  0.00     0.173 HD
HETATM   11  O4  UNL     1       5.312  64.102   2.620  1.00  0.00    -0.247 OA
HETATM   12  N5  UNL     1       5.505  61.858   2.578  1.00  0.00    -0.322 N 
HETATM   13  C14 UNL     1       4.005  61.669   2.484  1.00  0.00     0.129 C 
HETATM   14  C17 UNL     1       5.930  60.507   2.591  1.00  0.00     0.165 C 
HETATM   15  C15 UNL     1       3.897  60.559   1.459  1.00  0.00     0.022 C 
HETATM   16  C16 UNL     1       5.331  60.026   1.267  1.00  0.00     0.035 C 
BRANCH  14  17
HETATM   17  C18 UNL     1       7.281  60.106   2.822  1.00  0.00     0.159 C 
HETATM   18  N6  UNL     1       7.710  59.127   3.573  1.00  0.00    -0.249 N 
ATOM     19  H6  UNL     1       8.717  58.976   3.627  1.00  0.00     0.196 HD
BRANCH  17  20
HETATM   20  O5  UNL     1       8.344  60.808   2.194  1.00  0.00    -0.347 OA
ATOM     21  H5  UNL     1       8.228  61.716   1.941  1.00  0.00     0.219 HD
ENDBRANCH  17  20
BRANCH  18  22
HETATM   22  O6  UNL     1       6.907  58.293   4.290  1.00  0.00    -0.288 OA
ATOM     23  H6  UNL     1       5.982  58.157   4.120  1.00  0.00     0.244 HD
ENDBRANCH  18  22
ENDBRANCH  14  17
ENDBRANCH   4   6
BRANCH   1  24
HETATM   24  C6  UNL     1       9.446  67.280   3.994  1.00  0.00     0.139 C 
BRANCH  24  25
HETATM   25  C5  UNL     1      10.419  68.149   3.415  1.00  0.00     0.162 C 
BRANCH  25  26
HETATM   26  N2  UNL     1      11.173  67.344   2.411  1.00  0.00    -0.347 N 
HETATM   27  C4  UNL     1      12.371  66.670   2.741  1.00  0.00     0.248 C 
HETATM   28  O1  UNL     1      12.804  66.758   3.909  1.00  0.00    -0.271 OA
ATOM     29  H2  UNL     1      10.814  67.278   1.459  1.00  0.00     0.163 HD
BRANCH  27  30
HETATM   30  C2  UNL     1      13.135  65.865   1.765  1.00  0.00     0.272 C 
HETATM   31  C3  UNL     1      13.751  64.628   2.367  1.00  0.00     0.050 C 
BRANCH  30  32
HETATM   32  N1  UNL     1      12.297  65.457   0.656  1.00  0.00    -0.067 N 
HETATM   33  C1  UNL     1      12.233  64.026   0.554  1.00  0.00     0.267 C 
ATOM     34  H12 UNL     1      12.600  65.883  -0.220  1.00  0.00     0.277 HD
ATOM     35  H11 UNL     1      11.367  65.871   0.716  1.00  0.00     0.277 HD
ENDBRANCH  30  32
ENDBRANCH  27  30
ENDBRANCH  25  26
BRANCH  25  36
HETATM   36  C19 UNL     1      10.138  69.430   2.787  1.00  0.00     0.008 C 
HETATM   37  C20 UNL     1       9.172  69.478   1.660  1.00  0.00     0.012 C 
HETATM   38  C21 UNL     1      10.123  70.579   3.750  1.00  0.00     0.012 C 
ENDBRANCH  25  36
ENDBRANCH  24  25
BRANCH  24  39
HETATM   39  O2  UNL     1       9.921  66.652   5.042  1.00  0.00    -0.348 OA
ATOM     40  H2  UNL     1       9.279  66.063   5.418  1.00  0.00     0.219 HD
ENDBRANCH  24  39
ENDBRANCH   1  24
BRANCH   2  41
HETATM   41  C8  UNL     1       6.124  68.459   4.088  1.00  0.00     0.376 C 
HETATM   42  F1  UNL     1       5.540  68.541   2.839  1.00  0.00    -0.212 F 
HETATM   43  F2  UNL     1       6.955  69.549   4.194  1.00  0.00    -0.212 F 
ENDBRANCH   2  41
TORSDOF 12
ENDMDL
