MODEL 1
REMARK VINA RESULT: -8.244987798      0.000      0.000
REMARK  9 active torsions:
REMARK  status: ('A' for Active; 'I' for Inactive)
REMARK       I    between atoms: C2_2  and  N1_4 
REMARK    1  A    between atoms: N2_7  and  C5_8 
REMARK    2  A    between atoms: C5_8  and  C6_9 
REMARK    3  A    between atoms: C8_13  and  N4_14 
REMARK    4  A    between atoms: N4_14  and  C9_16 
REMARK    5  A    between atoms: C9_16  and  C10_17 
REMARK    6  A    between atoms: C10_17  and  N5_18 
REMARK    7  A    between atoms: N5_18  and  C11_20 
REMARK    8  A    between atoms: C12_23  and  C13_24 
REMARK    9  A    between atoms: C20_38  and  N10_39 
ROOT
HETATM    1  C11 UNL     1      10.573  67.323   4.035  1.00  0.00     0.131 A 
HETATM    2  N6  UNL     1      10.823  68.570   3.633  1.00  0.00    -0.338 N 
ATOM      3  H6  UNL     1      11.787  68.899   3.672  1.00  0.00     0.167 HD
HETATM    4  C12 UNL     1       9.878  69.429   3.177  1.00  0.00     0.099 A 
HETATM    5  C14 UNL     1       8.572  68.992   3.122  1.00  0.00     0.101 A 
HETATM    6  C15 UNL     1       7.523  69.845   2.652  1.00  0.00     0.104 C 
HETATM    7  N7  UNL     1       6.665  70.534   2.291  1.00  0.00    -0.191 NA
HETATM    8  C16 UNL     1       8.217  67.707   3.520  1.00  0.00     0.087 A 
HETATM    9  N8  UNL     1       7.044  67.029   3.571  1.00  0.00    -0.343 N 
ATOM     10  H8  UNL     1       6.125  67.381   3.299  1.00  0.00     0.167 HD
HETATM   11  C17 UNL     1       7.324  65.794   4.053  1.00  0.00     0.078 A 
HETATM   12  C18 UNL     1       6.314  64.747   4.257  1.00  0.00     0.089 C 
HETATM   13  N9  UNL     1       8.664  65.735   4.290  1.00  0.00    -0.341 N 
ATOM     14  H9  UNL     1       9.159  64.922   4.657  1.00  0.00     0.167 HD
HETATM   15  C19 UNL     1       9.233  66.896   3.971  1.00  0.00     0.106 A 
ENDROOT
BRANCH   4  16
HETATM   16  C13 UNL     1      10.255  70.802   2.747  1.00  0.00     0.404 C 
HETATM   17  F1  UNL     1      10.388  70.843   1.373  1.00  0.00    -0.207 F 
HETATM   18  F2  UNL     1      11.447  71.220   3.304  1.00  0.00    -0.207 F 
ENDBRANCH   4  16
BRANCH   1  19
HETATM   19  N5  UNL     1      11.481  66.548   4.452  1.00  0.00    -0.370 N 
ATOM     20  H5  UNL     1      11.919  66.756   5.350  1.00  0.00     0.161 HD
BRANCH  19  21
HETATM   21  C10 UNL     1      11.930  65.389   3.730  1.00  0.00     0.165 C 
BRANCH  21  22
HETATM   22  C9  UNL     1      12.373  65.846   2.362  1.00  0.00     0.082 C 
BRANCH  22  23
HETATM   23  N4  UNL     1      11.810  65.156   1.273  1.00  0.00    -0.351 N 
ATOM     24  H4  UNL     1      12.352  65.221   0.412  1.00  0.00     0.166 HD
BRANCH  23  25
HETATM   25  C8  UNL     1      10.757  64.473   1.170  1.00  0.00     0.149 A 
HETATM   26  N3  UNL     1       9.509  64.945   1.125  1.00  0.00    -0.347 N 
HETATM   27  C7  UNL     1       8.417  64.159   1.011  1.00  0.00     0.116 A 
ATOM     28  H3  UNL     1       9.373  65.954   1.178  1.00  0.00     0.167 HD
HETATM   29  C6  UNL     1       8.598  62.773   0.939  1.00  0.00     0.044 A 
HETATM   30  N11 UNL     1       9.836  62.272   0.983  1.00  0.00    -0.341 N 
HETATM   31  C20 UNL     1      10.902  63.081   1.095  1.00  0.00     0.144 A 
ATOM     32  H11 UNL     1       9.972  61.263   0.931  1.00  0.00     0.167 HD
BRANCH  29  33
HETATM   33  C5  UNL     1       7.400  61.907   0.806  1.00  0.00     0.175 C 
BRANCH  33  34
HETATM   34  N2  UNL     1       6.789  61.645   2.065  1.00  0.00    -0.404 N 
HETATM   35  C4  UNL     1       5.502  61.044   1.956  1.00  0.00     0.137 C 
HETATM   36  C3  UNL     1       5.665  59.557   1.633  1.00  0.00     0.145 C 
HETATM   37  N1  UNL     1       6.590  58.948   2.564  1.00  0.00    -0.349 N 
HETATM   38  C2  UNL     1       6.307  57.654   3.065  1.00  0.00     0.215 C 
HETATM   39  C22 UNL     1       7.801  59.616   3.005  1.00  0.00     0.145 C 
HETATM   40  C1  UNL     1       7.235  56.976   4.040  1.00  0.00     0.117 C 
HETATM   41  O1  UNL     1       5.276  57.065   2.698  1.00  0.00    -0.274 OA
HETATM   42  C21 UNL     1       7.628  61.107   3.084  1.00  0.00     0.137 C 
ENDBRANCH  33  34
ENDBRANCH  29  33
BRANCH  31  43
HETATM   43  N10 UNL     1      12.092  62.585   1.138  1.00  0.00    -0.382 N 
ATOM     44 2H10 UNL     1      12.834  62.978   0.557  1.00  0.00     0.157 HD
ATOM     45 1H10 UNL     1      12.268  61.797   1.761  1.00  0.00     0.157 HD
ENDBRANCH  31  43
ENDBRANCH  23  25
ENDBRANCH  22  23
ENDBRANCH  21  22
ENDBRANCH  19  21
ENDBRANCH   1  19
TORSDOF 9
ENDMDL
MODEL 2
REMARK VINA RESULT: -8.125210485      2.572      5.137
REMARK  9 active torsions:
REMARK  status: ('A' for Active; 'I' for Inactive)
REMARK       I    between atoms: C2_2  and  N1_4 
REMARK    1  A    between atoms: N2_7  and  C5_8 
REMARK    2  A    between atoms: C5_8  and  C6_9 
REMARK    3  A    between atoms: C8_13  and  N4_14 
REMARK    4  A    between atoms: N4_14  and  C9_16 
REMARK    5  A    between atoms: C9_16  and  C10_17 
REMARK    6  A    between atoms: C10_17  and  N5_18 
REMARK    7  A    between atoms: N5_18  and  C11_20 
REMARK    8  A    between atoms: C12_23  and  C13_24 
REMARK    9  A    between atoms: C20_38  and  N10_39 
ROOT
HETATM    1  C11 UNL     1      11.383  65.897   4.237  1.00  0.00     0.131 A 
HETATM    2  N6  UNL     1      12.301  65.735   5.191  1.00  0.00    -0.338 N 
ATOM      3  H6  UNL     1      12.106  66.127   6.112  1.00  0.00     0.167 HD
HETATM    4  C12 UNL     1      13.477  65.083   5.016  1.00  0.00     0.099 A 
HETATM    5  C14 UNL     1      13.748  64.550   3.775  1.00  0.00     0.101 A 
HETATM    6  C15 UNL     1      14.970  63.849   3.518  1.00  0.00     0.104 C 
HETATM    7  N7  UNL     1      15.963  63.298   3.296  1.00  0.00    -0.191 NA
HETATM    8  C16 UNL     1      12.850  64.669   2.719  1.00  0.00     0.087 A 
HETATM    9  N8  UNL     1      12.854  64.254   1.428  1.00  0.00    -0.343 N 
ATOM     10  H8  UNL     1      13.595  63.730   0.961  1.00  0.00     0.167 HD
HETATM   11  C17 UNL     1      11.688  64.669   0.877  1.00  0.00     0.078 A 
HETATM   12  C18 UNL     1      11.306  64.413  -0.519  1.00  0.00     0.089 C 
HETATM   13  N9  UNL     1      10.987  65.332   1.838  1.00  0.00    -0.341 N 
ATOM     14  H9  UNL     1      10.068  65.755   1.706  1.00  0.00     0.167 HD
HETATM   15  C19 UNL     1      11.679  65.345   2.976  1.00  0.00     0.106 A 
ENDROOT
BRANCH   4  16
HETATM   16  C13 UNL     1      14.438  64.950   6.144  1.00  0.00     0.404 C 
HETATM   17  F1  UNL     1      14.697  63.615   6.385  1.00  0.00    -0.207 F 
HETATM   18  F2  UNL     1      13.961  65.511   7.311  1.00  0.00    -0.207 F 
ENDBRANCH   4  16
BRANCH   1  19
HETATM   19  N5  UNL     1      10.294  66.509   4.438  1.00  0.00    -0.370 N 
ATOM     20  H5  UNL     1       9.528  65.998   4.877  1.00  0.00     0.161 HD
BRANCH  19  21
HETATM   21  C10 UNL     1      10.077  67.884   4.082  1.00  0.00     0.165 C 
BRANCH  21  22
HETATM   22  C9  UNL     1       8.590  68.135   4.111  1.00  0.00     0.082 C 
BRANCH  22  23
HETATM   23  N4  UNL     1       7.831  67.430   3.160  1.00  0.00    -0.351 N 
ATOM     24  H4  UNL     1       7.636  67.955   2.308  1.00  0.00     0.166 HD
BRANCH  23  25
HETATM   25  C8  UNL     1       7.347  66.267   3.172  1.00  0.00     0.149 A 
HETATM   26  N3  UNL     1       6.880  65.615   4.239  1.00  0.00    -0.347 N 
HETATM   27  C7  UNL     1       6.370  64.366   4.186  1.00  0.00     0.116 A 
ATOM     28  H3  UNL     1       6.908  66.086   5.143  1.00  0.00     0.167 HD
HETATM   29  C6  UNL     1       6.330  63.714   2.948  1.00  0.00     0.044 A 
HETATM   30  N11 UNL     1       6.792  64.342   1.863  1.00  0.00    -0.341 N 
HETATM   31  C20 UNL     1       7.292  65.586   1.948  1.00  0.00     0.144 A 
ATOM     32  H11 UNL     1       6.765  63.871   0.959  1.00  0.00     0.167 HD
BRANCH  29  33
HETATM   33  C5  UNL     1       5.763  62.344   2.886  1.00  0.00     0.175 C 
BRANCH  33  34
HETATM   34  N2  UNL     1       6.623  61.442   2.198  1.00  0.00    -0.404 N 
HETATM   35  C4  UNL     1       7.677  60.933   3.011  1.00  0.00     0.137 C 
HETATM   36  C3  UNL     1       7.125  59.838   3.927  1.00  0.00     0.145 C 
HETATM   37  N1  UNL     1       6.380  58.872   3.149  1.00  0.00    -0.349 N 
HETATM   38  C2  UNL     1       6.511  57.496   3.456  1.00  0.00     0.215 C 
HETATM   39  C22 UNL     1       5.502  59.263   2.061  1.00  0.00     0.145 C 
HETATM   40  C1  UNL     1       5.760  56.449   2.674  1.00  0.00     0.117 C 
HETATM   41  O1  UNL     1       7.257  57.143   4.386  1.00  0.00    -0.274 OA
HETATM   42  C21 UNL     1       5.998  60.487   1.344  1.00  0.00     0.137 C 
ENDBRANCH  33  34
ENDBRANCH  29  33
BRANCH  31  43
HETATM   43  N10 UNL     1       7.736  66.181   0.894  1.00  0.00    -0.382 N 
ATOM     44 2H10 UNL     1       8.740  66.284   0.746  1.00  0.00     0.157 HD
ATOM     45 1H10 UNL     1       7.061  66.544   0.220  1.00  0.00     0.157 HD
ENDBRANCH  31  43
ENDBRANCH  23  25
ENDBRANCH  22  23
ENDBRANCH  21  22
ENDBRANCH  19  21
ENDBRANCH   1  19
TORSDOF 9
ENDMDL
MODEL 3
REMARK VINA RESULT: -8.096230640      4.371      9.279
REMARK  9 active torsions:
REMARK  status: ('A' for Active; 'I' for Inactive)
REMARK       I    between atoms: C2_2  and  N1_4 
REMARK    1  A    between atoms: N2_7  and  C5_8 
REMARK    2  A    between atoms: C5_8  and  C6_9 
REMARK    3  A    between atoms: C8_13  and  N4_14 
REMARK    4  A    between atoms: N4_14  and  C9_16 
REMARK    5  A    between atoms: C9_16  and  C10_17 
REMARK    6  A    between atoms: C10_17  and  N5_18 
REMARK    7  A    between atoms: N5_18  and  C11_20 
REMARK    8  A    between atoms: C12_23  and  C13_24 
REMARK    9  A    between atoms: C20_38  and  N10_39 
ROOT
HETATM    1  C11 UNL     1       4.509  60.291   1.333  1.00  0.00     0.131 A 
HETATM    2  N6  UNL     1       5.384  60.167   2.332  1.00  0.00    -0.338 N 
ATOM      3  H6  UNL     1       5.819  61.016   2.693  1.00  0.00     0.167 HD
HETATM    4  C12 UNL     1       5.732  58.985   2.901  1.00  0.00     0.099 A 
HETATM    5  C14 UNL     1       5.148  57.834   2.420  1.00  0.00     0.101 A 
HETATM    6  C15 UNL     1       5.468  56.552   2.971  1.00  0.00     0.104 C 
HETATM    7  N7  UNL     1       5.735  55.510   3.397  1.00  0.00    -0.191 NA
HETATM    8  C16 UNL     1       4.224  57.866   1.379  1.00  0.00     0.087 A 
HETATM    9  N8  UNL     1       3.511  56.916   0.725  1.00  0.00    -0.343 N 
ATOM     10  H8  UNL     1       3.533  55.911   0.901  1.00  0.00     0.167 HD
HETATM   11  C17 UNL     1       2.765  57.557  -0.207  1.00  0.00     0.078 A 
HETATM   12  C18 UNL     1       1.845  56.875  -1.129  1.00  0.00     0.089 C 
HETATM   13  N9  UNL     1       3.032  58.888  -0.110  1.00  0.00    -0.341 N 
ATOM     14  H9  UNL     1       2.611  59.614  -0.690  1.00  0.00     0.167 HD
HETATM   15  C19 UNL     1       3.924  59.103   0.856  1.00  0.00     0.106 A 
ENDROOT
BRANCH   4  16
HETATM   16  C13 UNL     1       6.716  58.948   4.016  1.00  0.00     0.404 C 
HETATM   17  F1  UNL     1       6.826  60.202   4.586  1.00  0.00    -0.207 F 
HETATM   18  F2  UNL     1       7.972  58.558   3.596  1.00  0.00    -0.207 F 
ENDBRANCH   4  16
BRANCH   1  19
HETATM   19  N5  UNL     1       4.206  61.411   0.830  1.00  0.00    -0.370 N 
ATOM     20  H5  UNL     1       3.232  61.577   0.573  1.00  0.00     0.161 HD
BRANCH  19  21
HETATM   21  C10 UNL     1       5.157  62.463   0.601  1.00  0.00     0.165 C 
BRANCH  21  22
HETATM   22  C9  UNL     1       6.158  61.964  -0.411  1.00  0.00     0.082 C 
BRANCH  22  23
HETATM   23  N4  UNL     1       7.511  62.176  -0.092  1.00  0.00    -0.351 N 
ATOM     24  H4  UNL     1       8.149  61.497  -0.506  1.00  0.00     0.166 HD
BRANCH  23  25
HETATM   25  C8  UNL     1       8.077  63.054   0.613  1.00  0.00     0.149 A 
HETATM   26  N3  UNL     1       8.146  64.360   0.346  1.00  0.00    -0.347 N 
HETATM   27  C7  UNL     1       8.767  65.253   1.145  1.00  0.00     0.116 A 
ATOM     28  H3  UNL     1       7.706  64.701  -0.509  1.00  0.00     0.167 HD
HETATM   29  C6  UNL     1       9.374  64.790   2.318  1.00  0.00     0.044 A 
HETATM   30  N11 UNL     1       9.321  63.487   2.610  1.00  0.00    -0.341 N 
HETATM   31  C20 UNL     1       8.694  62.623   1.795  1.00  0.00     0.144 A 
ATOM     32  H11 UNL     1       9.762  63.145   3.464  1.00  0.00     0.167 HD
BRANCH  29  33
HETATM   33  C5  UNL     1      10.050  65.771   3.202  1.00  0.00     0.175 C 
BRANCH  33  34
HETATM   34  N2  UNL     1      11.313  66.174   2.683  1.00  0.00    -0.404 N 
HETATM   35  C4  UNL     1      12.059  66.991   3.580  1.00  0.00     0.137 C 
HETATM   36  C3  UNL     1      12.693  66.110   4.659  1.00  0.00     0.145 C 
HETATM   37  N1  UNL     1      13.399  65.007   4.043  1.00  0.00    -0.349 N 
HETATM   38  C2  UNL     1      14.650  64.611   4.576  1.00  0.00     0.215 C 
HETATM   39  C22 UNL     1      12.872  64.290   2.896  1.00  0.00     0.145 C 
HETATM   40  C1  UNL     1      15.428  63.471   3.971  1.00  0.00     0.117 C 
HETATM   41  O1  UNL     1      15.116  65.211   5.559  1.00  0.00    -0.274 OA
HETATM   42  C21 UNL     1      12.068  65.182   1.992  1.00  0.00     0.137 C 
ENDBRANCH  33  34
ENDBRANCH  29  33
BRANCH  31  43
HETATM   43  N10 UNL     1       8.651  61.368   2.088  1.00  0.00    -0.382 N 
ATOM     44 2H10 UNL     1       8.122  60.721   1.503  1.00  0.00     0.157 HD
ATOM     45 1H10 UNL     1       9.154  61.045   2.915  1.00  0.00     0.157 HD
ENDBRANCH  31  43
ENDBRANCH  23  25
ENDBRANCH  22  23
ENDBRANCH  21  22
ENDBRANCH  19  21
ENDBRANCH   1  19
TORSDOF 9
ENDMDL
MODEL 4
REMARK VINA RESULT: -8.090109355      3.662      5.898
REMARK  9 active torsions:
REMARK  status: ('A' for Active; 'I' for Inactive)
REMARK       I    between atoms: C2_2  and  N1_4 
REMARK    1  A    between atoms: N2_7  and  C5_8 
REMARK    2  A    between atoms: C5_8  and  C6_9 
REMARK    3  A    between atoms: C8_13  and  N4_14 
REMARK    4  A    between atoms: N4_14  and  C9_16 
REMARK    5  A    between atoms: C9_16  and  C10_17 
REMARK    6  A    between atoms: C10_17  and  N5_18 
REMARK    7  A    between atoms: N5_18  and  C11_20 
REMARK    8  A    between atoms: C12_23  and  C13_24 
REMARK    9  A    between atoms: C20_38  and  N10_39 
ROOT
HETATM    1  C11 UNL     1      12.641  65.177   1.724  1.00  0.00     0.131 A 
HETATM    2  N6  UNL     1      13.794  64.669   2.163  1.00  0.00    -0.338 N 
ATOM      3  H6  UNL     1      14.416  64.238   1.479  1.00  0.00     0.167 HD
HETATM    4  C12 UNL     1      14.193  64.689   3.459  1.00  0.00     0.099 A 
HETATM    5  C14 UNL     1      13.358  65.271   4.389  1.00  0.00     0.101 A 
HETATM    6  C15 UNL     1      13.715  65.326   5.774  1.00  0.00     0.104 C 
HETATM    7  N7  UNL     1      13.985  65.359   6.899  1.00  0.00    -0.191 NA
HETATM    8  C16 UNL     1      12.136  65.826   4.024  1.00  0.00     0.087 A 
HETATM    9  N8  UNL     1      11.143  66.447   4.707  1.00  0.00    -0.343 N 
ATOM     10  H8  UNL     1      11.119  66.631   5.711  1.00  0.00     0.167 HD
HETATM   11  C17 UNL     1      10.189  66.776   3.803  1.00  0.00     0.078 A 
HETATM   12  C18 UNL     1       8.940  67.471   4.148  1.00  0.00     0.089 C 
HETATM   13  N9  UNL     1      10.612  66.352   2.580  1.00  0.00    -0.341 N 
ATOM     14  H9  UNL     1      10.093  66.466   1.709  1.00  0.00     0.167 HD
HETATM   15  C19 UNL     1      11.803  65.766   2.690  1.00  0.00     0.106 A 
ENDROOT
BRANCH   4  16
HETATM   16  C13 UNL     1      15.501  64.099   3.852  1.00  0.00     0.404 C 
HETATM   17  F1  UNL     1      15.299  63.064   4.744  1.00  0.00    -0.207 F 
HETATM   18  F2  UNL     1      16.336  65.021   4.450  1.00  0.00    -0.207 F 
ENDBRANCH   4  16
BRANCH   1  19
HETATM   19  N5  UNL     1      12.304  65.144   0.506  1.00  0.00    -0.370 N 
ATOM     20  H5  UNL     1      11.912  65.990   0.090  1.00  0.00     0.161 HD
BRANCH  19  21
HETATM   21  C10 UNL     1      12.442  63.980  -0.326  1.00  0.00     0.165 C 
BRANCH  21  22
HETATM   22  C9  UNL     1      11.624  62.875   0.294  1.00  0.00     0.082 C 
BRANCH  22  23
HETATM   23  N4  UNL     1      10.243  62.909   0.024  1.00  0.00    -0.351 N 
ATOM     24  H4  UNL     1      10.010  62.856  -0.967  1.00  0.00     0.166 HD
BRANCH  23  25
HETATM   25  C8  UNL     1       9.244  62.993   0.786  1.00  0.00     0.149 A 
HETATM   26  N3  UNL     1       8.853  62.083   1.682  1.00  0.00    -0.347 N 
HETATM   27  C7  UNL     1       7.770  62.233   2.473  1.00  0.00     0.116 A 
ATOM     28  H3  UNL     1       9.402  61.229   1.773  1.00  0.00     0.167 HD
HETATM   29  C6  UNL     1       7.012  63.403   2.352  1.00  0.00     0.044 A 
HETATM   30  N11 UNL     1       7.379  64.331   1.463  1.00  0.00    -0.341 N 
HETATM   31  C20 UNL     1       8.463  64.152   0.690  1.00  0.00     0.144 A 
ATOM     32  H11 UNL     1       6.830  65.185   1.371  1.00  0.00     0.167 HD
BRANCH  29  33
HETATM   33  C5  UNL     1       5.825  63.574   3.226  1.00  0.00     0.175 C 
BRANCH  33  34
HETATM   34  N2  UNL     1       6.189  63.735   4.593  1.00  0.00    -0.404 N 
HETATM   35  C4  UNL     1       6.523  65.077   4.936  1.00  0.00     0.137 C 
HETATM   36  C3  UNL     1       5.237  65.893   5.097  1.00  0.00     0.145 C 
HETATM   37  N1  UNL     1       4.323  65.204   5.981  1.00  0.00    -0.349 N 
HETATM   38  C2  UNL     1       3.583  65.957   6.925  1.00  0.00     0.215 C 
HETATM   39  C22 UNL     1       4.135  63.765   5.938  1.00  0.00     0.145 C 
HETATM   40  C1  UNL     1       2.620  65.289   7.872  1.00  0.00     0.117 C 
HETATM   41  O1  UNL     1       3.729  67.191   6.976  1.00  0.00    -0.274 OA
HETATM   42  C21 UNL     1       5.395  63.041   5.552  1.00  0.00     0.137 C 
ENDBRANCH  33  34
ENDBRANCH  29  33
BRANCH  31  43
HETATM   43  N10 UNL     1       8.807  65.055  -0.164  1.00  0.00    -0.382 N 
ATOM     44 2H10 UNL     1       8.322  65.127  -1.059  1.00  0.00     0.157 HD
ATOM     45 1H10 UNL     1       9.571  65.687   0.077  1.00  0.00     0.157 HD
ENDBRANCH  31  43
ENDBRANCH  23  25
ENDBRANCH  22  23
ENDBRANCH  21  22
ENDBRANCH  19  21
ENDBRANCH   1  19
TORSDOF 9
ENDMDL
MODEL 5
REMARK VINA RESULT: -8.001738022      3.971      6.019
REMARK  9 active torsions:
REMARK  status: ('A' for Active; 'I' for Inactive)
REMARK       I    between atoms: C2_2  and  N1_4 
REMARK    1  A    between atoms: N2_7  and  C5_8 
REMARK    2  A    between atoms: C5_8  and  C6_9 
REMARK    3  A    between atoms: C8_13  and  N4_14 
REMARK    4  A    between atoms: N4_14  and  C9_16 
REMARK    5  A    between atoms: C9_16  and  C10_17 
REMARK    6  A    between atoms: C10_17  and  N5_18 
REMARK    7  A    between atoms: N5_18  and  C11_20 
REMARK    8  A    between atoms: C12_23  and  C13_24 
REMARK    9  A    between atoms: C20_38  and  N10_39 
ROOT
HETATM    1  C11 UNL     1      12.782  65.143   1.740  1.00  0.00     0.131 A 
HETATM    2  N6  UNL     1      13.930  64.658   2.214  1.00  0.00    -0.338 N 
ATOM      3  H6  UNL     1      14.586  64.247   1.550  1.00  0.00     0.167 HD
HETATM    4  C12 UNL     1      14.284  64.677   3.524  1.00  0.00     0.099 A 
HETATM    5  C14 UNL     1      13.405  65.231   4.428  1.00  0.00     0.101 A 
HETATM    6  C15 UNL     1      13.712  65.284   5.826  1.00  0.00     0.104 C 
HETATM    7  N7  UNL     1      13.943  65.314   6.959  1.00  0.00    -0.191 NA
HETATM    8  C16 UNL     1      12.184  65.762   4.025  1.00  0.00     0.087 A 
HETATM    9  N8  UNL     1      11.153  66.354   4.679  1.00  0.00    -0.343 N 
ATOM     10  H8  UNL     1      11.091  66.529   5.682  1.00  0.00     0.167 HD
HETATM   11  C17 UNL     1      10.224  66.669   3.745  1.00  0.00     0.078 A 
HETATM   12  C18 UNL     1       8.948  67.332   4.050  1.00  0.00     0.089 C 
HETATM   13  N9  UNL     1      10.698  66.264   2.534  1.00  0.00    -0.341 N 
ATOM     14  H9  UNL     1      10.208  66.374   1.646  1.00  0.00     0.167 HD
HETATM   15  C19 UNL     1      11.898  65.705   2.680  1.00  0.00     0.106 A 
ENDROOT
BRANCH   4  16
HETATM   16  C13 UNL     1      15.591  64.114   3.958  1.00  0.00     0.404 C 
HETATM   17  F1  UNL     1      15.382  63.038   4.799  1.00  0.00    -0.207 F 
HETATM   18  F2  UNL     1      16.365  65.037   4.630  1.00  0.00    -0.207 F 
ENDBRANCH   4  16
BRANCH   1  19
HETATM   19  N5  UNL     1      12.488  65.112   0.510  1.00  0.00    -0.370 N 
ATOM     20  H5  UNL     1      12.515  65.987  -0.015  1.00  0.00     0.161 HD
BRANCH  19  21
HETATM   21  C10 UNL     1      12.117  63.913  -0.189  1.00  0.00     0.165 C 
BRANCH  21  22
HETATM   22  C9  UNL     1      10.635  63.983  -0.465  1.00  0.00     0.082 C 
BRANCH  22  23
HETATM   23  N4  UNL     1       9.817  63.212   0.380  1.00  0.00    -0.351 N 
ATOM     24  H4  UNL     1      10.105  62.237   0.465  1.00  0.00     0.166 HD
BRANCH  23  25
HETATM   25  C8  UNL     1       8.792  63.507   1.050  1.00  0.00     0.149 A 
HETATM   26  N3  UNL     1       7.646  63.996   0.570  1.00  0.00    -0.347 N 
HETATM   27  C7  UNL     1       6.580  64.292   1.342  1.00  0.00     0.116 A 
ATOM     28  H3  UNL     1       7.573  64.154  -0.435  1.00  0.00     0.167 HD
HETATM   29  C6  UNL     1       6.675  64.078   2.722  1.00  0.00     0.044 A 
HETATM   30  N11 UNL     1       7.810  63.590   3.231  1.00  0.00    -0.341 N 
HETATM   31  C20 UNL     1       8.855  63.305   2.435  1.00  0.00     0.144 A 
ATOM     32  H11 UNL     1       7.885  63.433   4.236  1.00  0.00     0.167 HD
BRANCH  29  33
HETATM   33  C5  UNL     1       5.501  64.395   3.572  1.00  0.00     0.175 C 
BRANCH  33  34
HETATM   34  N2  UNL     1       5.831  64.401   4.957  1.00  0.00    -0.404 N 
HETATM   35  C4  UNL     1       5.905  65.709   5.516  1.00  0.00     0.137 C 
HETATM   36  C3  UNL     1       4.489  66.233   5.768  1.00  0.00     0.145 C 
HETATM   37  N1  UNL     1       3.724  65.252   6.507  1.00  0.00    -0.349 N 
HETATM   38  C2  UNL     1       2.858  65.693   7.537  1.00  0.00     0.215 C 
HETATM   39  C22 UNL     1       3.813  63.829   6.232  1.00  0.00     0.145 C 
HETATM   40  C1  UNL     1       2.041  64.712   8.339  1.00  0.00     0.117 C 
HETATM   41  O1  UNL     1       2.767  66.907   7.785  1.00  0.00    -0.274 OA
HETATM   42  C21 UNL     1       5.186  63.426   5.772  1.00  0.00     0.137 C 
ENDBRANCH  33  34
ENDBRANCH  29  33
BRANCH  31  43
HETATM   43  N10 UNL     1       9.945  62.835   2.939  1.00  0.00    -0.382 N 
ATOM     44 2H10 UNL     1      10.044  61.834   3.107  1.00  0.00     0.157 HD
ATOM     45 1H10 UNL     1      10.697  63.488   3.163  1.00  0.00     0.157 HD
ENDBRANCH  31  43
ENDBRANCH  23  25
ENDBRANCH  22  23
ENDBRANCH  21  22
ENDBRANCH  19  21
ENDBRANCH   1  19
TORSDOF 9
ENDMDL
