MODEL 1
REMARK VINA RESULT: -8.242411348      0.000      0.000
REMARK  9 active torsions:
REMARK  status: ('A' for Active; 'I' for Inactive)
REMARK    1  A    between atoms: S1_2  and  N1_5 
REMARK    2  A    between atoms: C4_8  and  C5_9 
REMARK    3  A    between atoms: C5_9  and  O3_10 
REMARK    4  A    between atoms: C5_9  and  N2_12 
REMARK    5  A    between atoms: C5_9  and  C8_18 
REMARK    6  A    between atoms: N2_12  and  C6_14 
REMARK    7  A    between atoms: C6_14  and  C7_15 
REMARK    8  A    between atoms: C8_18  and  O6_19 
REMARK    9  A    between atoms: C8_18  and  N3_21 
ROOT
HETATM    1  C5  UNL     1       8.250  62.893   1.453  1.00  0.00     0.198 C 
ENDROOT
BRANCH   1   2
HETATM    2  C4  UNL     1       9.612  63.212   1.991  1.00  0.00     0.056 C 
HETATM    3  C3  UNL     1      10.797  62.664   1.312  1.00  0.00     0.031 C 
HETATM    4  C2  UNL     1      12.103  63.225   1.848  1.00  0.00     0.141 C 
HETATM    5  N1  UNL     1      12.158  64.636   1.813  1.00  0.00    -0.291 N 
HETATM    6  C21 UNL     1      10.965  65.367   1.953  1.00  0.00     0.076 C 
HETATM    7  C20 UNL     1       9.792  64.618   2.480  1.00  0.00     0.055 C 
BRANCH   5   8
HETATM    8  S1  UNL     1      13.522  65.195   2.676  1.00  0.00     0.228 S 
HETATM    9  C1  UNL     1      14.287  63.995   3.701  1.00  0.00     0.186 C 
HETATM   10  O1  UNL     1      13.174  66.375   3.545  1.00  0.00    -0.206 OA
HETATM   11  O2  UNL     1      14.576  65.681   1.689  1.00  0.00    -0.206 OA
ENDBRANCH   5   8
ENDBRANCH   1   2
BRANCH   1  12
HETATM   12  O3  UNL     1       7.619  64.215   1.661  1.00  0.00    -0.364 OA
ATOM     13  H3  UNL     1       7.735  64.564   0.785  1.00  0.00     0.213 HD
ENDBRANCH   1  12
BRANCH   1  14
HETATM   14  N2  UNL     1       8.017  62.659   0.109  1.00  0.00    -0.375 N 
ATOM     15  H2  UNL     1       8.056  61.711  -0.265  1.00  0.00     0.157 HD
BRANCH  14  16
HETATM   16  C6  UNL     1       7.718  63.776  -0.757  1.00  0.00     0.230 C 
BRANCH  16  17
HETATM   17  C7  UNL     1       8.924  64.063  -1.589  1.00  0.00     0.191 C 
HETATM   18  O4  UNL     1       9.647  65.033  -1.278  1.00  0.00    -0.647 OA
HETATM   19  O5  UNL     1       9.280  63.304  -2.689  1.00  0.00    -0.647 OA
ENDBRANCH  16  17
ENDBRANCH  14  16
ENDBRANCH   1  14
BRANCH   1  20
HETATM   20  C8  UNL     1       7.489  62.078   2.422  1.00  0.00     0.171 C 
BRANCH  20  21
HETATM   21  O6  UNL     1       7.990  62.099   3.623  1.00  0.00    -0.346 OA
ATOM     22  H6  UNL     1       8.360  62.941   3.864  1.00  0.00     0.219 HD
ENDBRANCH  20  21
BRANCH  20  23
HETATM   23  N3  UNL     1       6.338  61.297   2.295  1.00  0.00    -0.351 N 
HETATM   24  C9  UNL     1       5.026  61.829   2.337  1.00  0.00     0.204 C 
HETATM   25  C10 UNL     1       4.082  61.213   1.328  1.00  0.00     0.259 C 
HETATM   26  F1  UNL     1       3.727  62.179   0.373  1.00  0.00    -0.205 F 
HETATM   27  F2  UNL     1       2.927  60.869   1.947  1.00  0.00    -0.205 F 
HETATM   28  C11 UNL     1       4.756  60.134   0.551  1.00  0.00     0.087 C 
HETATM   29  C12 UNL     1       5.486  59.138   1.437  1.00  0.00     0.014 C 
HETATM   30  C13 UNL     1       4.496  58.416   2.288  1.00  0.00     0.007 C 
HETATM   31  C19 UNL     1       6.574  59.849   2.131  1.00  0.00     0.090 C 
HETATM   32  C14 UNL     1       4.812  57.048   2.718  1.00  0.00     0.000 C 
HETATM   33  C15 UNL     1       6.196  56.553   2.572  1.00  0.00     0.000 C 
HETATM   34  C16 UNL     1       7.111  56.924   3.745  1.00  0.00     0.000 C 
HETATM   35  C17 UNL     1       7.887  58.181   3.415  1.00  0.00     0.002 C 
HETATM   36  C18 UNL     1       6.895  59.325   3.504  1.00  0.00     0.026 C 
ENDBRANCH  20  23
ENDBRANCH   1  20
TORSDOF 9
ENDMDL
MODEL 2
REMARK VINA RESULT: -8.227228412      3.272      5.118
REMARK  9 active torsions:
REMARK  status: ('A' for Active; 'I' for Inactive)
REMARK    1  A    between atoms: S1_2  and  N1_5 
REMARK    2  A    between atoms: C4_8  and  C5_9 
REMARK    3  A    between atoms: C5_9  and  O3_10 
REMARK    4  A    between atoms: C5_9  and  N2_12 
REMARK    5  A    between atoms: C5_9  and  C8_18 
REMARK    6  A    between atoms: N2_12  and  C6_14 
REMARK    7  A    between atoms: C6_14  and  C7_15 
REMARK    8  A    between atoms: C8_18  and  O6_19 
REMARK    9  A    between atoms: C8_18  and  N3_21 
ROOT
HETATM    1  C5  UNL     1       9.710  66.761   3.399  1.00  0.00     0.198 C 
ENDROOT
BRANCH   1   2
HETATM    2  C4  UNL     1      10.946  65.913   3.339  1.00  0.00     0.056 C 
HETATM    3  C3  UNL     1      11.818  66.000   2.158  1.00  0.00     0.031 C 
HETATM    4  C2  UNL     1      13.121  65.237   2.322  1.00  0.00     0.141 C 
HETATM    5  N1  UNL     1      13.850  65.622   3.469  1.00  0.00    -0.291 N 
HETATM    6  C21 UNL     1      13.150  66.074   4.600  1.00  0.00     0.076 C 
HETATM    7  C20 UNL     1      11.692  65.780   4.633  1.00  0.00     0.055 C 
BRANCH   5   8
HETATM    8  S1  UNL     1      15.147  64.541   3.734  1.00  0.00     0.228 S 
HETATM    9  C1  UNL     1      15.592  64.324   5.417  1.00  0.00     0.186 C 
HETATM   10  O1  UNL     1      16.384  64.979   2.994  1.00  0.00    -0.206 OA
HETATM   11  O2  UNL     1      14.778  63.169   3.185  1.00  0.00    -0.206 OA
ENDBRANCH   5   8
ENDBRANCH   1   2
BRANCH   1  12
HETATM   12  O3  UNL     1       9.442  66.650   4.850  1.00  0.00    -0.364 OA
ATOM     13  H3  UNL     1       9.440  67.576   5.062  1.00  0.00     0.213 HD
ENDBRANCH   1  12
BRANCH   1  14
HETATM   14  N2  UNL     1       9.739  68.131   3.205  1.00  0.00    -0.375 N 
ATOM     15  H2  UNL     1       9.740  68.519   2.262  1.00  0.00     0.157 HD
BRANCH  14  16
HETATM   16  C6  UNL     1       9.767  69.004   4.355  1.00  0.00     0.230 C 
BRANCH  16  17
HETATM   17  C7  UNL     1       8.468  69.736   4.423  1.00  0.00     0.191 C 
HETATM   18  O4  UNL     1       7.451  69.115   4.798  1.00  0.00    -0.647 OA
HETATM   19  O5  UNL     1       8.335  71.072   4.090  1.00  0.00    -0.647 OA
ENDBRANCH  16  17
ENDBRANCH  14  16
ENDBRANCH   1  14
BRANCH   1  20
HETATM   20  C8  UNL     1       8.552  66.025   2.855  1.00  0.00     0.171 C 
BRANCH  20  21
HETATM   21  O6  UNL     1       7.406  66.540   3.194  1.00  0.00    -0.346 OA
ATOM     22  H6  UNL     1       6.725  66.409   2.544  1.00  0.00     0.219 HD
ENDBRANCH  20  21
BRANCH  20  23
HETATM   23  N3  UNL     1       8.454  64.890   2.046  1.00  0.00    -0.351 N 
HETATM   24  C9  UNL     1       8.378  64.945   0.632  1.00  0.00     0.204 C 
HETATM   25  C10 UNL     1       9.192  63.878  -0.067  1.00  0.00     0.259 C 
HETATM   26  F1  UNL     1      10.249  64.484  -0.766  1.00  0.00    -0.205 F 
HETATM   27  F2  UNL     1       8.427  63.277  -1.010  1.00  0.00    -0.205 F 
HETATM   28  C11 UNL     1       9.850  62.973   0.917  1.00  0.00     0.087 C 
HETATM   29  C12 UNL     1       8.890  62.456   1.976  1.00  0.00     0.014 C 
HETATM   30  C13 UNL     1       7.854  61.602   1.327  1.00  0.00     0.007 C 
HETATM   31  C19 UNL     1       8.413  63.604   2.767  1.00  0.00     0.090 C 
HETATM   32  C14 UNL     1       7.248  60.519   2.114  1.00  0.00     0.000 C 
HETATM   33  C15 UNL     1       7.439  60.506   3.578  1.00  0.00     0.000 C 
HETATM   34  C16 UNL     1       6.423  61.365   4.341  1.00  0.00     0.000 C 
HETATM   35  C17 UNL     1       7.011  62.731   4.619  1.00  0.00     0.002 C 
HETATM   36  C18 UNL     1       7.011  63.468   3.293  1.00  0.00     0.026 C 
ENDBRANCH  20  23
ENDBRANCH   1  20
TORSDOF 9
ENDMDL
MODEL 3
REMARK VINA RESULT: -8.136383390      3.278      4.902
REMARK  9 active torsions:
REMARK  status: ('A' for Active; 'I' for Inactive)
REMARK    1  A    between atoms: S1_2  and  N1_5 
REMARK    2  A    between atoms: C4_8  and  C5_9 
REMARK    3  A    between atoms: C5_9  and  O3_10 
REMARK    4  A    between atoms: C5_9  and  N2_12 
REMARK    5  A    between atoms: C5_9  and  C8_18 
REMARK    6  A    between atoms: N2_12  and  C6_14 
REMARK    7  A    between atoms: C6_14  and  C7_15 
REMARK    8  A    between atoms: C8_18  and  O6_19 
REMARK    9  A    between atoms: C8_18  and  N3_21 
ROOT
HETATM    1  C5  UNL     1       7.512  62.989   2.587  1.00  0.00     0.198 C 
ENDROOT
BRANCH   1   2
HETATM    2  C4  UNL     1       6.424  63.424   3.522  1.00  0.00     0.056 C 
HETATM    3  C3  UNL     1       6.329  62.801   4.851  1.00  0.00     0.031 C 
HETATM    4  C2  UNL     1       5.308  63.473   5.753  1.00  0.00     0.141 C 
HETATM    5  N1  UNL     1       5.528  64.860   5.904  1.00  0.00    -0.291 N 
HETATM    6  C21 UNL     1       6.114  65.575   4.845  1.00  0.00     0.076 C 
HETATM    7  C20 UNL     1       6.133  64.895   3.522  1.00  0.00     0.055 C 
BRANCH   5   8
HETATM    8  S1  UNL     1       4.198  65.585   6.694  1.00  0.00     0.228 S 
HETATM    9  C1  UNL     1       2.631  65.191   6.012  1.00  0.00     0.186 C 
HETATM   10  O1  UNL     1       4.320  67.086   6.704  1.00  0.00    -0.206 OA
HETATM   11  O2  UNL     1       4.178  65.143   8.152  1.00  0.00    -0.206 OA
ENDBRANCH   5   8
ENDBRANCH   1   2
BRANCH   1  12
HETATM   12  O3  UNL     1       7.626  64.232   1.793  1.00  0.00    -0.364 OA
ATOM     13  H3  UNL     1       7.920  63.849   0.975  1.00  0.00     0.213 HD
ENDBRANCH   1  12
BRANCH   1  14
HETATM   14  N2  UNL     1       8.815  62.782   3.007  1.00  0.00    -0.375 N 
ATOM     15  H2  UNL     1       9.057  61.953   3.548  1.00  0.00     0.157 HD
BRANCH  14  16
HETATM   16  C6  UNL     1       9.826  63.757   2.668  1.00  0.00     0.230 C 
BRANCH  16  17
HETATM   17  C7  UNL     1      10.816  63.111   1.756  1.00  0.00     0.191 C 
HETATM   18  O4  UNL     1      12.033  63.227   2.016  1.00  0.00    -0.647 OA
HETATM   19  O5  UNL     1      10.451  62.389   0.635  1.00  0.00    -0.647 OA
ENDBRANCH  16  17
ENDBRANCH  14  16
ENDBRANCH   1  14
BRANCH   1  20
HETATM   20  C8  UNL     1       6.978  62.067   1.565  1.00  0.00     0.171 C 
BRANCH  20  21
HETATM   21  O6  UNL     1       7.613  62.126   0.431  1.00  0.00    -0.346 OA
ATOM     22  H6  UNL     1       7.365  61.440  -0.178  1.00  0.00     0.219 HD
ENDBRANCH  20  21
BRANCH  20  23
HETATM   23  N3  UNL     1       5.927  61.146   1.586  1.00  0.00    -0.351 N 
HETATM   24  C9  UNL     1       4.563  61.518   1.500  1.00  0.00     0.204 C 
HETATM   25  C10 UNL     1       3.732  60.604   0.627  1.00  0.00     0.259 C 
HETATM   26  F1  UNL     1       3.306  61.308  -0.510  1.00  0.00    -0.205 F 
HETATM   27  F2  UNL     1       2.601  60.259   1.288  1.00  0.00    -0.205 F 
HETATM   28  C11 UNL     1       4.551  59.477   0.097  1.00  0.00     0.087 C 
HETATM   29  C12 UNL     1       5.355  58.774   1.178  1.00  0.00     0.014 C 
HETATM   30  C13 UNL     1       4.423  58.127   2.146  1.00  0.00     0.007 C 
HETATM   31  C19 UNL     1       6.330  59.734   1.725  1.00  0.00     0.090 C 
HETATM   32  C14 UNL     1       4.875  56.921   2.851  1.00  0.00     0.000 C 
HETATM   33  C15 UNL     1       6.310  56.573   2.828  1.00  0.00     0.000 C 
HETATM   34  C16 UNL     1       7.134  57.279   3.912  1.00  0.00     0.000 C 
HETATM   35  C17 UNL     1       7.775  58.525   3.340  1.00  0.00     0.002 C 
HETATM   36  C18 UNL     1       6.658  59.539   3.180  1.00  0.00     0.026 C 
ENDBRANCH  20  23
ENDBRANCH   1  20
TORSDOF 9
ENDMDL
MODEL 4
REMARK VINA RESULT: -8.074166469      1.683      1.904
REMARK  9 active torsions:
REMARK  status: ('A' for Active; 'I' for Inactive)
REMARK    1  A    between atoms: S1_2  and  N1_5 
REMARK    2  A    between atoms: C4_8  and  C5_9 
REMARK    3  A    between atoms: C5_9  and  O3_10 
REMARK    4  A    between atoms: C5_9  and  N2_12 
REMARK    5  A    between atoms: C5_9  and  C8_18 
REMARK    6  A    between atoms: N2_12  and  C6_14 
REMARK    7  A    between atoms: C6_14  and  C7_15 
REMARK    8  A    between atoms: C8_18  and  O6_19 
REMARK    9  A    between atoms: C8_18  and  N3_21 
ROOT
HETATM    1  C5  UNL     1       7.201  62.702   0.696  1.00  0.00     0.198 C 
ENDROOT
BRANCH   1   2
HETATM    2  C4  UNL     1       8.465  63.220   1.314  1.00  0.00     0.056 C 
HETATM    3  C3  UNL     1       9.615  62.314   1.462  1.00  0.00     0.031 C 
HETATM    4  C2  UNL     1      10.877  63.024   1.921  1.00  0.00     0.141 C 
HETATM    5  N1  UNL     1      11.241  64.105   1.089  1.00  0.00    -0.291 N 
HETATM    6  C21 UNL     1      10.231  64.821   0.423  1.00  0.00     0.076 C 
HETATM    7  C20 UNL     1       8.843  64.617   0.918  1.00  0.00     0.055 C 
BRANCH   5   8
HETATM    8  S1  UNL     1      12.493  65.013   1.814  1.00  0.00     0.228 S 
HETATM    9  C1  UNL     1      13.178  64.297   3.262  1.00  0.00     0.186 C 
HETATM   10  O1  UNL     1      12.027  66.399   2.174  1.00  0.00    -0.206 OA
HETATM   11  O2  UNL     1      13.632  65.186   0.816  1.00  0.00    -0.206 OA
ENDBRANCH   5   8
ENDBRANCH   1   2
BRANCH   1  12
HETATM   12  O3  UNL     1       6.528  63.998   0.459  1.00  0.00    -0.364 OA
ATOM     13  H3  UNL     1       7.094  64.325  -0.230  1.00  0.00     0.213 HD
ENDBRANCH   1  12
BRANCH   1  14
HETATM   14  N2  UNL     1       7.173  62.118  -0.559  1.00  0.00    -0.375 N 
ATOM     15  H2  UNL     1       7.868  61.418  -0.819  1.00  0.00     0.157 HD
BRANCH  14  16
HETATM   16  C6  UNL     1       6.145  62.512  -1.495  1.00  0.00     0.230 C 
BRANCH  16  17
HETATM   17  C7  UNL     1       6.015  61.443  -2.529  1.00  0.00     0.191 C 
HETATM   18  O4  UNL     1       4.872  61.036  -2.828  1.00  0.00    -0.647 OA
HETATM   19  O5  UNL     1       7.102  60.880  -3.173  1.00  0.00    -0.647 OA
ENDBRANCH  16  17
ENDBRANCH  14  16
ENDBRANCH   1  14
BRANCH   1  20
HETATM   20  C8  UNL     1       6.319  62.126   1.730  1.00  0.00     0.171 C 
BRANCH  20  21
HETATM   21  O6  UNL     1       6.387  62.745   2.872  1.00  0.00    -0.346 OA
ATOM     22  H6  UNL     1       7.276  62.880   3.177  1.00  0.00     0.219 HD
ENDBRANCH  20  21
BRANCH  20  23
HETATM   23  N3  UNL     1       5.427  61.051   1.712  1.00  0.00    -0.351 N 
HETATM   24  C9  UNL     1       4.022  61.205   1.618  1.00  0.00     0.204 C 
HETATM   25  C10 UNL     1       3.353  60.196   0.710  1.00  0.00     0.259 C 
HETATM   26  F1  UNL     1       2.832  60.857  -0.414  1.00  0.00    -0.205 F 
HETATM   27  F2  UNL     1       2.285  59.659   1.347  1.00  0.00    -0.205 F 
HETATM   28  C11 UNL     1       4.345  59.228   0.161  1.00  0.00     0.087 C 
HETATM   29  C12 UNL     1       5.241  58.631   1.234  1.00  0.00     0.014 C 
HETATM   30  C13 UNL     1       4.413  57.818   2.171  1.00  0.00     0.007 C 
HETATM   31  C19 UNL     1       6.047  59.716   1.819  1.00  0.00     0.090 C 
HETATM   32  C14 UNL     1       5.044  56.678   2.851  1.00  0.00     0.000 C 
HETATM   33  C15 UNL     1       6.516  56.562   2.837  1.00  0.00     0.000 C 
HETATM   34  C16 UNL     1       7.208  57.358   3.950  1.00  0.00     0.000 C 
HETATM   35  C17 UNL     1       7.650  58.705   3.421  1.00  0.00     0.002 C 
HETATM   36  C18 UNL     1       6.388  59.534   3.273  1.00  0.00     0.026 C 
ENDBRANCH  20  23
ENDBRANCH   1  20
TORSDOF 9
ENDMDL
MODEL 5
REMARK VINA RESULT: -8.035234383      2.984      4.308
REMARK  9 active torsions:
REMARK  status: ('A' for Active; 'I' for Inactive)
REMARK    1  A    between atoms: S1_2  and  N1_5 
REMARK    2  A    between atoms: C4_8  and  C5_9 
REMARK    3  A    between atoms: C5_9  and  O3_10 
REMARK    4  A    between atoms: C5_9  and  N2_12 
REMARK    5  A    between atoms: C5_9  and  C8_18 
REMARK    6  A    between atoms: N2_12  and  C6_14 
REMARK    7  A    between atoms: C6_14  and  C7_15 
REMARK    8  A    between atoms: C8_18  and  O6_19 
REMARK    9  A    between atoms: C8_18  and  N3_21 
ROOT
HETATM    1  C5  UNL     1       8.840  66.483   2.878  1.00  0.00     0.198 C 
ENDROOT
BRANCH   1   2
HETATM    2  C4  UNL     1      10.129  65.732   3.026  1.00  0.00     0.056 C 
HETATM    3  C3  UNL     1      10.822  65.252   1.820  1.00  0.00     0.031 C 
HETATM    4  C2  UNL     1      12.201  64.685   2.112  1.00  0.00     0.141 C 
HETATM    5  N1  UNL     1      13.039  65.587   2.803  1.00  0.00    -0.291 N 
HETATM    6  C21 UNL     1      12.459  66.519   3.681  1.00  0.00     0.076 C 
HETATM    7  C20 UNL     1      11.052  66.253   4.087  1.00  0.00     0.055 C 
BRANCH   5   8
HETATM    8  S1  UNL     1      14.455  64.791   3.333  1.00  0.00     0.228 S 
HETATM    9  C1  UNL     1      14.863  65.058   5.018  1.00  0.00     0.186 C 
HETATM   10  O1  UNL     1      15.650  65.194   2.510  1.00  0.00    -0.206 OA
HETATM   11  O2  UNL     1      14.287  63.288   3.144  1.00  0.00    -0.206 OA
ENDBRANCH   5   8
ENDBRANCH   1   2
BRANCH   1  12
HETATM   12  O3  UNL     1       8.614  66.811   4.302  1.00  0.00    -0.364 OA
ATOM     13  H3  UNL     1       7.876  66.235   4.462  1.00  0.00     0.213 HD
ENDBRANCH   1  12
BRANCH   1  14
HETATM   14  N2  UNL     1       8.769  67.725   2.271  1.00  0.00    -0.375 N 
ATOM     15  H2  UNL     1       8.722  67.802   1.255  1.00  0.00     0.157 HD
BRANCH  14  16
HETATM   16  C6  UNL     1       8.761  68.911   3.096  1.00  0.00     0.230 C 
BRANCH  16  17
HETATM   17  C7  UNL     1       9.956  69.735   2.747  1.00  0.00     0.191 C 
HETATM   18  O4  UNL     1      10.889  69.814   3.574  1.00  0.00    -0.647 OA
HETATM   19  O5  UNL     1      10.080  70.417   1.550  1.00  0.00    -0.647 OA
ENDBRANCH  16  17
ENDBRANCH  14  16
ENDBRANCH   1  14
BRANCH   1  20
HETATM   20  C8  UNL     1       7.722  65.549   2.637  1.00  0.00     0.171 C 
BRANCH  20  21
HETATM   21  O6  UNL     1       7.223  65.636   1.438  1.00  0.00    -0.346 OA
ATOM     22  H6  UNL     1       6.388  66.088   1.408  1.00  0.00     0.219 HD
ENDBRANCH  20  21
BRANCH  20  23
HETATM   23  N3  UNL     1       7.105  64.591   3.447  1.00  0.00    -0.351 N 
HETATM   24  C9  UNL     1       6.599  64.873   4.739  1.00  0.00     0.204 C 
HETATM   25  C10 UNL     1       5.273  64.208   5.037  1.00  0.00     0.259 C 
HETATM   26  F1  UNL     1       4.278  65.190   5.161  1.00  0.00    -0.205 F 
HETATM   27  F2  UNL     1       5.339  63.600   6.246  1.00  0.00    -0.205 F 
HETATM   28  C11 UNL     1       4.833  63.354   3.898  1.00  0.00     0.087 C 
HETATM   29  C12 UNL     1       5.925  62.418   3.407  1.00  0.00     0.014 C 
HETATM   30  C13 UNL     1       6.263  61.445   4.486  1.00  0.00     0.007 C 
HETATM   31  C19 UNL     1       7.028  63.235   2.871  1.00  0.00     0.090 C 
HETATM   32  C14 UNL     1       6.759  60.118   4.099  1.00  0.00     0.000 C 
HETATM   33  C15 UNL     1       7.201  59.896   2.707  1.00  0.00     0.000 C 
HETATM   34  C16 UNL     1       8.659  60.300   2.452  1.00  0.00     0.000 C 
HETATM   35  C17 UNL     1       8.712  61.703   1.886  1.00  0.00     0.002 C 
HETATM   36  C18 UNL     1       8.396  62.635   3.040  1.00  0.00     0.026 C 
ENDBRANCH  20  23
ENDBRANCH   1  20
TORSDOF 9
ENDMDL
