MODEL 1
REMARK VINA RESULT: -7.573038637      0.000      0.000
REMARK  11 active torsions:
REMARK  status: ('A' for Active; 'I' for Inactive)
REMARK    1  A    between atoms: C2_2  and  C4_5 
REMARK    2  A    between atoms: C4_5  and  O1_6 
REMARK    3  A    between atoms: C4_5  and  N1_8 
REMARK    4  A    between atoms: N1_8  and  C5_9 
REMARK    5  A    between atoms: N1_8  and  C8_12 
REMARK    6  A    between atoms: C12_16  and  N2_17 
REMARK    7  A    between atoms: C14_19  and  O2_20 
REMARK    8  A    between atoms: C17_27  and  O4_28 
REMARK    9  A    between atoms: C19_31  and  C20_32 
REMARK   10  A    between atoms: C20_32  and  C21_33 
REMARK   11  A    between atoms: C21_33  and  N4_36 
REMARK       I    between atoms: N4_36  and  C22_38 
ROOT
HETATM    1  C8  UNL     1       8.872  62.986   1.852  1.00  0.00     0.004 C 
HETATM    2  C9  UNL     1      10.000  62.131   1.300  1.00  0.00     0.058 C 
HETATM    3  C10 UNL     1      11.152  62.851   0.719  1.00  0.00    -0.004 C 
HETATM    4  C11 UNL     1      12.136  63.323   1.776  1.00  0.00     0.036 C 
HETATM    5  C12 UNL     1      11.678  64.550   2.485  1.00  0.00     0.045 C 
HETATM    6  C16 UNL     1      11.248  65.694   1.642  1.00  0.00     0.070 C 
HETATM    7  C17 UNL     1      10.110  64.988   0.869  1.00  0.00     0.074 C 
HETATM    8  C18 UNL     1      10.792  64.091  -0.045  1.00  0.00     0.044 C 
HETATM    9  C19 UNL     1       9.267  64.356   2.010  1.00  0.00     0.039 C 
HETATM   10  C23 UNL     1      10.337  64.314   3.162  1.00  0.00     0.050 C 
ENDROOT
BRANCH   1  11
HETATM   11  N1  UNL     1       7.580  62.373   1.599  1.00  0.00    -0.330 N 
BRANCH  11  12
HETATM   12  C4  UNL     1       6.861  61.434   2.327  1.00  0.00     0.158 C 
BRANCH  12  13
HETATM   13  C2  UNL     1       7.050  60.061   2.788  1.00  0.00     0.160 C 
HETATM   14  C1  UNL     1       6.766  59.766   4.221  1.00  0.00     0.060 C 
HETATM   15  C3  UNL     1       6.019  59.142   2.042  1.00  0.00     0.060 C 
HETATM   16  F1  UNL     1       8.222  59.452   2.420  1.00  0.00    -0.235 F 
ENDBRANCH  12  13
BRANCH  12  17
HETATM   17  O1  UNL     1       5.693  61.864   2.736  1.00  0.00    -0.347 OA
ATOM     18  H1  UNL     1       5.789  62.242   3.602  1.00  0.00     0.219 HD
ENDBRANCH  12  17
ENDBRANCH  11  12
BRANCH  11  19
HETATM   19  C5  UNL     1       6.839  62.886   0.411  1.00  0.00     0.091 A 
HETATM   20  C6  UNL     1       6.397  62.126  -0.710  1.00  0.00     0.028 A 
HETATM   21  C7  UNL     1       7.364  63.241  -0.884  1.00  0.00     0.028 A 
ENDBRANCH  11  19
ENDBRANCH   1  11
BRANCH   9  22
HETATM   22  C20 UNL     1       8.334  65.450   2.338  1.00  0.00     0.122 C 
BRANCH  22  23
HETATM   23  C21 UNL     1       7.150  65.395   3.193  1.00  0.00     0.324 C 
HETATM   24  F2  UNL     1       7.239  64.488   4.275  1.00  0.00    -0.183 F 
HETATM   25  F3  UNL     1       5.921  65.251   2.586  1.00  0.00    -0.183 F 
BRANCH  23  26
HETATM   26  N4  UNL     1       7.050  66.637   3.885  1.00  0.00    -0.305 N 
HETATM   27  C22 UNL     1       6.721  67.404   4.690  1.00  0.00     0.201 C 
HETATM   28  N5  UNL     1       5.844  67.187   5.829  1.00  0.00    -0.067 NA
HETATM   29  N6  UNL     1       7.185  68.793   4.650  1.00  0.00    -0.067 NA
ATOM     30  H4  UNL     1       7.646  67.225   3.301  1.00  0.00     0.167 HD
ENDBRANCH  23  26
ENDBRANCH  22  23
ENDBRANCH   9  22
BRANCH   7  31
HETATM   31  O4  UNL     1       9.431  66.045   0.266  1.00  0.00    -0.389 OA
ATOM     32  H4  UNL     1       9.542  65.874  -0.662  1.00  0.00     0.210 HD
ENDBRANCH   7  31
BRANCH   5  33
HETATM   33  N2  UNL     1      12.683  64.941   3.426  1.00  0.00    -0.296 N 
HETATM   34  C13 UNL     1      12.545  65.158   4.758  1.00  0.00     0.152 A 
HETATM   35  C14 UNL     1      13.751  65.520   5.293  1.00  0.00     0.160 A 
HETATM   36  N3  UNL     1      14.608  65.519   4.282  1.00  0.00    -0.288 N 
HETATM   37  C15 UNL     1      13.965  65.169   3.151  1.00  0.00     0.329 A 
ATOM     38  H3  UNL     1      15.600  65.747   4.351  1.00  0.00     0.172 HD
HETATM   39  O3  UNL     1      14.612  65.106   2.058  1.00  0.00    -0.246 OA
BRANCH  35  40
HETATM   40  O2  UNL     1      14.051  65.827   6.602  1.00  0.00    -0.345 OA
ATOM     41  H2  UNL     1      14.829  66.249   6.947  1.00  0.00     0.219 HD
ENDBRANCH  35  40
ENDBRANCH   5  33
TORSDOF 11
ENDMDL
MODEL 2
REMARK VINA RESULT: -7.564293909      3.758      7.050
REMARK  11 active torsions:
REMARK  status: ('A' for Active; 'I' for Inactive)
REMARK    1  A    between atoms: C2_2  and  C4_5 
REMARK    2  A    between atoms: C4_5  and  O1_6 
REMARK    3  A    between atoms: C4_5  and  N1_8 
REMARK    4  A    between atoms: N1_8  and  C5_9 
REMARK    5  A    between atoms: N1_8  and  C8_12 
REMARK    6  A    between atoms: C12_16  and  N2_17 
REMARK    7  A    between atoms: C14_19  and  O2_20 
REMARK    8  A    between atoms: C17_27  and  O4_28 
REMARK    9  A    between atoms: C19_31  and  C20_32 
REMARK   10  A    between atoms: C20_32  and  C21_33 
REMARK   11  A    between atoms: C21_33  and  N4_36 
REMARK       I    between atoms: N4_36  and  C22_38 
ROOT
HETATM    1  C8  UNL     1       6.489  63.421   2.839  1.00  0.00     0.004 C 
HETATM    2  C9  UNL     1       7.456  62.887   1.796  1.00  0.00     0.058 C 
HETATM    3  C10 UNL     1       8.152  61.626   2.125  1.00  0.00    -0.004 C 
HETATM    4  C11 UNL     1       7.299  60.400   1.846  1.00  0.00     0.036 C 
HETATM    5  C12 UNL     1       6.277  60.154   2.901  1.00  0.00     0.045 C 
HETATM    6  C16 UNL     1       6.753  60.134   4.307  1.00  0.00     0.070 C 
HETATM    7  C17 UNL     1       7.343  61.562   4.365  1.00  0.00     0.074 C 
HETATM    8  C18 UNL     1       8.551  61.491   3.565  1.00  0.00     0.044 C 
HETATM    9  C19 UNL     1       6.173  62.435   3.832  1.00  0.00     0.039 C 
HETATM   10  C23 UNL     1       5.350  61.351   3.043  1.00  0.00     0.050 C 
ENDROOT
BRANCH   1  11
HETATM   11  N1  UNL     1       6.530  64.872   2.893  1.00  0.00    -0.330 N 
BRANCH  11  12
HETATM   12  C4  UNL     1       7.421  65.733   3.520  1.00  0.00     0.158 C 
BRANCH  12  13
HETATM   13  C2  UNL     1       8.356  66.782   3.124  1.00  0.00     0.160 C 
HETATM   14  C1  UNL     1       9.426  67.158   4.091  1.00  0.00     0.060 C 
HETATM   15  C3  UNL     1       9.179  66.272   1.889  1.00  0.00     0.060 C 
HETATM   16  F1  UNL     1       7.805  67.919   2.591  1.00  0.00    -0.235 F 
ENDBRANCH  12  13
BRANCH  12  17
HETATM   17  O1  UNL     1       7.453  65.602   4.824  1.00  0.00    -0.347 OA
ATOM     18  H1  UNL     1       7.303  64.691   5.047  1.00  0.00     0.219 HD
ENDBRANCH  12  17
ENDBRANCH  11  12
BRANCH  11  19
HETATM   19  C5  UNL     1       5.509  65.582   2.072  1.00  0.00     0.091 A 
HETATM   20  C6  UNL     1       4.595  64.991   1.152  1.00  0.00     0.028 A 
HETATM   21  C7  UNL     1       5.598  65.986   0.690  1.00  0.00     0.028 A 
ENDBRANCH  11  19
ENDBRANCH   1  11
BRANCH   9  22
HETATM   22  C20 UNL     1       5.422  62.720   5.068  1.00  0.00     0.122 C 
BRANCH  22  23
HETATM   23  C21 UNL     1       4.220  63.537   5.220  1.00  0.00     0.324 C 
HETATM   24  F2  UNL     1       3.237  62.997   6.081  1.00  0.00    -0.183 F 
HETATM   25  F3  UNL     1       3.607  64.004   4.076  1.00  0.00    -0.183 F 
BRANCH  23  26
HETATM   26  N4  UNL     1       4.580  64.722   5.926  1.00  0.00    -0.305 N 
HETATM   27  C22 UNL     1       4.648  65.485   6.797  1.00  0.00     0.201 C 
HETATM   28  N5  UNL     1       4.065  65.383   8.124  1.00  0.00    -0.067 NA
HETATM   29  N6  UNL     1       5.387  66.741   6.649  1.00  0.00    -0.067 NA
ATOM     30  H4  UNL     1       5.124  65.207   5.211  1.00  0.00     0.167 HD
ENDBRANCH  23  26
ENDBRANCH  22  23
ENDBRANCH   9  22
BRANCH   7  31
HETATM   31  O4  UNL     1       7.546  61.769   5.728  1.00  0.00    -0.389 OA
ATOM     32  H4  UNL     1       8.397  62.188   5.760  1.00  0.00     0.210 HD
ENDBRANCH   7  31
BRANCH   5  33
HETATM   33  N2  UNL     1       5.556  58.962   2.575  1.00  0.00    -0.296 N 
HETATM   34  C13 UNL     1       4.321  58.854   2.024  1.00  0.00     0.152 A 
HETATM   35  C14 UNL     1       3.996  57.534   1.877  1.00  0.00     0.160 A 
HETATM   36  N3  UNL     1       5.035  56.853   2.340  1.00  0.00    -0.288 N 
HETATM   37  C15 UNL     1       5.980  57.715   2.763  1.00  0.00     0.329 A 
ATOM     38  H3  UNL     1       5.107  55.836   2.371  1.00  0.00     0.172 HD
HETATM   39  O3  UNL     1       7.066  57.263   3.246  1.00  0.00    -0.246 OA
BRANCH  35  40
HETATM   40  O2  UNL     1       2.842  56.987   1.360  1.00  0.00    -0.345 OA
ATOM     41  H2  UNL     1       2.532  56.091   1.424  1.00  0.00     0.219 HD
ENDBRANCH  35  40
ENDBRANCH   5  33
TORSDOF 11
ENDMDL
MODEL 3
REMARK VINA RESULT: -7.403037110      3.827      6.950
REMARK  11 active torsions:
REMARK  status: ('A' for Active; 'I' for Inactive)
REMARK    1  A    between atoms: C2_2  and  C4_5 
REMARK    2  A    between atoms: C4_5  and  O1_6 
REMARK    3  A    between atoms: C4_5  and  N1_8 
REMARK    4  A    between atoms: N1_8  and  C5_9 
REMARK    5  A    between atoms: N1_8  and  C8_12 
REMARK    6  A    between atoms: C12_16  and  N2_17 
REMARK    7  A    between atoms: C14_19  and  O2_20 
REMARK    8  A    between atoms: C17_27  and  O4_28 
REMARK    9  A    between atoms: C19_31  and  C20_32 
REMARK   10  A    between atoms: C20_32  and  C21_33 
REMARK   11  A    between atoms: C21_33  and  N4_36 
REMARK       I    between atoms: N4_36  and  C22_38 
ROOT
HETATM    1  C8  UNL     1       6.556  63.469   2.854  1.00  0.00     0.004 C 
HETATM    2  C9  UNL     1       7.603  63.004   1.856  1.00  0.00     0.058 C 
HETATM    3  C10 UNL     1       8.361  61.787   2.212  1.00  0.00    -0.004 C 
HETATM    4  C11 UNL     1       7.601  60.512   1.887  1.00  0.00     0.036 C 
HETATM    5  C12 UNL     1       6.548  60.195   2.891  1.00  0.00     0.045 C 
HETATM    6  C16 UNL     1       6.957  60.194   4.318  1.00  0.00     0.070 C 
HETATM    7  C17 UNL     1       7.453  61.656   4.410  1.00  0.00     0.074 C 
HETATM    8  C18 UNL     1       8.699  61.666   3.668  1.00  0.00     0.044 C 
HETATM    9  C19 UNL     1       6.257  62.457   3.826  1.00  0.00     0.039 C 
HETATM   10  C23 UNL     1       5.542  61.330   2.994  1.00  0.00     0.050 C 
ENDROOT
BRANCH   1  11
HETATM   11  N1  UNL     1       6.504  64.919   2.917  1.00  0.00    -0.330 N 
BRANCH  11  12
HETATM   12  C4  UNL     1       7.300  65.828   3.601  1.00  0.00     0.158 C 
BRANCH  12  13
HETATM   13  C2  UNL     1       8.023  67.061   3.297  1.00  0.00     0.160 C 
HETATM   14  C1  UNL     1       7.440  68.343   3.784  1.00  0.00     0.060 C 
HETATM   15  C3  UNL     1       9.409  67.017   4.032  1.00  0.00     0.060 C 
HETATM   16  F1  UNL     1       8.444  67.215   2.001  1.00  0.00    -0.235 F 
ENDBRANCH  12  13
BRANCH  12  17
HETATM   17  O1  UNL     1       7.463  65.539   4.868  1.00  0.00    -0.347 OA
ATOM     18  H1  UNL     1       8.378  65.334   5.022  1.00  0.00     0.219 HD
ENDBRANCH  12  17
ENDBRANCH  11  12
BRANCH  11  19
HETATM   19  C5  UNL     1       5.492  65.571   2.038  1.00  0.00     0.091 A 
HETATM   20  C6  UNL     1       4.678  64.933   1.058  1.00  0.00     0.028 A 
HETATM   21  C7  UNL     1       5.641  65.997   0.668  1.00  0.00     0.028 A 
ENDBRANCH  11  19
ENDBRANCH   1  11
BRANCH   9  22
HETATM   22  C20 UNL     1       5.432  62.686   5.027  1.00  0.00     0.122 C 
BRANCH  22  23
HETATM   23  C21 UNL     1       4.236  63.517   5.150  1.00  0.00     0.324 C 
HETATM   24  F2  UNL     1       3.222  62.984   5.980  1.00  0.00    -0.183 F 
HETATM   25  F3  UNL     1       3.661  63.997   3.992  1.00  0.00    -0.183 F 
BRANCH  23  26
HETATM   26  N4  UNL     1       4.591  64.693   5.872  1.00  0.00    -0.305 N 
HETATM   27  C22 UNL     1       4.654  65.444   6.753  1.00  0.00     0.201 C 
HETATM   28  N5  UNL     1       4.070  65.322   8.078  1.00  0.00    -0.067 NA
HETATM   29  N6  UNL     1       5.388  66.706   6.623  1.00  0.00    -0.067 NA
ATOM     30  H4  UNL     1       5.133  65.190   5.164  1.00  0.00     0.167 HD
ENDBRANCH  23  26
ENDBRANCH  22  23
ENDBRANCH   9  22
BRANCH   7  31
HETATM   31  O4  UNL     1       7.577  61.865   5.782  1.00  0.00    -0.389 OA
ATOM     32  H4  UNL     1       6.917  62.523   5.963  1.00  0.00     0.210 HD
ENDBRANCH   7  31
BRANCH   5  33
HETATM   33  N2  UNL     1       5.919  58.962   2.526  1.00  0.00    -0.296 N 
HETATM   34  C13 UNL     1       5.893  57.797   3.220  1.00  0.00     0.152 A 
HETATM   35  C14 UNL     1       5.186  56.859   2.519  1.00  0.00     0.160 A 
HETATM   36  N3  UNL     1       4.790  57.463   1.408  1.00  0.00    -0.288 N 
HETATM   37  C15 UNL     1       5.232  58.735   1.409  1.00  0.00     0.329 A 
ATOM     38  H3  UNL     1       4.237  57.031   0.668  1.00  0.00     0.172 HD
HETATM   39  O3  UNL     1       4.958  59.493   0.425  1.00  0.00    -0.246 OA
BRANCH  35  40
HETATM   40  O2  UNL     1       4.919  55.552   2.864  1.00  0.00    -0.345 OA
ATOM     41  H2  UNL     1       5.435  54.776   2.683  1.00  0.00     0.219 HD
ENDBRANCH  35  40
ENDBRANCH   5  33
TORSDOF 11
ENDMDL
MODEL 4
REMARK VINA RESULT: -7.325072619      1.715      2.216
REMARK  11 active torsions:
REMARK  status: ('A' for Active; 'I' for Inactive)
REMARK    1  A    between atoms: C2_2  and  C4_5 
REMARK    2  A    between atoms: C4_5  and  O1_6 
REMARK    3  A    between atoms: C4_5  and  N1_8 
REMARK    4  A    between atoms: N1_8  and  C5_9 
REMARK    5  A    between atoms: N1_8  and  C8_12 
REMARK    6  A    between atoms: C12_16  and  N2_17 
REMARK    7  A    between atoms: C14_19  and  O2_20 
REMARK    8  A    between atoms: C17_27  and  O4_28 
REMARK    9  A    between atoms: C19_31  and  C20_32 
REMARK   10  A    between atoms: C20_32  and  C21_33 
REMARK   11  A    between atoms: C21_33  and  N4_36 
REMARK       I    between atoms: N4_36  and  C22_38 
ROOT
HETATM    1  C8  UNL     1       8.909  63.185   2.468  1.00  0.00     0.004 C 
HETATM    2  C9  UNL     1       9.705  62.089   1.780  1.00  0.00     0.058 C 
HETATM    3  C10 UNL     1      10.714  62.526   0.792  1.00  0.00    -0.004 C 
HETATM    4  C11 UNL     1      12.018  62.955   1.442  1.00  0.00     0.036 C 
HETATM    5  C12 UNL     1      11.949  64.321   2.032  1.00  0.00     0.045 C 
HETATM    6  C16 UNL     1      11.435  65.406   1.157  1.00  0.00     0.070 C 
HETATM    7  C17 UNL     1      10.040  64.810   0.858  1.00  0.00     0.074 C 
HETATM    8  C18 UNL     1      10.301  63.703  -0.042  1.00  0.00     0.044 C 
HETATM    9  C19 UNL     1       9.501  64.478   2.277  1.00  0.00     0.039 C 
HETATM   10  C23 UNL     1      10.851  64.401   3.080  1.00  0.00     0.050 C 
ENDROOT
BRANCH   1  11
HETATM   11  N1  UNL     1       7.534  62.772   2.687  1.00  0.00    -0.330 N 
BRANCH  11  12
HETATM   12  C4  UNL     1       6.912  61.546   2.489  1.00  0.00     0.158 C 
BRANCH  12  13
HETATM   13  C2  UNL     1       6.653  60.337   3.268  1.00  0.00     0.160 C 
HETATM   14  C1  UNL     1       5.453  59.529   2.913  1.00  0.00     0.060 C 
HETATM   15  C3  UNL     1       7.828  59.327   3.020  1.00  0.00     0.060 C 
HETATM   16  F1  UNL     1       6.731  60.464   4.631  1.00  0.00    -0.235 F 
ENDBRANCH  12  13
BRANCH  12  17
HETATM   17  O1  UNL     1       6.398  61.401   1.293  1.00  0.00    -0.347 OA
ATOM     18  H1  UNL     1       5.554  61.837   1.265  1.00  0.00     0.219 HD
ENDBRANCH  12  17
ENDBRANCH  11  12
BRANCH  11  19
HETATM   19  C5  UNL     1       6.642  63.788   3.313  1.00  0.00     0.091 A 
HETATM   20  C6  UNL     1       6.372  63.942   4.703  1.00  0.00     0.028 A 
HETATM   21  C7  UNL     1       5.276  63.630   3.748  1.00  0.00     0.028 A 
ENDBRANCH  11  19
ENDBRANCH   1  11
BRANCH   9  22
HETATM   22  C20 UNL     1       8.853  65.746   2.658  1.00  0.00     0.122 C 
BRANCH  22  23
HETATM   23  C21 UNL     1       9.316  66.735   3.629  1.00  0.00     0.324 C 
HETATM   24  F2  UNL     1       9.983  67.851   3.072  1.00  0.00    -0.183 F 
HETATM   25  F3  UNL     1      10.030  66.285   4.720  1.00  0.00    -0.183 F 
BRANCH  23  26
HETATM   26  N4  UNL     1       8.170  67.360   4.202  1.00  0.00    -0.305 N 
HETATM   27  C22 UNL     1       7.312  68.127   4.341  1.00  0.00     0.201 C 
HETATM   28  N5  UNL     1       7.014  69.295   3.528  1.00  0.00    -0.067 NA
HETATM   29  N6  UNL     1       6.353  68.001   5.441  1.00  0.00    -0.067 NA
ATOM     30  H4  UNL     1       7.990  66.735   4.988  1.00  0.00     0.167 HD
ENDBRANCH  23  26
ENDBRANCH  22  23
ENDBRANCH   9  22
BRANCH   7  31
HETATM   31  O4  UNL     1       9.350  65.882   0.295  1.00  0.00    -0.389 OA
ATOM     32  H4  UNL     1      10.026  66.539   0.181  1.00  0.00     0.210 HD
ENDBRANCH   7  31
BRANCH   5  33
HETATM   33  N2  UNL     1      13.229  64.652   2.580  1.00  0.00    -0.296 N 
HETATM   34  C13 UNL     1      13.661  64.491   3.855  1.00  0.00     0.152 A 
HETATM   35  C14 UNL     1      14.949  64.937   3.965  1.00  0.00     0.160 A 
HETATM   36  N3  UNL     1      15.287  65.364   2.757  1.00  0.00    -0.288 N 
HETATM   37  C15 UNL     1      14.247  65.193   1.916  1.00  0.00     0.329 A 
ATOM     38  H3  UNL     1      16.191  65.761   2.503  1.00  0.00     0.172 HD
HETATM   39  O3  UNL     1      14.365  65.542   0.699  1.00  0.00    -0.246 OA
BRANCH  35  40
HETATM   40  O2  UNL     1      15.760  64.954   5.079  1.00  0.00    -0.345 OA
ATOM     41  H2  UNL     1      15.523  64.794   5.984  1.00  0.00     0.219 HD
ENDBRANCH  35  40
ENDBRANCH   5  33
TORSDOF 11
ENDMDL
MODEL 5
REMARK VINA RESULT: -7.305094152      1.149      2.394
REMARK  11 active torsions:
REMARK  status: ('A' for Active; 'I' for Inactive)
REMARK    1  A    between atoms: C2_2  and  C4_5 
REMARK    2  A    between atoms: C4_5  and  O1_6 
REMARK    3  A    between atoms: C4_5  and  N1_8 
REMARK    4  A    between atoms: N1_8  and  C5_9 
REMARK    5  A    between atoms: N1_8  and  C8_12 
REMARK    6  A    between atoms: C12_16  and  N2_17 
REMARK    7  A    between atoms: C14_19  and  O2_20 
REMARK    8  A    between atoms: C17_27  and  O4_28 
REMARK    9  A    between atoms: C19_31  and  C20_32 
REMARK   10  A    between atoms: C20_32  and  C21_33 
REMARK   11  A    between atoms: C21_33  and  N4_36 
REMARK       I    between atoms: N4_36  and  C22_38 
ROOT
HETATM    1  C8  UNL     1       9.116  62.856   1.668  1.00  0.00     0.004 C 
HETATM    2  C9  UNL     1      10.300  62.057   1.151  1.00  0.00     0.058 C 
HETATM    3  C10 UNL     1      11.446  62.832   0.633  1.00  0.00    -0.004 C 
HETATM    4  C11 UNL     1      12.364  63.325   1.738  1.00  0.00     0.036 C 
HETATM    5  C12 UNL     1      11.827  64.520   2.446  1.00  0.00     0.045 C 
HETATM    6  C16 UNL     1      11.388  65.661   1.603  1.00  0.00     0.070 C 
HETATM    7  C17 UNL     1      10.313  64.924   0.771  1.00  0.00     0.074 C 
HETATM    8  C18 UNL     1      11.069  64.070  -0.127  1.00  0.00     0.044 C 
HETATM    9  C19 UNL     1       9.448  64.238   1.864  1.00  0.00     0.039 C 
HETATM   10  C23 UNL     1      10.469  64.219   3.060  1.00  0.00     0.050 C 
ENDROOT
BRANCH   1  11
HETATM   11  N1  UNL     1       7.862  62.197   1.349  1.00  0.00    -0.330 N 
BRANCH  11  12
HETATM   12  C4  UNL     1       7.070  62.252   0.210  1.00  0.00     0.158 C 
BRANCH  12  13
HETATM   13  C2  UNL     1       7.015  63.038  -1.020  1.00  0.00     0.160 C 
HETATM   14  C1  UNL     1       6.200  62.504  -2.147  1.00  0.00     0.060 C 
HETATM   15  C3  UNL     1       6.306  64.403  -0.704  1.00  0.00     0.060 C 
HETATM   16  F1  UNL     1       8.214  63.498  -1.502  1.00  0.00    -0.235 F 
ENDBRANCH  12  13
BRANCH  12  17
HETATM   17  O1  UNL     1       6.103  61.369   0.196  1.00  0.00    -0.347 OA
ATOM     18  H1  UNL     1       6.253  60.735   0.887  1.00  0.00     0.219 HD
ENDBRANCH  12  17
ENDBRANCH  11  12
BRANCH  11  19
HETATM   19  C5  UNL     1       7.367  61.220   2.361  1.00  0.00     0.091 A 
HETATM   20  C6  UNL     1       7.767  61.130   3.725  1.00  0.00     0.028 A 
HETATM   21  C7  UNL     1       7.985  59.991   2.794  1.00  0.00     0.028 A 
ENDBRANCH  11  19
ENDBRANCH   1  11
BRANCH   9  22
HETATM   22  C20 UNL     1       8.459  65.289   2.168  1.00  0.00     0.122 C 
BRANCH  22  23
HETATM   23  C21 UNL     1       7.319  65.212   3.080  1.00  0.00     0.324 C 
HETATM   24  F2  UNL     1       7.498  64.346   4.185  1.00  0.00    -0.183 F 
HETATM   25  F3  UNL     1       6.071  64.995   2.538  1.00  0.00    -0.183 F 
BRANCH  23  26
HETATM   26  N4  UNL     1       7.196  66.471   3.737  1.00  0.00    -0.305 N 
HETATM   27  C22 UNL     1       6.864  67.251   4.528  1.00  0.00     0.201 C 
HETATM   28  N5  UNL     1       6.025  67.041   5.696  1.00  0.00    -0.067 NA
HETATM   29  N6  UNL     1       7.280  68.653   4.432  1.00  0.00    -0.067 NA
ATOM     30  H4  UNL     1       7.756  67.059   3.119  1.00  0.00     0.167 HD
ENDBRANCH  23  26
ENDBRANCH  22  23
ENDBRANCH   9  22
BRANCH   7  31
HETATM   31  O4  UNL     1       9.618  65.963   0.155  1.00  0.00    -0.389 OA
ATOM     32  H4  UNL     1       9.623  65.715  -0.761  1.00  0.00     0.210 HD
ENDBRANCH   7  31
BRANCH   5  33
HETATM   33  N2  UNL     1      12.775  64.935   3.435  1.00  0.00    -0.296 N 
HETATM   34  C13 UNL     1      12.563  65.157   4.757  1.00  0.00     0.152 A 
HETATM   35  C14 UNL     1      13.733  65.543   5.351  1.00  0.00     0.160 A 
HETATM   36  N3  UNL     1      14.641  65.552   4.387  1.00  0.00    -0.288 N 
HETATM   37  C15 UNL     1      14.064  65.184   3.226  1.00  0.00     0.329 A 
ATOM     38  H3  UNL     1      15.624  65.798   4.505  1.00  0.00     0.172 HD
HETATM   39  O3  UNL     1      14.769  65.127   2.169  1.00  0.00    -0.246 OA
BRANCH  35  40
HETATM   40  O2  UNL     1      13.959  65.862   6.672  1.00  0.00    -0.345 OA
ATOM     41  H2  UNL     1      13.507  65.543   7.444  1.00  0.00     0.219 HD
ENDBRANCH  35  40
ENDBRANCH   5  33
TORSDOF 11
ENDMDL
