MODEL 1
REMARK VINA RESULT: -8.821474133      0.000      0.000
REMARK  9 active torsions:
REMARK  status: ('A' for Active; 'I' for Inactive)
REMARK    1  A    between atoms: C2_2  and  C3_3 
REMARK    2  A    between atoms: C3_3  and  C4_4 
REMARK    3  A    between atoms: C14_14  and  C15_15 
REMARK    4  A    between atoms: C15_15  and  C16_16 
REMARK       I    between atoms: C16_16  and  N1_18 
REMARK    5  A    between atoms: N1_18  and  C18_20 
REMARK    6  A    between atoms: C18_20  and  C19_21 
REMARK    7  A    between atoms: C21_27  and  C22_28 
REMARK    8  A    between atoms: C23_31  and  O5_32 
REMARK    9  A    between atoms: C25_35  and  O6_36 
ROOT
HETATM    1  C4  UNL     1       6.562  60.001   3.609  1.00  0.00    -0.010 C 
HETATM    2  C5  UNL     1       5.126  60.595   3.615  1.00  0.00     0.012 C 
HETATM    3  C6  UNL     1       5.168  61.587   2.571  1.00  0.00     0.022 C 
HETATM    4  C7  UNL     1       3.986  62.280   2.033  1.00  0.00     0.009 C 
HETATM    5  C8  UNL     1       4.748  63.512   1.462  1.00  0.00     0.015 C 
HETATM    6  C9  UNL     1       6.084  63.595   2.002  1.00  0.00     0.026 A 
HETATM    7  C10 UNL     1       6.964  63.232   3.106  1.00  0.00     0.044 A 
HETATM    8  C11 UNL     1       7.871  62.039   2.834  1.00  0.00    -0.021 A 
HETATM    9  C12 UNL     1       7.589  61.029   3.887  1.00  0.00     0.015 C 
HETATM   10  C13 UNL     1       9.234  62.471   2.451  1.00  0.00     0.014 A 
HETATM   11  C14 UNL     1       9.512  63.907   2.098  1.00  0.00     0.071 C 
HETATM   12  C20 UNL     1       8.285  64.672   1.766  1.00  0.00     0.154 C 
HETATM   13  O2  UNL     1       8.174  65.845   2.032  1.00  0.00    -0.296 OA
HETATM   14  C21 UNL     1       7.151  63.915   1.067  1.00  0.00     0.146 C 
HETATM   15  C23 UNL     1       7.873  62.775   0.424  1.00  0.00     0.151 C 
HETATM   16  C24 UNL     1       8.315  61.827   1.493  1.00  0.00     0.031 A 
HETATM   17  C25 UNL     1       5.722  62.849   3.189  1.00  0.00     0.076 A 
ENDROOT
BRANCH  11  18
HETATM   18  C15 UNL     1      10.339  64.614   3.136  1.00  0.00     0.115 C 
BRANCH  18  19
HETATM   19  C16 UNL     1      11.786  64.485   2.913  1.00  0.00     0.220 C 
HETATM   20  O1  UNL     1      12.203  63.571   2.158  1.00  0.00    -0.273 OA
HETATM   21  N1  UNL     1      12.737  65.358   3.518  1.00  0.00    -0.348 N 
HETATM   22  C17 UNL     1      12.346  66.436   4.400  1.00  0.00     0.152 C 
BRANCH  21  23
HETATM   23  C18 UNL     1      14.138  65.155   3.240  1.00  0.00     0.242 C 
BRANCH  23  24
HETATM   24  C19 UNL     1      14.789  64.336   4.343  1.00  0.00     0.403 C 
HETATM   25  F1  UNL     1      15.073  63.071   3.869  1.00  0.00    -0.169 F 
HETATM   26  F2  UNL     1      13.957  64.175   5.433  1.00  0.00    -0.169 F 
HETATM   27  F3  UNL     1      15.945  64.958   4.785  1.00  0.00    -0.169 F 
ENDBRANCH  23  24
ENDBRANCH  21  23
ENDBRANCH  18  19
ENDBRANCH  11  18
BRANCH  14  28
HETATM   28  C22 UNL     1       6.709  64.884   0.048  1.00  0.00     0.193 C 
HETATM   29  O3  UNL     1       7.150  64.842  -1.110  1.00  0.00    -0.647 OA
HETATM   30  O4  UNL     1       5.785  65.861   0.376  1.00  0.00    -0.647 OA
ENDBRANCH  14  28
BRANCH  15  31
HETATM   31  O5  UNL     1       7.162  62.170  -0.607  1.00  0.00    -0.393 OA
ATOM     32  H5  UNL     1       7.099  61.226  -0.526  1.00  0.00     0.210 HD
ENDBRANCH  15  31
BRANCH  17  33
HETATM   33  O6  UNL     1       4.783  63.461   4.058  1.00  0.00    -0.388 OA
ATOM     34  H6  UNL     1       4.698  62.982   4.874  1.00  0.00     0.210 HD
ENDBRANCH  17  33
BRANCH   1  35
HETATM   35  C3  UNL     1       6.617  58.773   4.439  1.00  0.00     0.031 C 
BRANCH  35  36
HETATM   36  C2  UNL     1       7.304  57.677   3.724  1.00  0.00    -0.037 C 
HETATM   37  C1  UNL     1       7.182  56.398   4.133  1.00  0.00     0.007 C 
ENDBRANCH  35  36
ENDBRANCH   1  35
TORSDOF 9
ENDMDL
MODEL 2
REMARK VINA RESULT: -8.663694017      1.442      1.862
REMARK  9 active torsions:
REMARK  status: ('A' for Active; 'I' for Inactive)
REMARK    1  A    between atoms: C2_2  and  C3_3 
REMARK    2  A    between atoms: C3_3  and  C4_4 
REMARK    3  A    between atoms: C14_14  and  C15_15 
REMARK    4  A    between atoms: C15_15  and  C16_16 
REMARK       I    between atoms: C16_16  and  N1_18 
REMARK    5  A    between atoms: N1_18  and  C18_20 
REMARK    6  A    between atoms: C18_20  and  C19_21 
REMARK    7  A    between atoms: C21_27  and  C22_28 
REMARK    8  A    between atoms: C23_31  and  O5_32 
REMARK    9  A    between atoms: C25_35  and  O6_36 
ROOT
HETATM    1  C4  UNL     1       7.064  61.048   3.249  1.00  0.00    -0.010 C 
HETATM    2  C5  UNL     1       5.782  61.867   2.936  1.00  0.00     0.012 C 
HETATM    3  C6  UNL     1       6.218  62.808   1.936  1.00  0.00     0.022 C 
HETATM    4  C7  UNL     1       5.317  63.667   1.152  1.00  0.00     0.009 C 
HETATM    5  C8  UNL     1       6.378  64.742   0.776  1.00  0.00     0.015 C 
HETATM    6  C9  UNL     1       7.555  64.623   1.602  1.00  0.00     0.026 A 
HETATM    7  C10 UNL     1       8.096  64.156   2.873  1.00  0.00     0.044 A 
HETATM    8  C11 UNL     1       8.831  62.823   2.802  1.00  0.00    -0.021 A 
HETATM    9  C12 UNL     1       8.159  61.904   3.758  1.00  0.00     0.015 C 
HETATM   10  C13 UNL     1      10.297  63.017   2.739  1.00  0.00     0.014 A 
HETATM   11  C14 UNL     1      10.879  64.377   2.468  1.00  0.00     0.071 C 
HETATM   12  C20 UNL     1       9.900  65.321   1.875  1.00  0.00     0.154 C 
HETATM   13  O2  UNL     1       9.928  66.504   2.118  1.00  0.00    -0.296 OA
HETATM   14  C21 UNL     1       8.842  64.738   0.933  1.00  0.00     0.146 C 
HETATM   15  C23 UNL     1       9.491  63.477   0.461  1.00  0.00     0.151 C 
HETATM   16  C24 UNL     1       9.522  62.502   1.594  1.00  0.00     0.031 A 
HETATM   17  C25 UNL     1       6.820  63.982   2.672  1.00  0.00     0.076 A 
ENDROOT
BRANCH  11  18
HETATM   18  C15 UNL     1      11.560  64.972   3.671  1.00  0.00     0.115 C 
BRANCH  18  19
HETATM   19  C16 UNL     1      12.972  64.583   3.791  1.00  0.00     0.220 C 
HETATM   20  O1  UNL     1      13.481  63.866   2.894  1.00  0.00    -0.273 OA
HETATM   21  N1  UNL     1      13.789  64.989   4.886  1.00  0.00    -0.348 N 
HETATM   22  C17 UNL     1      13.286  65.813   5.963  1.00  0.00     0.152 C 
BRANCH  21  23
HETATM   23  C18 UNL     1      15.167  64.559   4.919  1.00  0.00     0.242 C 
BRANCH  23  24
HETATM   24  C19 UNL     1      15.381  63.538   6.024  1.00  0.00     0.403 C 
HETATM   25  F1  UNL     1      14.314  63.578   6.899  1.00  0.00    -0.169 F 
HETATM   26  F2  UNL     1      16.515  63.801   6.765  1.00  0.00    -0.169 F 
HETATM   27  F3  UNL     1      15.516  62.269   5.486  1.00  0.00    -0.169 F 
ENDBRANCH  23  24
ENDBRANCH  21  23
ENDBRANCH  18  19
ENDBRANCH  11  18
BRANCH  14  28
HETATM   28  C22 UNL     1       8.804  65.735  -0.151  1.00  0.00     0.193 C 
HETATM   29  O3  UNL     1       9.465  65.578  -1.189  1.00  0.00    -0.647 OA
HETATM   30  O4  UNL     1       8.019  66.868  -0.023  1.00  0.00    -0.647 OA
ENDBRANCH  14  28
BRANCH  15  31
HETATM   31  O5  UNL     1       8.938  62.965  -0.708  1.00  0.00    -0.393 OA
ATOM     32  H5  UNL     1       8.734  62.038  -0.661  1.00  0.00     0.210 HD
ENDBRANCH  15  31
BRANCH  17  33
HETATM   33  O6  UNL     1       5.825  64.763   3.312  1.00  0.00    -0.388 OA
ATOM     34  H6  UNL     1       5.532  65.477   2.759  1.00  0.00     0.210 HD
ENDBRANCH  17  33
BRANCH   1  35
HETATM   35  C3  UNL     1       6.730  59.853   4.061  1.00  0.00     0.031 C 
BRANCH  35  36
HETATM   36  C2  UNL     1       7.408  58.648   3.538  1.00  0.00    -0.037 C 
HETATM   37  C1  UNL     1       7.104  57.422   4.009  1.00  0.00     0.007 C 
ENDBRANCH  35  36
ENDBRANCH   1  35
TORSDOF 9
ENDMDL
MODEL 3
REMARK VINA RESULT: -8.449058797      3.791      7.473
REMARK  9 active torsions:
REMARK  status: ('A' for Active; 'I' for Inactive)
REMARK    1  A    between atoms: C2_2  and  C3_3 
REMARK    2  A    between atoms: C3_3  and  C4_4 
REMARK    3  A    between atoms: C14_14  and  C15_15 
REMARK    4  A    between atoms: C15_15  and  C16_16 
REMARK       I    between atoms: C16_16  and  N1_18 
REMARK    5  A    between atoms: N1_18  and  C18_20 
REMARK    6  A    between atoms: C18_20  and  C19_21 
REMARK    7  A    between atoms: C21_27  and  C22_28 
REMARK    8  A    between atoms: C23_31  and  O5_32 
REMARK    9  A    between atoms: C25_35  and  O6_36 
ROOT
HETATM    1  C4  UNL     1       9.951  67.771   3.560  1.00  0.00    -0.010 C 
HETATM    2  C5  UNL     1      11.418  67.320   3.804  1.00  0.00     0.012 C 
HETATM    3  C6  UNL     1      11.622  66.290   2.817  1.00  0.00     0.022 C 
HETATM    4  C7  UNL     1      12.928  65.696   2.492  1.00  0.00     0.009 C 
HETATM    5  C8  UNL     1      12.375  64.375   1.881  1.00  0.00     0.015 C 
HETATM    6  C9  UNL     1      10.987  64.183   2.226  1.00  0.00     0.026 A 
HETATM    7  C10 UNL     1       9.923  64.499   3.171  1.00  0.00     0.044 A 
HETATM    8  C11 UNL     1       8.963  65.587   2.710  1.00  0.00    -0.021 A 
HETATM    9  C12 UNL     1       8.991  66.658   3.740  1.00  0.00     0.015 C 
HETATM   10  C13 UNL     1       7.716  65.010   2.157  1.00  0.00     0.014 A 
HETATM   11  C14 UNL     1       7.626  63.542   1.841  1.00  0.00     0.071 C 
HETATM   12  C20 UNL     1       8.953  62.888   1.730  1.00  0.00     0.154 C 
HETATM   13  O2  UNL     1       9.130  61.742   2.069  1.00  0.00    -0.296 OA
HETATM   14  C21 UNL     1      10.105  63.725   1.164  1.00  0.00     0.146 C 
HETATM   15  C23 UNL     1       9.385  64.765   0.366  1.00  0.00     0.151 C 
HETATM   16  C24 UNL     1       8.705  65.704   1.309  1.00  0.00     0.031 A 
HETATM   17  C25 UNL     1      11.100  65.004   3.413  1.00  0.00     0.076 A 
ENDROOT
BRANCH  11  18
HETATM   18  C15 UNL     1       6.721  62.797   2.784  1.00  0.00     0.115 C 
BRANCH  18  19
HETATM   19  C16 UNL     1       6.405  61.435   2.331  1.00  0.00     0.220 C 
HETATM   20  O1  UNL     1       6.185  61.239   1.110  1.00  0.00    -0.273 OA
HETATM   21  N1  UNL     1       6.339  60.325   3.224  1.00  0.00    -0.348 N 
HETATM   22  C17 UNL     1       6.578  60.459   4.644  1.00  0.00     0.152 C 
BRANCH  21  23
HETATM   23  C18 UNL     1       6.022  59.023   2.687  1.00  0.00     0.242 C 
BRANCH  23  24
HETATM   24  C19 UNL     1       6.881  57.953   3.340  1.00  0.00     0.403 C 
HETATM   25  F1  UNL     1       6.647  56.739   2.726  1.00  0.00    -0.169 F 
HETATM   26  F2  UNL     1       6.583  57.787   4.677  1.00  0.00    -0.169 F 
HETATM   27  F3  UNL     1       8.221  58.290   3.247  1.00  0.00    -0.169 F 
ENDBRANCH  23  24
ENDBRANCH  21  23
ENDBRANCH  18  19
ENDBRANCH  11  18
BRANCH  14  28
HETATM   28  C22 UNL     1      10.779  62.766   0.271  1.00  0.00     0.193 C 
HETATM   29  O3  UNL     1      11.604  61.953   0.710  1.00  0.00    -0.647 OA
HETATM   30  O4  UNL     1      10.492  62.762  -1.084  1.00  0.00    -0.647 OA
ENDBRANCH  14  28
BRANCH  15  31
HETATM   31  O5  UNL     1      10.184  65.397  -0.581  1.00  0.00    -0.393 OA
ATOM     32  H5  UNL     1      10.409  66.292  -0.356  1.00  0.00     0.210 HD
ENDBRANCH  15  31
BRANCH  17  33
HETATM   33  O6  UNL     1      11.950  64.519   4.439  1.00  0.00    -0.388 OA
ATOM     34  H6  UNL     1      11.789  63.602   4.622  1.00  0.00     0.210 HD
ENDBRANCH  17  33
BRANCH   1  35
HETATM   35  C3  UNL     1       9.662  69.017   4.310  1.00  0.00     0.031 C 
BRANCH  35  36
HETATM   36  C2  UNL     1      10.149  70.205   3.576  1.00  0.00    -0.037 C 
HETATM   37  C1  UNL     1       9.647  70.529   2.368  1.00  0.00     0.007 C 
ENDBRANCH  35  36
ENDBRANCH   1  35
TORSDOF 9
ENDMDL
MODEL 4
REMARK VINA RESULT: -8.332273068      2.104      3.210
REMARK  9 active torsions:
REMARK  status: ('A' for Active; 'I' for Inactive)
REMARK    1  A    between atoms: C2_2  and  C3_3 
REMARK    2  A    between atoms: C3_3  and  C4_4 
REMARK    3  A    between atoms: C14_14  and  C15_15 
REMARK    4  A    between atoms: C15_15  and  C16_16 
REMARK       I    between atoms: C16_16  and  N1_18 
REMARK    5  A    between atoms: N1_18  and  C18_20 
REMARK    6  A    between atoms: C18_20  and  C19_21 
REMARK    7  A    between atoms: C21_27  and  C22_28 
REMARK    8  A    between atoms: C23_31  and  O5_32 
REMARK    9  A    between atoms: C25_35  and  O6_36 
ROOT
HETATM    1  C4  UNL     1       7.667  61.184   2.338  1.00  0.00    -0.010 C 
HETATM    2  C5  UNL     1       6.700  62.038   1.474  1.00  0.00     0.012 C 
HETATM    3  C6  UNL     1       7.574  62.687   0.530  1.00  0.00     0.022 C 
HETATM    4  C7  UNL     1       7.115  63.439  -0.649  1.00  0.00     0.009 C 
HETATM    5  C8  UNL     1       8.405  64.291  -0.828  1.00  0.00     0.015 C 
HETATM    6  C9  UNL     1       9.233  64.239   0.353  1.00  0.00     0.026 A 
HETATM    7  C10 UNL     1       9.269  64.011   1.792  1.00  0.00     0.044 A 
HETATM    8  C11 UNL     1       9.756  62.628   2.207  1.00  0.00    -0.021 A 
HETATM    9  C12 UNL     1       8.679  62.016   3.027  1.00  0.00     0.015 C 
HETATM   10  C13 UNL     1      11.181  62.655   2.607  1.00  0.00     0.014 A 
HETATM   11  C14 UNL     1      12.038  63.856   2.313  1.00  0.00     0.071 C 
HETATM   12  C20 UNL     1      11.462  64.740   1.270  1.00  0.00     0.154 C 
HETATM   13  O2  UNL     1      11.611  65.938   1.297  1.00  0.00    -0.296 OA
HETATM   14  C21 UNL     1      10.663  64.073   0.145  1.00  0.00     0.146 C 
HETATM   15  C23 UNL     1      11.206  62.680   0.147  1.00  0.00     0.151 C 
HETATM   16  C24 UNL     1      10.722  61.981   1.377  1.00  0.00     0.031 A 
HETATM   17  C25 UNL     1       8.108  63.927   1.208  1.00  0.00     0.076 A 
ENDROOT
BRANCH  11  18
HETATM   18  C15 UNL     1      12.404  64.629   3.551  1.00  0.00     0.115 C 
BRANCH  18  19
HETATM   19  C16 UNL     1      13.760  64.339   4.037  1.00  0.00     0.220 C 
HETATM   20  O1  UNL     1      14.524  63.643   3.322  1.00  0.00    -0.273 OA
HETATM   21  N1  UNL     1      14.245  64.817   5.290  1.00  0.00    -0.348 N 
HETATM   22  C17 UNL     1      13.434  65.623   6.176  1.00  0.00     0.152 C 
BRANCH  21  23
HETATM   23  C18 UNL     1      15.592  64.482   5.684  1.00  0.00     0.242 C 
BRANCH  23  24
HETATM   24  C19 UNL     1      15.594  63.268   6.598  1.00  0.00     0.403 C 
HETATM   25  F1  UNL     1      14.500  63.323   7.438  1.00  0.00    -0.169 F 
HETATM   26  F2  UNL     1      16.714  63.223   7.405  1.00  0.00    -0.169 F 
HETATM   27  F3  UNL     1      15.569  62.103   5.850  1.00  0.00    -0.169 F 
ENDBRANCH  23  24
ENDBRANCH  21  23
ENDBRANCH  18  19
ENDBRANCH  11  18
BRANCH  14  28
HETATM   28  C22 UNL     1      11.129  64.805  -1.046  1.00  0.00     0.193 C 
HETATM   29  O3  UNL     1      10.440  65.699  -1.558  1.00  0.00    -0.647 OA
HETATM   30  O4  UNL     1      12.357  64.501  -1.609  1.00  0.00    -0.647 OA
ENDBRANCH  14  28
BRANCH  15  31
HETATM   31  O5  UNL     1      10.962  61.981  -1.031  1.00  0.00    -0.393 OA
ATOM     32  H5  UNL     1      11.562  62.196  -1.734  1.00  0.00     0.210 HD
ENDBRANCH  15  31
BRANCH  17  33
HETATM   33  O6  UNL     1       7.110  64.927   1.330  1.00  0.00    -0.388 OA
ATOM     34  H6  UNL     1       7.426  65.679   1.816  1.00  0.00     0.210 HD
ENDBRANCH  17  33
BRANCH   1  35
HETATM   35  C3  UNL     1       6.904  60.237   3.186  1.00  0.00     0.031 C 
BRANCH  35  36
HETATM   36  C2  UNL     1       7.600  58.938   3.295  1.00  0.00    -0.037 C 
HETATM   37  C1  UNL     1       7.037  57.900   3.945  1.00  0.00     0.007 C 
ENDBRANCH  35  36
ENDBRANCH   1  35
TORSDOF 9
ENDMDL
MODEL 5
REMARK VINA RESULT: -8.080657049      3.405      3.979
REMARK  9 active torsions:
REMARK  status: ('A' for Active; 'I' for Inactive)
REMARK    1  A    between atoms: C2_2  and  C3_3 
REMARK    2  A    between atoms: C3_3  and  C4_4 
REMARK    3  A    between atoms: C14_14  and  C15_15 
REMARK    4  A    between atoms: C15_15  and  C16_16 
REMARK       I    between atoms: C16_16  and  N1_18 
REMARK    5  A    between atoms: N1_18  and  C18_20 
REMARK    6  A    between atoms: C18_20  and  C19_21 
REMARK    7  A    between atoms: C21_27  and  C22_28 
REMARK    8  A    between atoms: C23_31  and  O5_32 
REMARK    9  A    between atoms: C25_35  and  O6_36 
ROOT
HETATM    1  C4  UNL     1       7.877  60.384   2.552  1.00  0.00    -0.010 C 
HETATM    2  C5  UNL     1       6.601  60.542   1.679  1.00  0.00     0.012 C 
HETATM    3  C6  UNL     1       6.970  61.553   0.721  1.00  0.00     0.022 C 
HETATM    4  C7  UNL     1       6.176  61.904  -0.466  1.00  0.00     0.009 C 
HETATM    5  C8  UNL     1       6.774  63.328  -0.665  1.00  0.00     0.015 C 
HETATM    6  C9  UNL     1       7.485  63.763   0.513  1.00  0.00     0.026 A 
HETATM    7  C10 UNL     1       7.636  63.616   1.955  1.00  0.00     0.044 A 
HETATM    8  C11 UNL     1       8.808  62.745   2.389  1.00  0.00    -0.021 A 
HETATM    9  C12 UNL     1       8.251  61.649   3.223  1.00  0.00     0.015 C 
HETATM   10  C13 UNL     1       9.975  63.567   2.782  1.00  0.00     0.014 A 
HETATM   11  C14 UNL     1      10.019  65.037   2.466  1.00  0.00     0.071 C 
HETATM   12  C20 UNL     1       9.053  65.434   1.412  1.00  0.00     0.154 C 
HETATM   13  O2  UNL     1       8.509  66.513   1.420  1.00  0.00    -0.296 OA
HETATM   14  C21 UNL     1       8.766  64.419   0.301  1.00  0.00     0.146 C 
HETATM   15  C23 UNL     1       9.993  63.564   0.322  1.00  0.00     0.151 C 
HETATM   16  C24 UNL     1       9.974  62.733   1.564  1.00  0.00     0.031 A 
HETATM   17  C25 UNL     1       6.720  62.890   1.378  1.00  0.00     0.076 A 
ENDROOT
BRANCH  11  18
HETATM   18  C15 UNL     1       9.887  65.902   3.689  1.00  0.00     0.115 C 
BRANCH  18  19
HETATM   19  C16 UNL     1      10.358  67.278   3.481  1.00  0.00     0.220 C 
HETATM   20  O1  UNL     1      11.481  67.461   2.950  1.00  0.00    -0.273 OA
HETATM   21  N1  UNL     1       9.588  68.418   3.859  1.00  0.00    -0.348 N 
HETATM   22  C17 UNL     1       8.285  68.301   4.476  1.00  0.00     0.152 C 
BRANCH  21  23
HETATM   23  C18 UNL     1      10.132  69.732   3.615  1.00  0.00     0.242 C 
BRANCH  23  24
HETATM   24  C19 UNL     1       9.379  70.421   2.489  1.00  0.00     0.403 C 
HETATM   25  F1  UNL     1       8.670  71.491   2.999  1.00  0.00    -0.169 F 
HETATM   26  F2  UNL     1       8.460  69.585   1.887  1.00  0.00    -0.169 F 
HETATM   27  F3  UNL     1      10.261  70.848   1.511  1.00  0.00    -0.169 F 
ENDBRANCH  23  24
ENDBRANCH  21  23
ENDBRANCH  18  19
ENDBRANCH  11  18
BRANCH  14  28
HETATM   28  C22 UNL     1       8.751  65.268  -0.903  1.00  0.00     0.193 C 
HETATM   29  O3  UNL     1       7.694  65.750  -1.334  1.00  0.00    -0.647 OA
HETATM   30  O4  UNL     1       9.932  65.542  -1.572  1.00  0.00    -0.647 OA
ENDBRANCH  14  28
BRANCH  15  31
HETATM   31  O5  UNL     1      10.184  62.830  -0.844  1.00  0.00    -0.393 OA
ATOM     32  H5  UNL     1       9.767  63.209  -1.608  1.00  0.00     0.210 HD
ENDBRANCH  15  31
BRANCH  17  33
HETATM   33  O6  UNL     1       5.334  63.167   1.489  1.00  0.00    -0.388 OA
ATOM     34  H6  UNL     1       5.094  63.402   2.378  1.00  0.00     0.210 HD
ENDBRANCH  17  33
BRANCH   1  35
HETATM   35  C3  UNL     1       7.766  59.186   3.418  1.00  0.00     0.031 C 
BRANCH  35  36
HETATM   36  C2  UNL     1       6.463  58.514   3.233  1.00  0.00    -0.037 C 
HETATM   37  C1  UNL     1       6.254  57.264   3.694  1.00  0.00     0.007 C 
ENDBRANCH  35  36
ENDBRANCH   1  35
TORSDOF 9
ENDMDL
