MODEL 1
REMARK VINA RESULT: -7.306904358      0.000      0.000
REMARK  8 active torsions:
REMARK  status: ('A' for Active; 'I' for Inactive)
REMARK    1  A    between atoms: C2_2  and  N1_4 
REMARK       I    between atoms: N1_4  and  C4_6 
REMARK    2  A    between atoms: C4_6  and  C5_8 
REMARK    3  A    between atoms: C5_8  and  N2_9 
REMARK       I    between atoms: N2_9  and  C6_11 
REMARK    4  A    between atoms: C6_11  and  C7_13 
REMARK       I    between atoms: N3_16  and  C10_17 
REMARK       I    between atoms: C10_17  and  N4_19 
REMARK    5  A    between atoms: N5_22  and  C13_23 
REMARK    6  A    between atoms: C13_23  and  C14_24 
REMARK    7  A    between atoms: C14_24  and  C15_25 
REMARK    8  A    between atoms: C21_34  and  O4_36 
ROOT
HETATM    1  N2  UNL     1       7.379  66.436   3.824  1.00  0.00    -0.339 N 
ATOM      2  H2  UNL     1       7.760  65.580   4.229  1.00  0.00     0.164 HD
HETATM    3  C6  UNL     1       5.978  66.554   3.740  1.00  0.00     0.241 C 
HETATM    4  O2  UNL     1       5.485  67.579   3.251  1.00  0.00    -0.271 OA
ENDROOT
BRANCH   3   5
HETATM    5  C7  UNL     1       5.133  65.464   4.230  1.00  0.00     0.182 C 
HETATM    6  C8  UNL     1       5.251  65.245   5.746  1.00  0.00     0.055 C 
HETATM    7  C9  UNL     1       4.917  63.823   5.342  1.00  0.00     0.131 C 
HETATM    8  N3  UNL     1       5.511  64.107   4.029  1.00  0.00    -0.320 N 
HETATM    9  C10 UNL     1       6.149  63.261   3.090  1.00  0.00     0.321 C 
HETATM   10  O3  UNL     1       6.594  63.821   2.016  1.00  0.00    -0.247 OA
HETATM   11  N4  UNL     1       6.367  61.878   3.170  1.00  0.00    -0.331 N 
HETATM   12  C11 UNL     1       5.911  61.056   4.267  1.00  0.00     0.158 C 
HETATM   13  C17 UNL     1       7.097  61.148   2.128  1.00  0.00     0.158 C 
HETATM   14  C12 UNL     1       5.936  59.592   3.825  1.00  0.00     0.292 C 
HETATM   15  N5  UNL     1       7.324  59.210   3.629  1.00  0.00     0.091 N 
HETATM   16  C16 UNL     1       7.998  60.074   2.703  1.00  0.00     0.292 C 
BRANCH  15  17
HETATM   17  C13 UNL     1       7.466  57.813   3.389  1.00  0.00     0.281 C 
BRANCH  17  18
HETATM   18  C14 UNL     1       6.690  56.912   4.296  1.00  0.00     0.147 C 
BRANCH  18  19
HETATM   19  C15 UNL     1       5.735  56.112   3.397  1.00  0.00     0.389 C 
HETATM   20  F1  UNL     1       6.213  56.022   2.112  1.00  0.00    -0.171 F 
HETATM   21  F2  UNL     1       4.488  56.714   3.336  1.00  0.00    -0.171 F 
HETATM   22  F3  UNL     1       5.622  54.828   3.897  1.00  0.00    -0.171 F 
ENDBRANCH  18  19
ENDBRANCH  17  18
ENDBRANCH  15  17
ENDBRANCH   3   5
BRANCH   1  23
HETATM   23  C5  UNL     1       8.331  67.462   3.367  1.00  0.00     0.144 C 
HETATM   24  C18 UNL     1       7.940  68.734   4.046  1.00  0.00     0.044 C 
HETATM   25  C19 UNL     1       9.171  69.464   4.406  1.00  0.00     0.006 C 
HETATM   26  C20 UNL     1      10.273  68.456   4.381  1.00  0.00     0.041 C 
HETATM   27  C21 UNL     1       9.704  67.178   3.822  1.00  0.00     0.088 C 
HETATM   28  C22 UNL     1      10.679  66.662   2.819  1.00  0.00     0.049 C 
BRANCH  23  29
HETATM   29  C4  UNL     1       8.182  67.663   1.898  1.00  0.00     0.249 C 
HETATM   30  N1  UNL     1       7.753  66.606   1.049  1.00  0.00    -0.355 N 
ATOM     31  H1  UNL     1       7.545  65.698   1.464  1.00  0.00     0.162 HD
HETATM   32  O1  UNL     1       8.421  68.760   1.327  1.00  0.00    -0.271 OA
BRANCH  30  33
HETATM   33  C2  UNL     1       7.601  66.768  -0.388  1.00  0.00     0.076 C 
HETATM   34  C1  UNL     1       8.289  65.645  -1.097  1.00  0.00     0.032 C 
HETATM   35  C3  UNL     1       6.142  66.776  -0.813  1.00  0.00     0.032 C 
ENDBRANCH  30  33
ENDBRANCH  23  29
BRANCH  27  36
HETATM   36  O4  UNL     1       9.606  66.286   4.908  1.00  0.00    -0.387 OA
ATOM     37  H4  UNL     1      10.355  66.447   5.470  1.00  0.00     0.210 HD
ENDBRANCH  27  36
ENDBRANCH   1  23
TORSDOF 8
ENDMDL
MODEL 2
REMARK VINA RESULT: -7.055762177      1.227      1.401
REMARK  8 active torsions:
REMARK  status: ('A' for Active; 'I' for Inactive)
REMARK    1  A    between atoms: C2_2  and  N1_4 
REMARK       I    between atoms: N1_4  and  C4_6 
REMARK    2  A    between atoms: C4_6  and  C5_8 
REMARK    3  A    between atoms: C5_8  and  N2_9 
REMARK       I    between atoms: N2_9  and  C6_11 
REMARK    4  A    between atoms: C6_11  and  C7_13 
REMARK       I    between atoms: N3_16  and  C10_17 
REMARK       I    between atoms: C10_17  and  N4_19 
REMARK    5  A    between atoms: N5_22  and  C13_23 
REMARK    6  A    between atoms: C13_23  and  C14_24 
REMARK    7  A    between atoms: C14_24  and  C15_25 
REMARK    8  A    between atoms: C21_34  and  O4_36 
ROOT
HETATM    1  N2  UNL     1       7.179  66.756   3.784  1.00  0.00    -0.339 N 
ATOM      2  H2  UNL     1       7.429  65.781   3.948  1.00  0.00     0.164 HD
HETATM    3  C6  UNL     1       5.830  67.125   3.953  1.00  0.00     0.241 C 
HETATM    4  O2  UNL     1       5.494  68.301   3.758  1.00  0.00    -0.271 OA
ENDROOT
BRANCH   3   5
HETATM    5  C7  UNL     1       4.852  66.112   4.352  1.00  0.00     0.182 C 
HETATM    6  C8  UNL     1       5.033  65.638   5.802  1.00  0.00     0.055 C 
HETATM    7  C9  UNL     1       4.443  64.367   5.225  1.00  0.00     0.131 C 
HETATM    8  N3  UNL     1       4.987  64.763   3.919  1.00  0.00    -0.320 N 
HETATM    9  C10 UNL     1       5.412  63.991   2.812  1.00  0.00     0.321 C 
HETATM   10  O3  UNL     1       5.870  64.642   1.795  1.00  0.00    -0.247 OA
HETATM   11  N4  UNL     1       5.403  62.597   2.666  1.00  0.00    -0.331 N 
HETATM   12  C11 UNL     1       4.893  61.689   3.667  1.00  0.00     0.158 C 
HETATM   13  C17 UNL     1       5.932  61.940   1.465  1.00  0.00     0.158 C 
HETATM   14  C12 UNL     1       4.647  60.329   3.013  1.00  0.00     0.292 C 
HETATM   15  N5  UNL     1       5.936  59.775   2.636  1.00  0.00     0.091 N 
HETATM   16  C16 UNL     1       6.680  60.663   1.790  1.00  0.00     0.292 C 
BRANCH  15  17
HETATM   17  C13 UNL     1       5.830  58.430   2.181  1.00  0.00     0.281 C 
BRANCH  17  18
HETATM   18  C14 UNL     1       5.708  57.387   3.246  1.00  0.00     0.147 C 
BRANCH  18  19
HETATM   19  C15 UNL     1       6.999  57.461   4.074  1.00  0.00     0.389 C 
HETATM   20  F1  UNL     1       8.055  57.910   3.317  1.00  0.00    -0.171 F 
HETATM   21  F2  UNL     1       7.344  56.214   4.571  1.00  0.00    -0.171 F 
HETATM   22  F3  UNL     1       6.813  58.355   5.112  1.00  0.00    -0.171 F 
ENDBRANCH  18  19
ENDBRANCH  17  18
ENDBRANCH  15  17
ENDBRANCH   3   5
BRANCH   1  23
HETATM   23  C5  UNL     1       8.253  67.682   3.387  1.00  0.00     0.144 C 
HETATM   24  C18 UNL     1       8.005  68.958   4.123  1.00  0.00     0.044 C 
HETATM   25  C19 UNL     1       9.308  69.519   4.531  1.00  0.00     0.006 C 
HETATM   26  C20 UNL     1      10.283  68.389   4.467  1.00  0.00     0.041 C 
HETATM   27  C21 UNL     1       9.575  67.215   3.841  1.00  0.00     0.088 C 
HETATM   28  C22 UNL     1      10.497  66.635   2.823  1.00  0.00     0.049 C 
BRANCH  23  29
HETATM   29  C4  UNL     1       8.151  67.969   1.928  1.00  0.00     0.249 C 
HETATM   30  N1  UNL     1       7.619  67.010   1.024  1.00  0.00    -0.355 N 
ATOM     31  H1  UNL     1       7.302  66.113   1.392  1.00  0.00     0.162 HD
HETATM   32  O1  UNL     1       8.523  69.057   1.414  1.00  0.00    -0.271 OA
BRANCH  30  33
HETATM   33  C2  UNL     1       7.509  67.256  -0.406  1.00  0.00     0.076 C 
HETATM   34  C1  UNL     1       7.992  66.060  -1.161  1.00  0.00     0.032 C 
HETATM   35  C3  UNL     1       6.078  67.541  -0.830  1.00  0.00     0.032 C 
ENDBRANCH  30  33
ENDBRANCH  23  29
BRANCH  27  36
HETATM   36  O4  UNL     1       9.356  66.292   4.881  1.00  0.00    -0.387 OA
ATOM     37  H4  UNL     1       8.682  66.656   5.443  1.00  0.00     0.210 HD
ENDBRANCH  27  36
ENDBRANCH   1  23
TORSDOF 8
ENDMDL
MODEL 3
REMARK VINA RESULT: -7.048428356      2.038      3.238
REMARK  8 active torsions:
REMARK  status: ('A' for Active; 'I' for Inactive)
REMARK    1  A    between atoms: C2_2  and  N1_4 
REMARK       I    between atoms: N1_4  and  C4_6 
REMARK    2  A    between atoms: C4_6  and  C5_8 
REMARK    3  A    between atoms: C5_8  and  N2_9 
REMARK       I    between atoms: N2_9  and  C6_11 
REMARK    4  A    between atoms: C6_11  and  C7_13 
REMARK       I    between atoms: N3_16  and  C10_17 
REMARK       I    between atoms: C10_17  and  N4_19 
REMARK    5  A    between atoms: N5_22  and  C13_23 
REMARK    6  A    between atoms: C13_23  and  C14_24 
REMARK    7  A    between atoms: C14_24  and  C15_25 
REMARK    8  A    between atoms: C21_34  and  O4_36 
ROOT
HETATM    1  N2  UNL     1       8.261  67.053   2.084  1.00  0.00    -0.339 N 
ATOM      2  H2  UNL     1       8.890  66.472   2.640  1.00  0.00     0.164 HD
HETATM    3  C6  UNL     1       7.878  66.577   0.815  1.00  0.00     0.241 C 
HETATM    4  O2  UNL     1       7.118  67.260   0.116  1.00  0.00    -0.271 OA
ENDROOT
BRANCH   3   5
HETATM    5  C7  UNL     1       8.386  65.286   0.347  1.00  0.00     0.182 C 
HETATM    6  C8  UNL     1       7.574  64.705  -0.819  1.00  0.00     0.055 C 
HETATM    7  C9  UNL     1       8.044  63.402  -0.206  1.00  0.00     0.131 C 
HETATM    8  N3  UNL     1       8.133  64.096   1.086  1.00  0.00    -0.320 N 
HETATM    9  C10 UNL     1       7.998  63.622   2.412  1.00  0.00     0.321 C 
HETATM   10  O3  UNL     1       8.111  64.498   3.353  1.00  0.00    -0.247 OA
HETATM   11  N4  UNL     1       7.756  62.312   2.850  1.00  0.00    -0.331 N 
HETATM   12  C11 UNL     1       7.640  61.179   1.961  1.00  0.00     0.158 C 
HETATM   13  C17 UNL     1       7.589  61.988   4.271  1.00  0.00     0.158 C 
HETATM   14  C12 UNL     1       7.810  59.897   2.778  1.00  0.00     0.292 C 
HETATM   15  N5  UNL     1       6.670  59.784   3.672  1.00  0.00     0.091 N 
HETATM   16  C16 UNL     1       6.513  60.945   4.499  1.00  0.00     0.292 C 
BRANCH  15  17
HETATM   17  C13 UNL     1       6.644  58.532   4.350  1.00  0.00     0.281 C 
BRANCH  17  18
HETATM   18  C14 UNL     1       7.143  57.356   3.572  1.00  0.00     0.147 C 
BRANCH  18  19
HETATM   19  C15 UNL     1       5.910  56.508   3.229  1.00  0.00     0.389 C 
HETATM   20  F1  UNL     1       6.006  55.969   1.968  1.00  0.00    -0.171 F 
HETATM   21  F2  UNL     1       4.754  57.273   3.266  1.00  0.00    -0.171 F 
HETATM   22  F3  UNL     1       5.821  55.463   4.130  1.00  0.00    -0.171 F 
ENDBRANCH  18  19
ENDBRANCH  17  18
ENDBRANCH  15  17
ENDBRANCH   3   5
BRANCH   1  23
HETATM   23  C5  UNL     1       7.817  68.331   2.664  1.00  0.00     0.144 C 
HETATM   24  C18 UNL     1       6.323  68.309   2.643  1.00  0.00     0.044 C 
HETATM   25  C19 UNL     1       5.833  68.953   3.878  1.00  0.00     0.006 C 
HETATM   26  C20 UNL     1       6.979  68.937   4.836  1.00  0.00     0.041 C 
HETATM   27  C21 UNL     1       8.191  68.449   4.084  1.00  0.00     0.088 C 
HETATM   28  C22 UNL     1       9.322  69.353   4.436  1.00  0.00     0.049 C 
BRANCH  23  29
HETATM   29  C4  UNL     1       8.269  69.457   1.797  1.00  0.00     0.249 C 
HETATM   30  N1  UNL     1       7.333  70.294   1.130  1.00  0.00    -0.355 N 
ATOM     31  H1  UNL     1       6.338  70.114   1.256  1.00  0.00     0.162 HD
HETATM   32  O1  UNL     1       9.482  69.731   1.604  1.00  0.00    -0.271 OA
BRANCH  30  33
HETATM   33  C2  UNL     1       7.740  71.398   0.275  1.00  0.00     0.076 C 
HETATM   34  C1  UNL     1       7.423  71.074  -1.150  1.00  0.00     0.032 C 
HETATM   35  C3  UNL     1       7.034  72.694   0.637  1.00  0.00     0.032 C 
ENDBRANCH  30  33
ENDBRANCH  23  29
BRANCH  27  36
HETATM   36  O4  UNL     1       8.444  67.146   4.558  1.00  0.00    -0.387 OA
ATOM     37  H4  UNL     1       7.602  66.732   4.702  1.00  0.00     0.210 HD
ENDBRANCH  27  36
ENDBRANCH   1  23
TORSDOF 8
ENDMDL
MODEL 4
REMARK VINA RESULT: -6.819810524      5.236      7.607
REMARK  8 active torsions:
REMARK  status: ('A' for Active; 'I' for Inactive)
REMARK    1  A    between atoms: C2_2  and  N1_4 
REMARK       I    between atoms: N1_4  and  C4_6 
REMARK    2  A    between atoms: C4_6  and  C5_8 
REMARK    3  A    between atoms: C5_8  and  N2_9 
REMARK       I    between atoms: N2_9  and  C6_11 
REMARK    4  A    between atoms: C6_11  and  C7_13 
REMARK       I    between atoms: N3_16  and  C10_17 
REMARK       I    between atoms: C10_17  and  N4_19 
REMARK    5  A    between atoms: N5_22  and  C13_23 
REMARK    6  A    between atoms: C13_23  and  C14_24 
REMARK    7  A    between atoms: C14_24  and  C15_25 
REMARK    8  A    between atoms: C21_34  and  O4_36 
ROOT
HETATM    1  N2  UNL     1       7.620  65.136   2.036  1.00  0.00    -0.339 N 
ATOM      2  H2  UNL     1       8.145  64.524   2.663  1.00  0.00     0.164 HD
HETATM    3  C6  UNL     1       8.181  65.421   0.776  1.00  0.00     0.241 C 
HETATM    4  O2  UNL     1       7.570  66.162  -0.005  1.00  0.00    -0.271 OA
ENDROOT
BRANCH   3   5
HETATM    5  C7  UNL     1       9.475  64.837   0.416  1.00  0.00     0.182 C 
HETATM    6  C8  UNL     1       9.462  63.302   0.406  1.00  0.00     0.055 C 
HETATM    7  C9  UNL     1      10.918  63.508   0.766  1.00  0.00     0.131 C 
HETATM    8  N3  UNL     1      10.540  64.799   1.358  1.00  0.00    -0.320 N 
HETATM    9  C10 UNL     1      11.112  65.544   2.417  1.00  0.00     0.321 C 
HETATM   10  O3  UNL     1      10.528  66.653   2.724  1.00  0.00    -0.247 OA
HETATM   11  N4  UNL     1      12.242  65.237   3.188  1.00  0.00    -0.331 N 
HETATM   12  C11 UNL     1      13.062  64.067   2.979  1.00  0.00     0.158 C 
HETATM   13  C17 UNL     1      12.681  66.095   4.295  1.00  0.00     0.158 C 
HETATM   14  C12 UNL     1      14.403  64.276   3.683  1.00  0.00     0.292 C 
HETATM   15  N5  UNL     1      14.155  64.302   5.114  1.00  0.00     0.091 N 
HETATM   16  C16 UNL     1      13.184  65.293   5.478  1.00  0.00     0.292 C 
BRANCH  15  17
HETATM   17  C13 UNL     1      15.364  64.314   5.867  1.00  0.00     0.281 C 
BRANCH  17  18
HETATM   18  C14 UNL     1      15.263  63.819   7.275  1.00  0.00     0.147 C 
BRANCH  18  19
HETATM   19  C15 UNL     1      16.380  62.779   7.449  1.00  0.00     0.389 C 
HETATM   20  F1  UNL     1      17.476  63.087   6.677  1.00  0.00    -0.171 F 
HETATM   21  F2  UNL     1      15.948  61.517   7.072  1.00  0.00    -0.171 F 
HETATM   22  F3  UNL     1      16.783  62.773   8.771  1.00  0.00    -0.171 F 
ENDBRANCH  18  19
ENDBRANCH  17  18
ENDBRANCH  15  17
ENDBRANCH   3   5
BRANCH   1  23
HETATM   23  C5  UNL     1       6.329  65.659   2.512  1.00  0.00     0.144 C 
HETATM   24  C18 UNL     1       5.328  65.346   1.448  1.00  0.00     0.044 C 
HETATM   25  C19 UNL     1       4.057  64.975   2.103  1.00  0.00     0.006 C 
HETATM   26  C20 UNL     1       4.407  64.610   3.509  1.00  0.00     0.041 C 
HETATM   27  C21 UNL     1       5.860  64.952   3.716  1.00  0.00     0.088 C 
HETATM   28  C22 UNL     1       5.965  65.658   5.025  1.00  0.00     0.049 C 
BRANCH  23  29
HETATM   29  C4  UNL     1       6.409  67.142   2.641  1.00  0.00     0.249 C 
HETATM   30  N1  UNL     1       7.642  67.792   2.918  1.00  0.00    -0.355 N 
ATOM     31  H1  UNL     1       8.482  67.224   3.026  1.00  0.00     0.162 HD
HETATM   32  O1  UNL     1       5.409  67.898   2.516  1.00  0.00    -0.271 OA
BRANCH  30  33
HETATM   33  C2  UNL     1       7.754  69.236   3.054  1.00  0.00     0.076 C 
HETATM   34  C1  UNL     1       7.854  69.599   4.501  1.00  0.00     0.032 C 
HETATM   35  C3  UNL     1       8.978  69.786   2.340  1.00  0.00     0.032 C 
ENDBRANCH  30  33
ENDBRANCH  23  29
BRANCH  27  36
HETATM   36  O4  UNL     1       6.545  63.723   3.771  1.00  0.00    -0.387 OA
ATOM     37  H4  UNL     1       6.588  63.386   2.884  1.00  0.00     0.210 HD
ENDBRANCH  27  36
ENDBRANCH   1  23
TORSDOF 8
ENDMDL
MODEL 5
REMARK VINA RESULT: -6.745719677      4.706      8.390
REMARK  8 active torsions:
REMARK  status: ('A' for Active; 'I' for Inactive)
REMARK    1  A    between atoms: C2_2  and  N1_4 
REMARK       I    between atoms: N1_4  and  C4_6 
REMARK    2  A    between atoms: C4_6  and  C5_8 
REMARK    3  A    between atoms: C5_8  and  N2_9 
REMARK       I    between atoms: N2_9  and  C6_11 
REMARK    4  A    between atoms: C6_11  and  C7_13 
REMARK       I    between atoms: N3_16  and  C10_17 
REMARK       I    between atoms: C10_17  and  N4_19 
REMARK    5  A    between atoms: N5_22  and  C13_23 
REMARK    6  A    between atoms: C13_23  and  C14_24 
REMARK    7  A    between atoms: C14_24  and  C15_25 
REMARK    8  A    between atoms: C21_34  and  O4_36 
ROOT
HETATM    1  N2  UNL     1       6.328  61.604   1.443  1.00  0.00    -0.339 N 
ATOM      2  H2  UNL     1       7.343  61.557   1.544  1.00  0.00     0.164 HD
HETATM    3  C6  UNL     1       5.797  62.628   0.634  1.00  0.00     0.241 C 
HETATM    4  O2  UNL     1       4.569  62.713   0.494  1.00  0.00    -0.271 OA
ENDROOT
BRANCH   3   5
HETATM    5  C7  UNL     1       6.704  63.571  -0.021  1.00  0.00     0.182 C 
HETATM    6  C8  UNL     1       7.469  62.951  -1.200  1.00  0.00     0.055 C 
HETATM    7  C9  UNL     1       8.499  63.981  -0.785  1.00  0.00     0.131 C 
HETATM    8  N3  UNL     1       7.949  63.914   0.576  1.00  0.00    -0.320 N 
HETATM    9  C10 UNL     1       8.551  64.131   1.838  1.00  0.00     0.321 C 
HETATM   10  O3  UNL     1       7.797  63.972   2.873  1.00  0.00    -0.247 OA
HETATM   11  N4  UNL     1       9.873  64.501   2.121  1.00  0.00    -0.331 N 
HETATM   12  C11 UNL     1      10.866  64.770   1.107  1.00  0.00     0.158 C 
HETATM   13  C17 UNL     1      10.362  64.637   3.498  1.00  0.00     0.158 C 
HETATM   14  C12 UNL     1      12.021  65.542   1.745  1.00  0.00     0.292 C 
HETATM   15  N5  UNL     1      12.685  64.655   2.685  1.00  0.00     0.091 N 
HETATM   16  C16 UNL     1      11.777  64.121   3.659  1.00  0.00     0.292 C 
BRANCH  15  17
HETATM   17  C13 UNL     1      13.885  65.222   3.201  1.00  0.00     0.281 C 
BRANCH  17  18
HETATM   18  C14 UNL     1      13.976  65.317   4.691  1.00  0.00     0.147 C 
BRANCH  18  19
HETATM   19  C15 UNL     1      15.191  64.474   5.105  1.00  0.00     0.389 C 
HETATM   20  F1  UNL     1      15.056  63.167   4.702  1.00  0.00    -0.171 F 
HETATM   21  F2  UNL     1      15.349  64.470   6.482  1.00  0.00    -0.171 F 
HETATM   22  F3  UNL     1      16.321  64.989   4.495  1.00  0.00    -0.171 F 
ENDBRANCH  18  19
ENDBRANCH  17  18
ENDBRANCH  15  17
ENDBRANCH   3   5
BRANCH   1  23
HETATM   23  C5  UNL     1       5.521  60.597   2.151  1.00  0.00     0.144 C 
HETATM   24  C18 UNL     1       4.867  59.763   1.099  1.00  0.00     0.044 C 
HETATM   25  C19 UNL     1       4.846  58.362   1.564  1.00  0.00     0.006 C 
HETATM   26  C20 UNL     1       5.876  58.268   2.642  1.00  0.00     0.041 C 
HETATM   27  C21 UNL     1       6.361  59.667   2.926  1.00  0.00     0.088 C 
HETATM   28  C22 UNL     1       6.398  59.829   4.408  1.00  0.00     0.049 C 
BRANCH  23  29
HETATM   29  C4  UNL     1       4.447  61.276   2.930  1.00  0.00     0.249 C 
HETATM   30  N1  UNL     1       4.729  62.406   3.745  1.00  0.00    -0.355 N 
ATOM     31  H1  UNL     1       5.688  62.751   3.788  1.00  0.00     0.162 HD
HETATM   32  O1  UNL     1       3.245  60.899   2.916  1.00  0.00    -0.271 OA
BRANCH  30  33
HETATM   33  C2  UNL     1       3.705  63.089   4.519  1.00  0.00     0.076 C 
HETATM   34  C1  UNL     1       4.244  63.435   5.871  1.00  0.00     0.032 C 
HETATM   35  C3  UNL     1       3.240  64.372   3.850  1.00  0.00     0.032 C 
ENDBRANCH  30  33
ENDBRANCH  23  29
BRANCH  27  36
HETATM   36  O4  UNL     1       7.664  59.742   2.397  1.00  0.00    -0.387 OA
ATOM     37  H4  UNL     1       7.604  59.530   1.473  1.00  0.00     0.210 HD
ENDBRANCH  27  36
ENDBRANCH   1  23
TORSDOF 8
ENDMDL
