MODEL 1
REMARK VINA RESULT: -8.889394144      0.000      0.000
REMARK  9 active torsions:
REMARK  status: ('A' for Active; 'I' for Inactive)
REMARK       I    between atoms: C2_2  and  N1_4 
REMARK    1  A    between atoms: N1_4  and  C3_6 
REMARK    2  A    between atoms: C6_9  and  N2_10 
REMARK    3  A    between atoms: N2_10  and  C7_11 
REMARK    4  A    between atoms: N2_10  and  C18_30 
REMARK    5  A    between atoms: C7_11  and  O2_12 
REMARK    6  A    between atoms: C7_11  and  C8_14 
REMARK    7  A    between atoms: C13_20  and  C14_21 
REMARK       I    between atoms: C14_21  and  N3_23 
REMARK    8  A    between atoms: N3_23  and  C15_24 
REMARK    9  A    between atoms: C15_24  and  C17_26 
ROOT
HETATM    1  N2  UNL     1       7.160  62.699   1.956  1.00  0.00    -0.355 N 
ENDROOT
BRANCH   1   2
HETATM    2  C6  UNL     1       6.878  61.278   2.234  1.00  0.00     0.086 C 
HETATM    3  C5  UNL     1       8.098  60.439   2.408  1.00  0.00     0.027 C 
HETATM    4  C4  UNL     1       7.777  59.201   3.227  1.00  0.00     0.027 C 
HETATM    5  C3  UNL     1       6.413  58.662   2.914  1.00  0.00     0.084 C 
HETATM    6  C24 UNL     1       5.317  59.673   3.172  1.00  0.00     0.027 C 
HETATM    7  C23 UNL     1       5.933  61.075   3.374  1.00  0.00     0.027 C 
BRANCH   5   8
HETATM    8  N1  UNL     1       6.164  57.517   3.782  1.00  0.00    -0.357 N 
HETATM    9  C2  UNL     1       5.706  56.279   3.204  1.00  0.00     0.213 C 
HETATM   10  C1  UNL     1       5.464  55.127   4.061  1.00  0.00     0.117 C 
HETATM   11  O1  UNL     1       5.511  56.166   1.967  1.00  0.00    -0.274 OA
ATOM     12  H1  UNL     1       6.313  57.591   4.787  1.00  0.00     0.162 HD
ENDBRANCH   5   8
ENDBRANCH   1   2
BRANCH   1  13
HETATM   13  C7  UNL     1       8.406  63.197   2.306  1.00  0.00     0.121 C 
BRANCH  13  14
HETATM   14  O2  UNL     1       8.575  63.313   3.618  1.00  0.00    -0.349 OA
ATOM     15  H2  UNL     1       9.133  64.042   3.862  1.00  0.00     0.219 HD
ENDBRANCH  13  14
BRANCH  13  16
HETATM   16  C8  UNL     1       9.576  63.624   1.592  1.00  0.00     0.106 C 
HETATM   17  C9  UNL     1       9.916  63.057   0.272  1.00  0.00     0.134 C 
HETATM   18  C10 UNL     1      10.594  64.192  -0.531  1.00  0.00     0.035 C 
HETATM   19  O3  UNL     1      11.076  62.256   0.438  1.00  0.00    -0.379 OA
HETATM   20  C11 UNL     1      11.782  64.440   0.373  1.00  0.00     0.035 C 
HETATM   21  C12 UNL     1      11.839  63.171   1.202  1.00  0.00     0.137 C 
HETATM   22  C13 UNL     1      10.885  63.355   2.358  1.00  0.00     0.136 C 
BRANCH  22  23
HETATM   23  C14 UNL     1      11.263  64.567   3.208  1.00  0.00     0.294 C 
HETATM   24  O4  UNL     1      10.406  65.510   3.055  1.00  0.00    -0.257 OA
HETATM   25  N3  UNL     1      12.340  64.559   3.971  1.00  0.00    -0.400 NA
BRANCH  25  26
HETATM   26  C15 UNL     1      13.487  64.566   4.790  1.00  0.00     0.270 C 
HETATM   27  C16 UNL     1      13.497  65.723   5.788  1.00  0.00     0.057 C 
BRANCH  26  28
HETATM   28  C17 UNL     1      14.763  64.481   4.020  1.00  0.00     0.419 C 
HETATM   29  F1  UNL     1      14.981  63.150   3.668  1.00  0.00    -0.168 F 
HETATM   30  F2  UNL     1      15.839  64.952   4.694  1.00  0.00    -0.168 F 
HETATM   31  F3  UNL     1      14.657  65.151   2.802  1.00  0.00    -0.168 F 
ENDBRANCH  26  28
ENDBRANCH  25  26
ENDBRANCH  22  23
ENDBRANCH  13  16
ENDBRANCH   1  13
BRANCH   1  32
HETATM   32  C18 UNL     1       6.085  63.404   1.317  1.00  0.00     0.089 C 
HETATM   33  C19 UNL     1       6.006  64.867   1.508  1.00  0.00     0.044 C 
HETATM   34  C20 UNL     1       4.623  65.288   0.970  1.00  0.00     0.115 C 
HETATM   35  N4  UNL     1       3.878  64.172   0.455  1.00  0.00    -0.421 N 
HETATM   36  C21 UNL     1       4.515  63.416  -0.573  1.00  0.00     0.115 C 
ATOM     37  H4  UNL     1       2.949  63.935   0.804  1.00  0.00     0.153 HD
HETATM   38  C22 UNL     1       5.952  63.090  -0.183  1.00  0.00     0.044 C 
ENDBRANCH   1  32
TORSDOF 9
ENDMDL
MODEL 2
REMARK VINA RESULT: -8.790273741      1.269      1.511
REMARK  9 active torsions:
REMARK  status: ('A' for Active; 'I' for Inactive)
REMARK       I    between atoms: C2_2  and  N1_4 
REMARK    1  A    between atoms: N1_4  and  C3_6 
REMARK    2  A    between atoms: C6_9  and  N2_10 
REMARK    3  A    between atoms: N2_10  and  C7_11 
REMARK    4  A    between atoms: N2_10  and  C18_30 
REMARK    5  A    between atoms: C7_11  and  O2_12 
REMARK    6  A    between atoms: C7_11  and  C8_14 
REMARK    7  A    between atoms: C13_20  and  C14_21 
REMARK       I    between atoms: C14_21  and  N3_23 
REMARK    8  A    between atoms: N3_23  and  C15_24 
REMARK    9  A    between atoms: C15_24  and  C17_26 
ROOT
HETATM    1  N2  UNL     1       7.930  63.203   2.811  1.00  0.00    -0.355 N 
ENDROOT
BRANCH   1   2
HETATM    2  C6  UNL     1       7.416  61.831   2.979  1.00  0.00     0.086 C 
HETATM    3  C5  UNL     1       8.200  60.795   2.248  1.00  0.00     0.027 C 
HETATM    4  C4  UNL     1       8.005  59.432   2.890  1.00  0.00     0.027 C 
HETATM    5  C3  UNL     1       6.602  59.243   3.386  1.00  0.00     0.084 C 
HETATM    6  C24 UNL     1       6.202  60.287   4.405  1.00  0.00     0.027 C 
HETATM    7  C23 UNL     1       7.232  61.439   4.409  1.00  0.00     0.027 C 
BRANCH   5   8
HETATM    8  N1  UNL     1       6.519  57.942   4.037  1.00  0.00    -0.357 N 
HETATM    9  C2  UNL     1       5.898  56.842   3.342  1.00  0.00     0.213 C 
HETATM   10  C1  UNL     1       5.819  55.536   3.981  1.00  0.00     0.117 C 
HETATM   11  O1  UNL     1       5.422  56.983   2.188  1.00  0.00    -0.274 OA
ATOM     12  H1  UNL     1       6.896  57.811   4.975  1.00  0.00     0.162 HD
ENDBRANCH   5   8
ENDBRANCH   1   2
BRANCH   1  13
HETATM   13  C7  UNL     1       9.291  63.368   2.600  1.00  0.00     0.121 C 
BRANCH  13  14
HETATM   14  O2  UNL     1      10.025  63.102   3.674  1.00  0.00    -0.349 OA
ATOM     15  H2  UNL     1      10.733  62.493   3.503  1.00  0.00     0.219 HD
ENDBRANCH  13  14
BRANCH  13  16
HETATM   16  C8  UNL     1      10.116  63.759   1.492  1.00  0.00     0.106 C 
HETATM   17  C9  UNL     1       9.920  63.177   0.150  1.00  0.00     0.134 C 
HETATM   18  C10 UNL     1      10.272  64.289  -0.867  1.00  0.00     0.035 C 
HETATM   19  O3  UNL     1      11.040  62.347  -0.122  1.00  0.00    -0.379 OA
HETATM   20  C11 UNL     1      11.718  64.511  -0.480  1.00  0.00     0.035 C 
HETATM   21  C12 UNL     1      12.054  63.245   0.286  1.00  0.00     0.137 C 
HETATM   22  C13 UNL     1      11.610  63.461   1.713  1.00  0.00     0.136 C 
BRANCH  22  23
HETATM   23  C14 UNL     1      12.307  64.667   2.340  1.00  0.00     0.294 C 
HETATM   24  O4  UNL     1      12.220  65.689   1.570  1.00  0.00    -0.257 OA
HETATM   25  N3  UNL     1      12.893  64.581   3.520  1.00  0.00    -0.400 NA
BRANCH  25  26
HETATM   26  C15 UNL     1      13.522  64.506   4.779  1.00  0.00     0.270 C 
HETATM   27  C16 UNL     1      13.428  65.811   5.569  1.00  0.00     0.057 C 
BRANCH  26  28
HETATM   28  C17 UNL     1      14.923  63.997   4.709  1.00  0.00     0.419 C 
HETATM   29  F1  UNL     1      15.181  63.248   5.857  1.00  0.00    -0.168 F 
HETATM   30  F2  UNL     1      15.853  64.973   4.589  1.00  0.00    -0.168 F 
HETATM   31  F3  UNL     1      15.074  63.090   3.660  1.00  0.00    -0.168 F 
ENDBRANCH  26  28
ENDBRANCH  25  26
ENDBRANCH  22  23
ENDBRANCH  13  16
ENDBRANCH   1  13
BRANCH   1  32
HETATM   32  C18 UNL     1       6.924  64.225   2.866  1.00  0.00     0.089 C 
HETATM   33  C19 UNL     1       7.285  65.520   3.481  1.00  0.00     0.044 C 
HETATM   34  C20 UNL     1       5.957  66.284   3.663  1.00  0.00     0.115 C 
HETATM   35  N4  UNL     1       4.829  65.536   3.180  1.00  0.00    -0.421 N 
HETATM   36  C21 UNL     1       4.892  65.122   1.816  1.00  0.00     0.115 C 
ATOM     37  H4  UNL     1       4.032  65.314   3.776  1.00  0.00     0.153 HD
HETATM   38  C22 UNL     1       6.246  64.491   1.512  1.00  0.00     0.044 C 
ENDBRANCH   1  32
TORSDOF 9
ENDMDL
MODEL 3
REMARK VINA RESULT: -8.630850861      2.449      3.143
REMARK  9 active torsions:
REMARK  status: ('A' for Active; 'I' for Inactive)
REMARK       I    between atoms: C2_2  and  N1_4 
REMARK    1  A    between atoms: N1_4  and  C3_6 
REMARK    2  A    between atoms: C6_9  and  N2_10 
REMARK    3  A    between atoms: N2_10  and  C7_11 
REMARK    4  A    between atoms: N2_10  and  C18_30 
REMARK    5  A    between atoms: C7_11  and  O2_12 
REMARK    6  A    between atoms: C7_11  and  C8_14 
REMARK    7  A    between atoms: C13_20  and  C14_21 
REMARK       I    between atoms: C14_21  and  N3_23 
REMARK    8  A    between atoms: N3_23  and  C15_24 
REMARK    9  A    between atoms: C15_24  and  C17_26 
ROOT
HETATM    1  N2  UNL     1       7.735  63.095   2.888  1.00  0.00    -0.355 N 
ENDROOT
BRANCH   1   2
HETATM    2  C6  UNL     1       7.305  61.695   3.068  1.00  0.00     0.086 C 
HETATM    3  C5  UNL     1       8.115  60.707   2.300  1.00  0.00     0.027 C 
HETATM    4  C4  UNL     1       8.024  59.333   2.941  1.00  0.00     0.027 C 
HETATM    5  C3  UNL     1       6.655  59.064   3.493  1.00  0.00     0.084 C 
HETATM    6  C24 UNL     1       6.240  60.080   4.535  1.00  0.00     0.027 C 
HETATM    7  C23 UNL     1       7.203  61.288   4.503  1.00  0.00     0.027 C 
BRANCH   5   8
HETATM    8  N1  UNL     1       6.672  57.758   4.139  1.00  0.00    -0.357 N 
HETATM    9  C2  UNL     1       5.951  56.664   3.540  1.00  0.00     0.213 C 
HETATM   10  C1  UNL     1       5.969  55.352   4.173  1.00  0.00     0.117 C 
HETATM   11  O1  UNL     1       5.302  56.813   2.474  1.00  0.00    -0.274 OA
ATOM     12  H1  UNL     1       7.189  57.619   5.007  1.00  0.00     0.162 HD
ENDBRANCH   5   8
ENDBRANCH   1   2
BRANCH   1  13
HETATM   13  C7  UNL     1       9.065  63.334   2.577  1.00  0.00     0.121 C 
BRANCH  13  14
HETATM   14  O2  UNL     1       9.888  63.121   3.596  1.00  0.00    -0.349 OA
ATOM     15  H2  UNL     1      10.805  63.131   3.347  1.00  0.00     0.219 HD
ENDBRANCH  13  14
BRANCH  13  16
HETATM   16  C8  UNL     1       9.783  63.759   1.409  1.00  0.00     0.106 C 
HETATM   17  C9  UNL     1       9.819  62.929   0.189  1.00  0.00     0.134 C 
HETATM   18  C10 UNL     1       9.872  63.910  -1.007  1.00  0.00     0.035 C 
HETATM   19  O3  UNL     1      11.141  62.430   0.051  1.00  0.00    -0.379 OA
HETATM   20  C11 UNL     1      11.174  64.606  -0.680  1.00  0.00     0.035 C 
HETATM   21  C12 UNL     1      11.834  63.641   0.287  1.00  0.00     0.137 C 
HETATM   22  C13 UNL     1      11.290  63.952   1.661  1.00  0.00     0.136 C 
BRANCH  22  23
HETATM   23  C14 UNL     1      11.581  65.397   2.065  1.00  0.00     0.294 C 
HETATM   24  O4  UNL     1      12.822  65.672   1.888  1.00  0.00    -0.257 OA
HETATM   25  N3  UNL     1      10.627  66.186   2.522  1.00  0.00    -0.400 NA
BRANCH  25  26
HETATM   26  C15 UNL     1       9.618  67.040   3.011  1.00  0.00     0.270 C 
HETATM   27  C16 UNL     1       8.501  67.282   1.997  1.00  0.00     0.057 C 
BRANCH  26  28
HETATM   28  C17 UNL     1      10.148  68.317   3.573  1.00  0.00     0.419 C 
HETATM   29  F1  UNL     1      11.533  68.208   3.695  1.00  0.00    -0.168 F 
HETATM   30  F2  UNL     1       9.615  68.649   4.772  1.00  0.00    -0.168 F 
HETATM   31  F3  UNL     1       9.959  69.372   2.680  1.00  0.00    -0.168 F 
ENDBRANCH  26  28
ENDBRANCH  25  26
ENDBRANCH  22  23
ENDBRANCH  13  16
ENDBRANCH   1  13
BRANCH   1  32
HETATM   32  C18 UNL     1       6.685  64.062   3.039  1.00  0.00     0.089 C 
HETATM   33  C19 UNL     1       5.315  63.662   2.652  1.00  0.00     0.044 C 
HETATM   34  C20 UNL     1       4.485  64.963   2.640  1.00  0.00     0.115 C 
HETATM   35  N4  UNL     1       5.268  66.110   3.009  1.00  0.00    -0.421 N 
HETATM   36  C21 UNL     1       5.919  66.041   4.277  1.00  0.00     0.115 C 
ATOM     37  H4  UNL     1       5.353  66.926   2.402  1.00  0.00     0.153 HD
HETATM   38  C22 UNL     1       6.640  64.707   4.434  1.00  0.00     0.044 C 
ENDBRANCH   1  32
TORSDOF 9
ENDMDL
MODEL 4
REMARK VINA RESULT: -8.511723069      1.763      2.245
REMARK  9 active torsions:
REMARK  status: ('A' for Active; 'I' for Inactive)
REMARK       I    between atoms: C2_2  and  N1_4 
REMARK    1  A    between atoms: N1_4  and  C3_6 
REMARK    2  A    between atoms: C6_9  and  N2_10 
REMARK    3  A    between atoms: N2_10  and  C7_11 
REMARK    4  A    between atoms: N2_10  and  C18_30 
REMARK    5  A    between atoms: C7_11  and  O2_12 
REMARK    6  A    between atoms: C7_11  and  C8_14 
REMARK    7  A    between atoms: C13_20  and  C14_21 
REMARK       I    between atoms: C14_21  and  N3_23 
REMARK    8  A    between atoms: N3_23  and  C15_24 
REMARK    9  A    between atoms: C15_24  and  C17_26 
ROOT
HETATM    1  N2  UNL     1       7.402  62.823   3.159  1.00  0.00    -0.355 N 
ENDROOT
BRANCH   1   2
HETATM    2  C6  UNL     1       7.055  61.389   3.118  1.00  0.00     0.086 C 
HETATM    3  C5  UNL     1       8.120  60.523   2.538  1.00  0.00     0.027 C 
HETATM    4  C4  UNL     1       7.970  59.095   3.034  1.00  0.00     0.027 C 
HETATM    5  C3  UNL     1       6.530  58.697   3.166  1.00  0.00     0.084 C 
HETATM    6  C24 UNL     1       5.767  59.591   4.118  1.00  0.00     0.027 C 
HETATM    7  C23 UNL     1       6.600  60.853   4.436  1.00  0.00     0.027 C 
BRANCH   5   8
HETATM    8  N1  UNL     1       6.476  57.343   3.700  1.00  0.00    -0.357 N 
HETATM    9  C2  UNL     1       5.406  56.466   3.297  1.00  0.00     0.213 C 
HETATM   10  C1  UNL     1       5.350  55.107   3.819  1.00  0.00     0.117 C 
HETATM   11  O1  UNL     1       4.514  56.845   2.499  1.00  0.00    -0.274 OA
ATOM     12  H1  UNL     1       7.189  57.019   4.353  1.00  0.00     0.162 HD
ENDBRANCH   5   8
ENDBRANCH   1   2
BRANCH   1  13
HETATM   13  C7  UNL     1       8.644  63.207   2.676  1.00  0.00     0.121 C 
BRANCH  13  14
HETATM   14  O2  UNL     1       9.634  62.969   3.528  1.00  0.00    -0.349 OA
ATOM     15  H2  UNL     1      10.375  62.529   3.129  1.00  0.00     0.219 HD
ENDBRANCH  13  14
BRANCH  13  16
HETATM   16  C8  UNL     1       9.132  63.805   1.466  1.00  0.00     0.106 C 
HETATM   17  C9  UNL     1       8.245  64.017   0.306  1.00  0.00     0.134 C 
HETATM   18  C10 UNL     1       8.731  65.312  -0.387  1.00  0.00     0.035 C 
HETATM   19  O3  UNL     1       8.657  63.119  -0.715  1.00  0.00    -0.379 OA
HETATM   20  C11 UNL     1      10.136  64.875  -0.739  1.00  0.00     0.035 C 
HETATM   21  C12 UNL     1      10.049  63.363  -0.641  1.00  0.00     0.137 C 
HETATM   22  C13 UNL     1      10.269  63.002   0.808  1.00  0.00     0.136 C 
BRANCH  22  23
HETATM   23  C14 UNL     1      11.627  63.492   1.308  1.00  0.00     0.294 C 
HETATM   24  O4  UNL     1      12.575  62.975   0.616  1.00  0.00    -0.257 OA
HETATM   25  N3  UNL     1      11.720  64.335   2.320  1.00  0.00    -0.400 NA
BRANCH  25  26
HETATM   26  C15 UNL     1      11.836  65.235   3.398  1.00  0.00     0.270 C 
HETATM   27  C16 UNL     1      11.262  66.616   3.084  1.00  0.00     0.057 C 
BRANCH  26  28
HETATM   28  C17 UNL     1      13.220  65.318   3.951  1.00  0.00     0.419 C 
HETATM   29  F1  UNL     1      13.570  64.068   4.461  1.00  0.00    -0.168 F 
HETATM   30  F2  UNL     1      13.366  66.256   4.916  1.00  0.00    -0.168 F 
HETATM   31  F3  UNL     1      14.150  65.554   2.939  1.00  0.00    -0.168 F 
ENDBRANCH  26  28
ENDBRANCH  25  26
ENDBRANCH  22  23
ENDBRANCH  13  16
ENDBRANCH   1  13
BRANCH   1  32
HETATM   32  C18 UNL     1       6.370  63.668   3.688  1.00  0.00     0.089 C 
HETATM   33  C19 UNL     1       6.744  65.034   4.113  1.00  0.00     0.044 C 
HETATM   34  C20 UNL     1       5.529  65.579   4.892  1.00  0.00     0.115 C 
HETATM   35  N4  UNL     1       4.448  64.634   4.945  1.00  0.00    -0.421 N 
HETATM   36  C21 UNL     1       3.964  64.167   3.686  1.00  0.00     0.115 C 
ATOM     37  H4  UNL     1       4.050  64.315   5.828  1.00  0.00     0.153 HD
HETATM   38  C22 UNL     1       5.124  63.751   2.790  1.00  0.00     0.044 C 
ENDBRANCH   1  32
TORSDOF 9
ENDMDL
MODEL 5
REMARK VINA RESULT: -8.501861049      1.689      2.185
REMARK  9 active torsions:
REMARK  status: ('A' for Active; 'I' for Inactive)
REMARK       I    between atoms: C2_2  and  N1_4 
REMARK    1  A    between atoms: N1_4  and  C3_6 
REMARK    2  A    between atoms: C6_9  and  N2_10 
REMARK    3  A    between atoms: N2_10  and  C7_11 
REMARK    4  A    between atoms: N2_10  and  C18_30 
REMARK    5  A    between atoms: C7_11  and  O2_12 
REMARK    6  A    between atoms: C7_11  and  C8_14 
REMARK    7  A    between atoms: C13_20  and  C14_21 
REMARK       I    between atoms: C14_21  and  N3_23 
REMARK    8  A    between atoms: N3_23  and  C15_24 
REMARK    9  A    between atoms: C15_24  and  C17_26 
ROOT
HETATM    1  N2  UNL     1       7.522  63.758   2.346  1.00  0.00    -0.355 N 
ENDROOT
BRANCH   1   2
HETATM    2  C6  UNL     1       7.257  62.355   2.717  1.00  0.00     0.086 C 
HETATM    3  C5  UNL     1       7.893  61.356   1.812  1.00  0.00     0.027 C 
HETATM    4  C4  UNL     1       8.076  60.030   2.530  1.00  0.00     0.027 C 
HETATM    5  C3  UNL     1       6.932  59.732   3.454  1.00  0.00     0.084 C 
HETATM    6  C24 UNL     1       6.747  60.800   4.510  1.00  0.00     0.027 C 
HETATM    7  C23 UNL     1       7.578  62.050   4.144  1.00  0.00     0.027 C 
BRANCH   5   8
HETATM    8  N1  UNL     1       7.216  58.480   4.143  1.00  0.00    -0.357 N 
HETATM    9  C2  UNL     1       6.588  57.265   3.687  1.00  0.00     0.213 C 
HETATM   10  C1  UNL     1       6.873  56.007   4.364  1.00  0.00     0.117 C 
HETATM   11  O1  UNL     1       5.797  57.263   2.711  1.00  0.00    -0.274 OA
ATOM     12  H1  UNL     1       7.852  58.463   4.939  1.00  0.00     0.162 HD
ENDBRANCH   5   8
ENDBRANCH   1   2
BRANCH   1  13
HETATM   13  C7  UNL     1       8.263  64.000   1.199  1.00  0.00     0.121 C 
BRANCH  13  14
HETATM   14  O2  UNL     1       7.512  64.235   0.130  1.00  0.00    -0.349 OA
ATOM     15  H2  UNL     1       7.120  65.100   0.130  1.00  0.00     0.219 HD
ENDBRANCH  13  14
BRANCH  13  16
HETATM   16  C8  UNL     1       9.661  64.061   0.877  1.00  0.00     0.106 C 
HETATM   17  C9  UNL     1      10.221  63.284  -0.246  1.00  0.00     0.134 C 
HETATM   18  C10 UNL     1      11.373  64.133  -0.835  1.00  0.00     0.035 C 
HETATM   19  O3  UNL     1      11.037  62.262   0.308  1.00  0.00    -0.379 OA
HETATM   20  C11 UNL     1      12.261  64.204   0.388  1.00  0.00     0.035 C 
HETATM   21  C12 UNL     1      11.744  63.059   1.239  1.00  0.00     0.137 C 
HETATM   22  C13 UNL     1      10.570  63.589   2.026  1.00  0.00     0.136 C 
BRANCH  22  23
HETATM   23  C14 UNL     1      10.972  64.771   2.907  1.00  0.00     0.294 C 
HETATM   24  O4  UNL     1      10.196  65.771   2.700  1.00  0.00    -0.257 OA
HETATM   25  N3  UNL     1      11.993  64.687   3.741  1.00  0.00    -0.400 NA
BRANCH  25  26
HETATM   26  C15 UNL     1      13.078  64.613   4.636  1.00  0.00     0.270 C 
HETATM   27  C16 UNL     1      13.070  65.735   5.673  1.00  0.00     0.057 C 
BRANCH  26  28
HETATM   28  C17 UNL     1      14.400  64.494   3.953  1.00  0.00     0.419 C 
HETATM   29  F1  UNL     1      14.362  65.248   2.780  1.00  0.00    -0.168 F 
HETATM   30  F2  UNL     1      14.749  63.219   3.658  1.00  0.00    -0.168 F 
HETATM   31  F3  UNL     1      15.411  65.082   4.712  1.00  0.00    -0.168 F 
ENDBRANCH  26  28
ENDBRANCH  25  26
ENDBRANCH  22  23
ENDBRANCH  13  16
ENDBRANCH   1  13
BRANCH   1  32
HETATM   32  C18 UNL     1       6.942  64.726   3.232  1.00  0.00     0.089 C 
HETATM   33  C19 UNL     1       7.314  66.145   3.047  1.00  0.00     0.044 C 
HETATM   34  C20 UNL     1       6.788  66.884   4.295  1.00  0.00     0.115 C 
HETATM   35  N4  UNL     1       6.112  66.001   5.205  1.00  0.00    -0.421 N 
HETATM   36  C21 UNL     1       5.018  65.264   4.663  1.00  0.00     0.115 C 
ATOM     37  H4  UNL     1       6.396  65.907   6.180  1.00  0.00     0.153 HD
HETATM   38  C22 UNL     1       5.411  64.623   3.336  1.00  0.00     0.044 C 
ENDBRANCH   1  32
TORSDOF 9
ENDMDL
