MODEL 1
REMARK VINA RESULT: -8.182083929      0.000      0.000
REMARK  8 active torsions:
REMARK  status: ('A' for Active; 'I' for Inactive)
REMARK    1  A    between atoms: C4_4  and  N1_5 
REMARK    2  A    between atoms: N1_5  and  C5_7 
REMARK    3  A    between atoms: C8_10  and  S1_11 
REMARK    4  A    between atoms: S1_11  and  N2_12 
REMARK    5  A    between atoms: C12_20  and  C13_21 
REMARK    6  A    between atoms: C16_27  and  N3_28 
REMARK    7  A    between atoms: N3_28  and  S2_30 
REMARK    8  A    between atoms: S2_30  and  C17_33 
ROOT
HETATM    1  C5  UNL     1       6.595  60.580   2.680  1.00  0.00     0.086 C 
HETATM    2  C6  UNL     1       7.425  59.411   3.115  1.00  0.00     0.027 C 
HETATM    3  C7  UNL     1       6.604  58.671   4.191  1.00  0.00     0.024 C 
HETATM    4  C8  UNL     1       5.489  57.977   3.491  1.00  0.00     0.130 C 
HETATM    5  C9  UNL     1       5.245  58.549   2.099  1.00  0.00     0.034 C 
HETATM    6  C10 UNL     1       5.274  60.032   2.094  1.00  0.00    -0.006 A 
HETATM    7  C11 UNL     1       4.048  60.846   2.450  1.00  0.00     0.026 A 
HETATM    8  C12 UNL     1       4.647  60.853   1.052  1.00  0.00     0.104 A 
ENDROOT
BRANCH   1   9
HETATM    9  N1  UNL     1       7.162  61.384   1.714  1.00  0.00    -0.412 N 
ATOM     10  H1  UNL     1       6.844  61.221   0.759  1.00  0.00     0.154 HD
BRANCH   9  11
HETATM   11  C4  UNL     1       8.101  62.379   1.869  1.00  0.00     0.077 C 
HETATM   12  C3  UNL     1       9.169  62.595   0.846  1.00  0.00     0.031 C 
HETATM   13  C2  UNL     1      10.586  62.430   1.409  1.00  0.00     0.007 C 
HETATM   14  C1  UNL     1      11.536  62.477   0.258  1.00  0.00     0.012 C 
HETATM   15  C16 UNL     1      10.797  63.509   2.426  1.00  0.00     0.096 C 
HETATM   16  C15 UNL     1       9.548  63.727   3.278  1.00  0.00     0.028 C 
HETATM   17  C14 UNL     1       8.768  62.430   3.241  1.00  0.00     0.027 C 
BRANCH  15  18
HETATM   18  N3  UNL     1      11.133  64.778   1.878  1.00  0.00    -0.314 N 
ATOM     19  H3  UNL     1      10.585  65.244   1.154  1.00  0.00     0.172 HD
BRANCH  18  20
HETATM   20  S2  UNL     1      12.542  65.434   2.558  1.00  0.00     0.231 S 
HETATM   21  O3  UNL     1      12.208  66.832   3.047  1.00  0.00    -0.206 OA
HETATM   22  O4  UNL     1      13.579  65.578   1.459  1.00  0.00    -0.206 OA
BRANCH  20  23
HETATM   23  C17 UNL     1      13.233  64.462   3.852  1.00  0.00     0.129 A 
HETATM   24  C18 UNL     1      13.892  65.181   5.002  1.00  0.00     0.023 A 
HETATM   25  C19 UNL     1      14.705  64.433   4.003  1.00  0.00     0.023 A 
ENDBRANCH  20  23
ENDBRANCH  18  20
ENDBRANCH  15  18
ENDBRANCH   9  11
ENDBRANCH   1   9
BRANCH   8  26
HETATM   26  C13 UNL     1       3.750  60.288  -0.011  1.00  0.00     0.392 C 
HETATM   27  F1  UNL     1       3.269  61.346  -0.759  1.00  0.00    -0.171 F 
HETATM   28  F2  UNL     1       2.646  59.638   0.501  1.00  0.00    -0.171 F 
HETATM   29  F3  UNL     1       4.462  59.484  -0.901  1.00  0.00    -0.171 F 
ENDBRANCH   8  26
BRANCH   4  30
HETATM   30  S1  UNL     1       5.919  56.258   3.319  1.00  0.00     0.228 S 
HETATM   31  O1  UNL     1       6.191  55.907   1.884  1.00  0.00    -0.206 OA
HETATM   32  O2  UNL     1       4.767  55.413   3.778  1.00  0.00    -0.206 OA
BRANCH  30  33
HETATM   33  N2  UNL     1       7.342  55.890   4.238  1.00  0.00    -0.328 N 
ATOM     34  H22 UNL     1       7.345  55.743   5.247  1.00  0.00     0.168 HD
ATOM     35  H21 UNL     1       8.160  55.842   3.630  1.00  0.00     0.168 HD
ENDBRANCH  30  33
ENDBRANCH   4  30
TORSDOF 8
ENDMDL
MODEL 2
REMARK VINA RESULT: -8.062205229      0.768      1.467
REMARK  8 active torsions:
REMARK  status: ('A' for Active; 'I' for Inactive)
REMARK    1  A    between atoms: C4_4  and  N1_5 
REMARK    2  A    between atoms: N1_5  and  C5_7 
REMARK    3  A    between atoms: C8_10  and  S1_11 
REMARK    4  A    between atoms: S1_11  and  N2_12 
REMARK    5  A    between atoms: C12_20  and  C13_21 
REMARK    6  A    between atoms: C16_27  and  N3_28 
REMARK    7  A    between atoms: N3_28  and  S2_30 
REMARK    8  A    between atoms: S2_30  and  C17_33 
ROOT
HETATM    1  C5  UNL     1       6.878  60.557   2.713  1.00  0.00     0.086 C 
HETATM    2  C6  UNL     1       7.512  59.334   3.303  1.00  0.00     0.027 C 
HETATM    3  C7  UNL     1       6.438  58.675   4.193  1.00  0.00     0.024 C 
HETATM    4  C8  UNL     1       5.434  58.058   3.283  1.00  0.00     0.130 C 
HETATM    5  C9  UNL     1       5.517  58.627   1.871  1.00  0.00     0.034 C 
HETATM    6  C10 UNL     1       5.662  60.103   1.874  1.00  0.00    -0.006 A 
HETATM    7  C11 UNL     1       4.457  61.013   1.979  1.00  0.00     0.026 A 
HETATM    8  C12 UNL     1       5.321  60.954   0.728  1.00  0.00     0.104 A 
ENDROOT
BRANCH   1   9
HETATM    9  N1  UNL     1       7.687  61.302   1.880  1.00  0.00    -0.412 N 
ATOM     10  H1  UNL     1       7.365  61.397   0.918  1.00  0.00     0.154 HD
BRANCH   9  11
HETATM   11  C4  UNL     1       8.873  61.935   2.178  1.00  0.00     0.077 C 
HETATM   12  C3  UNL     1       8.908  63.105   3.107  1.00  0.00     0.031 C 
HETATM   13  C2  UNL     1       9.449  64.382   2.450  1.00  0.00     0.007 C 
HETATM   14  C1  UNL     1       9.248  65.504   3.414  1.00  0.00     0.012 C 
HETATM   15  C16 UNL     1      10.880  64.130   2.087  1.00  0.00     0.096 C 
HETATM   16  C15 UNL     1      11.077  62.721   1.531  1.00  0.00     0.028 C 
HETATM   17  C14 UNL     1       9.739  62.286   0.972  1.00  0.00     0.027 C 
BRANCH  15  18
HETATM   18  N3  UNL     1      11.795  64.265   3.167  1.00  0.00    -0.314 N 
ATOM     19  H3  UNL     1      11.722  63.740   4.039  1.00  0.00     0.172 HD
BRANCH  18  20
HETATM   20  S2  UNL     1      13.022  65.394   2.851  1.00  0.00     0.231 S 
HETATM   21  O3  UNL     1      12.478  66.771   3.185  1.00  0.00    -0.206 OA
HETATM   22  O4  UNL     1      13.314  65.375   1.362  1.00  0.00    -0.206 OA
BRANCH  20  23
HETATM   23  C17 UNL     1      14.523  65.082   3.716  1.00  0.00     0.129 A 
HETATM   24  C18 UNL     1      14.784  63.677   4.195  1.00  0.00     0.023 A 
HETATM   25  C19 UNL     1      14.450  64.762   5.159  1.00  0.00     0.023 A 
ENDBRANCH  20  23
ENDBRANCH  18  20
ENDBRANCH  15  18
ENDBRANCH   9  11
ENDBRANCH   1   9
BRANCH   8  26
HETATM   26  C13 UNL     1       4.613  60.444  -0.493  1.00  0.00     0.392 C 
HETATM   27  F1  UNL     1       4.271  61.539  -1.266  1.00  0.00    -0.171 F 
HETATM   28  F2  UNL     1       3.435  59.788  -0.201  1.00  0.00    -0.171 F 
HETATM   29  F3  UNL     1       5.460  59.669  -1.284  1.00  0.00    -0.171 F 
ENDBRANCH   8  26
BRANCH   4  30
HETATM   30  S1  UNL     1       5.756  56.309   3.198  1.00  0.00     0.228 S 
HETATM   31  O1  UNL     1       6.051  55.879   1.790  1.00  0.00    -0.206 OA
HETATM   32  O2  UNL     1       4.536  55.561   3.650  1.00  0.00    -0.206 OA
BRANCH  30  33
HETATM   33  N2  UNL     1       7.119  55.890   4.182  1.00  0.00    -0.328 N 
ATOM     34  H22 UNL     1       7.978  56.438   4.226  1.00  0.00     0.168 HD
ATOM     35  H21 UNL     1       6.939  55.030   4.700  1.00  0.00     0.168 HD
ENDBRANCH  30  33
ENDBRANCH   4  30
TORSDOF 8
ENDMDL
MODEL 3
REMARK VINA RESULT: -8.054658937      3.417      4.109
REMARK  8 active torsions:
REMARK  status: ('A' for Active; 'I' for Inactive)
REMARK    1  A    between atoms: C4_4  and  N1_5 
REMARK    2  A    between atoms: N1_5  and  C5_7 
REMARK    3  A    between atoms: C8_10  and  S1_11 
REMARK    4  A    between atoms: S1_11  and  N2_12 
REMARK    5  A    between atoms: C12_20  and  C13_21 
REMARK    6  A    between atoms: C16_27  and  N3_28 
REMARK    7  A    between atoms: N3_28  and  S2_30 
REMARK    8  A    between atoms: S2_30  and  C17_33 
ROOT
HETATM    1  C5  UNL     1       5.963  61.578   1.077  1.00  0.00     0.086 C 
HETATM    2  C6  UNL     1       5.372  62.908   1.434  1.00  0.00     0.027 C 
HETATM    3  C7  UNL     1       3.844  62.702   1.496  1.00  0.00     0.024 C 
HETATM    4  C8  UNL     1       3.557  61.927   2.734  1.00  0.00     0.130 C 
HETATM    5  C9  UNL     1       4.800  61.225   3.270  1.00  0.00     0.034 C 
HETATM    6  C10 UNL     1       5.581  60.575   2.190  1.00  0.00    -0.006 A 
HETATM    7  C11 UNL     1       5.233  59.191   1.688  1.00  0.00     0.026 A 
HETATM    8  C12 UNL     1       6.533  59.483   2.421  1.00  0.00     0.104 A 
ENDROOT
BRANCH   1   9
HETATM    9  N1  UNL     1       7.338  61.551   0.964  1.00  0.00    -0.412 N 
ATOM     10  H1  UNL     1       7.729  60.720   0.521  1.00  0.00     0.154 HD
BRANCH   9  11
HETATM   11  C4  UNL     1       8.250  62.498   1.370  1.00  0.00     0.077 C 
HETATM   12  C3  UNL     1       9.143  63.179   0.383  1.00  0.00     0.031 C 
HETATM   13  C2  UNL     1      10.634  62.948   0.657  1.00  0.00     0.007 C 
HETATM   14  C1  UNL     1      11.397  63.510  -0.497  1.00  0.00     0.012 C 
HETATM   15  C16 UNL     1      10.955  63.583   1.976  1.00  0.00     0.096 C 
HETATM   16  C15 UNL     1       9.841  63.350   2.995  1.00  0.00     0.028 C 
HETATM   17  C14 UNL     1       9.115  62.094   2.561  1.00  0.00     0.027 C 
BRANCH  15  18
HETATM   18  N3  UNL     1      11.155  64.990   1.918  1.00  0.00    -0.314 N 
ATOM     19  H3  UNL     1      10.506  65.636   1.467  1.00  0.00     0.172 HD
BRANCH  18  20
HETATM   20  S2  UNL     1      12.590  65.480   2.681  1.00  0.00     0.231 S 
HETATM   21  O3  UNL     1      12.342  66.850   3.287  1.00  0.00    -0.206 OA
HETATM   22  O4  UNL     1      13.661  65.645   1.620  1.00  0.00    -0.206 OA
BRANCH  20  23
HETATM   23  C17 UNL     1      13.177  64.350   3.896  1.00  0.00     0.129 A 
HETATM   24  C18 UNL     1      14.133  64.868   4.940  1.00  0.00     0.023 A 
HETATM   25  C19 UNL     1      14.603  63.955   3.860  1.00  0.00     0.023 A 
ENDBRANCH  20  23
ENDBRANCH  18  20
ENDBRANCH  15  18
ENDBRANCH   9  11
ENDBRANCH   1   9
BRANCH   8  26
HETATM   26  C13 UNL     1       6.674  58.781   3.740  1.00  0.00     0.392 C 
HETATM   27  F1  UNL     1       7.821  58.010   3.683  1.00  0.00    -0.171 F 
HETATM   28  F2  UNL     1       5.634  57.915   4.007  1.00  0.00    -0.171 F 
HETATM   29  F3  UNL     1       6.878  59.689   4.779  1.00  0.00    -0.171 F 
ENDBRANCH   8  26
BRANCH   4  30
HETATM   30  S1  UNL     1       2.975  63.058   3.980  1.00  0.00     0.228 S 
HETATM   31  O1  UNL     1       2.904  64.460   3.450  1.00  0.00    -0.206 OA
HETATM   32  O2  UNL     1       3.938  63.061   5.131  1.00  0.00    -0.206 OA
BRANCH  30  33
HETATM   33  N2  UNL     1       1.391  62.609   4.520  1.00  0.00    -0.328 N 
ATOM     34  H22 UNL     1       1.213  61.966   5.291  1.00  0.00     0.168 HD
ATOM     35  H21 UNL     1       0.675  63.074   3.961  1.00  0.00     0.168 HD
ENDBRANCH  30  33
ENDBRANCH   4  30
TORSDOF 8
ENDMDL
MODEL 4
REMARK VINA RESULT: -7.831262981      3.556      4.325
REMARK  8 active torsions:
REMARK  status: ('A' for Active; 'I' for Inactive)
REMARK    1  A    between atoms: C4_4  and  N1_5 
REMARK    2  A    between atoms: N1_5  and  C5_7 
REMARK    3  A    between atoms: C8_10  and  S1_11 
REMARK    4  A    between atoms: S1_11  and  N2_12 
REMARK    5  A    between atoms: C12_20  and  C13_21 
REMARK    6  A    between atoms: C16_27  and  N3_28 
REMARK    7  A    between atoms: N3_28  and  S2_30 
REMARK    8  A    between atoms: S2_30  and  C17_33 
ROOT
HETATM    1  C5  UNL     1       5.744  61.941   1.372  1.00  0.00     0.086 C 
HETATM    2  C6  UNL     1       5.359  63.282   1.918  1.00  0.00     0.027 C 
HETATM    3  C7  UNL     1       3.859  63.194   2.270  1.00  0.00     0.024 C 
HETATM    4  C8  UNL     1       3.745  62.352   3.491  1.00  0.00     0.130 C 
HETATM    5  C9  UNL     1       4.997  61.515   3.728  1.00  0.00     0.034 C 
HETATM    6  C10 UNL     1       5.492  60.889   2.477  1.00  0.00    -0.006 A 
HETATM    7  C11 UNL     1       4.926  59.579   1.974  1.00  0.00     0.026 A 
HETATM    8  C12 UNL     1       6.365  59.710   2.450  1.00  0.00     0.104 A 
ENDROOT
BRANCH   1   9
HETATM    9  N1  UNL     1       7.062  61.813   0.987  1.00  0.00    -0.412 N 
ATOM     10  H1  UNL     1       7.273  61.015   0.388  1.00  0.00     0.154 HD
BRANCH   9  11
HETATM   11  C4  UNL     1       8.130  62.621   1.304  1.00  0.00     0.077 C 
HETATM   12  C3  UNL     1       8.929  63.294   0.235  1.00  0.00     0.031 C 
HETATM   13  C2  UNL     1      10.409  62.887   0.241  1.00  0.00     0.007 C 
HETATM   14  C1  UNL     1      11.041  63.471  -0.979  1.00  0.00     0.012 C 
HETATM   15  C16 UNL     1      11.003  63.365   1.531  1.00  0.00     0.096 C 
HETATM   16  C15 UNL     1      10.043  63.156   2.701  1.00  0.00     0.028 C 
HETATM   17  C14 UNL     1       9.118  62.025   2.303  1.00  0.00     0.027 C 
BRANCH  15  18
HETATM   18  N3  UNL     1      11.353  64.744   1.543  1.00  0.00    -0.314 N 
ATOM     19  H3  UNL     1      10.788  65.474   1.109  1.00  0.00     0.172 HD
BRANCH  18  20
HETATM   20  S2  UNL     1      12.811  65.043   2.359  1.00  0.00     0.231 S 
HETATM   21  O3  UNL     1      13.786  65.629   1.355  1.00  0.00    -0.206 OA
HETATM   22  O4  UNL     1      13.381  63.714   2.818  1.00  0.00    -0.206 OA
BRANCH  20  23
HETATM   23  C17 UNL     1      12.644  66.092   3.762  1.00  0.00     0.129 A 
HETATM   24  C18 UNL     1      11.469  65.865   4.680  1.00  0.00     0.023 A 
HETATM   25  C19 UNL     1      11.525  67.059   3.791  1.00  0.00     0.023 A 
ENDBRANCH  20  23
ENDBRANCH  18  20
ENDBRANCH  15  18
ENDBRANCH   9  11
ENDBRANCH   1   9
BRANCH   8  26
HETATM   26  C13 UNL     1       6.691  58.901   3.671  1.00  0.00     0.392 C 
HETATM   27  F1  UNL     1       7.900  58.269   3.443  1.00  0.00    -0.171 F 
HETATM   28  F2  UNL     1       5.771  57.905   3.923  1.00  0.00    -0.171 F 
HETATM   29  F3  UNL     1       6.894  59.718   4.782  1.00  0.00    -0.171 F 
ENDBRANCH   8  26
BRANCH   4  30
HETATM   30  S1  UNL     1       3.521  63.427   4.894  1.00  0.00     0.228 S 
HETATM   31  O1  UNL     1       2.274  63.077   5.653  1.00  0.00    -0.206 OA
HETATM   32  O2  UNL     1       3.371  64.841   4.412  1.00  0.00    -0.206 OA
BRANCH  30  33
HETATM   33  N2  UNL     1       4.864  63.299   5.981  1.00  0.00    -0.328 N 
ATOM     34  H22 UNL     1       5.784  62.952   5.710  1.00  0.00     0.168 HD
ATOM     35  H21 UNL     1       4.602  63.616   6.915  1.00  0.00     0.168 HD
ENDBRANCH  30  33
ENDBRANCH   4  30
TORSDOF 8
ENDMDL
MODEL 5
REMARK VINA RESULT: -7.771643557      2.813      3.374
REMARK  8 active torsions:
REMARK  status: ('A' for Active; 'I' for Inactive)
REMARK    1  A    between atoms: C4_4  and  N1_5 
REMARK    2  A    between atoms: N1_5  and  C5_7 
REMARK    3  A    between atoms: C8_10  and  S1_11 
REMARK    4  A    between atoms: S1_11  and  N2_12 
REMARK    5  A    between atoms: C12_20  and  C13_21 
REMARK    6  A    between atoms: C16_27  and  N3_28 
REMARK    7  A    between atoms: N3_28  and  S2_30 
REMARK    8  A    between atoms: S2_30  and  C17_33 
ROOT
HETATM    1  C5  UNL     1       6.511  61.573   0.758  1.00  0.00     0.086 C 
HETATM    2  C6  UNL     1       5.306  61.327  -0.098  1.00  0.00     0.027 C 
HETATM    3  C7  UNL     1       5.328  59.827  -0.457  1.00  0.00     0.024 C 
HETATM    4  C8  UNL     1       4.956  59.076   0.773  1.00  0.00     0.130 C 
HETATM    5  C9  UNL     1       5.115  59.925   2.030  1.00  0.00     0.034 C 
HETATM    6  C10 UNL     1       6.382  60.695   2.024  1.00  0.00    -0.006 A 
HETATM    7  C11 UNL     1       7.683  60.077   2.490  1.00  0.00     0.026 A 
HETATM    8  C12 UNL     1       7.017  61.223   3.236  1.00  0.00     0.104 A 
ENDROOT
BRANCH   1   9
HETATM    9  N1  UNL     1       6.680  62.874   1.185  1.00  0.00    -0.412 N 
ATOM     10  H1  UNL     1       5.825  63.378   1.418  1.00  0.00     0.154 HD
BRANCH   9  11
HETATM   11  C4  UNL     1       7.851  63.581   1.338  1.00  0.00     0.077 C 
HETATM   12  C3  UNL     1       9.121  63.111   0.706  1.00  0.00     0.031 C 
HETATM   13  C2  UNL     1      10.232  62.823   1.724  1.00  0.00     0.007 C 
HETATM   14  C1  UNL     1      11.363  62.183   0.988  1.00  0.00     0.012 C 
HETATM   15  C16 UNL     1      10.584  64.120   2.386  1.00  0.00     0.096 C 
HETATM   16  C15 UNL     1       9.338  64.956   2.677  1.00  0.00     0.028 C 
HETATM   17  C14 UNL     1       8.180  63.986   2.772  1.00  0.00     0.027 C 
BRANCH  15  18
HETATM   18  N3  UNL     1      11.454  64.951   1.629  1.00  0.00    -0.314 N 
ATOM     19  H3  UNL     1      11.276  65.225   0.663  1.00  0.00     0.172 HD
BRANCH  18  20
HETATM   20  S2  UNL     1      12.822  65.441   2.507  1.00  0.00     0.231 S 
HETATM   21  O3  UNL     1      12.505  66.783   3.141  1.00  0.00    -0.206 OA
HETATM   22  O4  UNL     1      13.961  65.663   1.529  1.00  0.00    -0.206 OA
BRANCH  20  23
HETATM   23  C17 UNL     1      13.348  64.279   3.720  1.00  0.00     0.129 A 
HETATM   24  C18 UNL     1      13.989  64.810   4.977  1.00  0.00     0.023 A 
HETATM   25  C19 UNL     1      14.800  64.104   3.946  1.00  0.00     0.023 A 
ENDBRANCH  20  23
ENDBRANCH  18  20
ENDBRANCH  15  18
ENDBRANCH   9  11
ENDBRANCH   1   9
BRANCH   8  26
HETATM   26  C13 UNL     1       6.556  60.877   4.622  1.00  0.00     0.392 C 
HETATM   27  F1  UNL     1       5.274  61.373   4.774  1.00  0.00    -0.171 F 
HETATM   28  F2  UNL     1       7.321  61.463   5.610  1.00  0.00    -0.171 F 
HETATM   29  F3  UNL     1       6.452  59.497   4.793  1.00  0.00    -0.171 F 
ENDBRANCH   8  26
BRANCH   4  30
HETATM   30  S1  UNL     1       3.246  58.595   0.639  1.00  0.00     0.228 S 
HETATM   31  O1  UNL     1       2.642  59.088  -0.644  1.00  0.00    -0.206 OA
HETATM   32  O2  UNL     1       2.471  59.211   1.767  1.00  0.00    -0.206 OA
BRANCH  30  33
HETATM   33  N2  UNL     1       3.093  56.869   0.674  1.00  0.00    -0.328 N 
ATOM     34  H22 UNL     1       3.128  56.312   1.527  1.00  0.00     0.168 HD
ATOM     35  H21 UNL     1       2.966  56.500  -0.269  1.00  0.00     0.168 HD
ENDBRANCH  30  33
ENDBRANCH   4  30
TORSDOF 8
ENDMDL
