MODEL 1
REMARK VINA RESULT: -9.334938748      0.000      0.000
REMARK  10 active torsions:
REMARK  status: ('A' for Active; 'I' for Inactive)
REMARK    1  A    between atoms: N1_2  and  C2_5 
REMARK    2  A    between atoms: C2_5  and  C4_7 
REMARK       I    between atoms: C4_7  and  N2_9 
REMARK    3  A    between atoms: N2_9  and  C5_11 
REMARK    4  A    between atoms: C5_11  and  C6_12 
REMARK    5  A    between atoms: N3_21  and  C14_22 
REMARK    6  A    between atoms: C14_22  and  O3_23 
REMARK    7  A    between atoms: C14_22  and  N4_25 
REMARK    8  A    between atoms: C17_30  and  O4_31 
REMARK    9  A    between atoms: C17_30  and  C18_33 
REMARK   10  A    between atoms: C18_33  and  C19_34 
ROOT
HETATM    1  C6  UNL     1      10.836  65.180   2.213  1.00  0.00     0.147 C 
HETATM    2  O2  UNL     1      10.260  66.448   2.185  1.00  0.00    -0.359 OA
HETATM    3  C7  UNL     1       8.959  66.351   2.806  1.00  0.00     0.227 C 
HETATM    4  C8  UNL     1       8.157  67.407   2.063  1.00  0.00     0.054 C 
HETATM    5  C9  UNL     1       7.505  66.827   0.830  1.00  0.00     0.006 C 
HETATM    6  C10 UNL     1       8.361  65.764   0.185  1.00  0.00     0.026 C 
HETATM    7  C11 UNL     1       8.774  64.653   1.070  1.00  0.00     0.096 C 
HETATM    8  C12 UNL     1      10.261  64.395   1.073  1.00  0.00     0.035 C 
HETATM    9  C13 UNL     1      10.489  62.919   1.186  1.00  0.00     0.015 C 
HETATM   10  N3  UNL     1       8.439  65.063   2.480  1.00  0.00    -0.316 N 
ENDROOT
BRANCH  10  11
HETATM   11  C14 UNL     1       7.685  64.154   3.237  1.00  0.00     0.220 C 
BRANCH  11  12
HETATM   12  O3  UNL     1       7.184  64.602   4.370  1.00  0.00    -0.332 OA
ATOM     13  H3  UNL     1       6.663  63.990   4.876  1.00  0.00     0.220 HD
ENDBRANCH  11  12
BRANCH  11  14
HETATM   14  N4  UNL     1       7.355  62.810   3.000  1.00  0.00    -0.336 N 
HETATM   15  C15 UNL     1       8.111  61.734   3.532  1.00  0.00     0.209 C 
HETATM   16  C16 UNL     1       7.579  60.357   3.420  1.00  0.00     0.295 C 
HETATM   17  F1  UNL     1       7.342  59.799   4.673  1.00  0.00    -0.201 F 
HETATM   18  F2  UNL     1       8.440  59.473   2.789  1.00  0.00    -0.201 F 
HETATM   19  C17 UNL     1       6.223  60.253   2.693  1.00  0.00     0.192 C 
HETATM   20  C22 UNL     1       6.343  61.189   1.542  1.00  0.00     0.295 C 
HETATM   21  F3  UNL     1       5.522  61.006   0.487  1.00  0.00    -0.201 F 
HETATM   22  F4  UNL     1       7.651  61.191   1.030  1.00  0.00    -0.201 F 
HETATM   23  C23 UNL     1       6.171  62.589   2.150  1.00  0.00     0.209 C 
BRANCH  19  24
HETATM   24  O4  UNL     1       5.301  60.767   3.610  1.00  0.00    -0.378 OA
ATOM     25  H4  UNL     1       4.783  61.379   3.101  1.00  0.00     0.211 HD
ENDBRANCH  19  24
BRANCH  19  26
HETATM   26  C18 UNL     1       6.028  58.818   2.405  1.00  0.00     0.055 C 
BRANCH  26  27
HETATM   27  C19 UNL     1       5.782  57.894   3.540  1.00  0.00    -0.011 A 
HETATM   28  C20 UNL     1       5.537  56.441   3.065  1.00  0.00     0.005 A 
HETATM   29  C21 UNL     1       6.733  56.801   3.879  1.00  0.00     0.005 A 
ENDBRANCH  26  27
ENDBRANCH  19  26
ENDBRANCH  11  14
ENDBRANCH  10  11
BRANCH   1  30
HETATM   30  C5  UNL     1      12.314  65.293   2.236  1.00  0.00     0.155 C 
BRANCH  30  31
HETATM   31  N2  UNL     1      12.867  65.518   3.550  1.00  0.00    -0.357 N 
HETATM   32  C4  UNL     1      13.928  64.699   4.056  1.00  0.00     0.248 C 
HETATM   33  O1  UNL     1      14.347  63.782   3.289  1.00  0.00    -0.271 OA
ATOM     34  H2  UNL     1      12.496  66.272   4.128  1.00  0.00     0.162 HD
BRANCH  32  35
HETATM   35  C2  UNL     1      14.520  64.895   5.401  1.00  0.00     0.272 C 
HETATM   36  C3  UNL     1      15.285  63.708   5.886  1.00  0.00     0.050 C 
BRANCH  35  37
HETATM   37  N1  UNL     1      13.468  65.311   6.300  1.00  0.00    -0.067 N 
HETATM   38  C1  UNL     1      13.715  64.883   7.665  1.00  0.00     0.267 C 
ATOM     39  H12 UNL     1      12.555  64.994   5.972  1.00  0.00     0.277 HD
ATOM     40  H11 UNL     1      13.316  66.318   6.250  1.00  0.00     0.277 HD
ENDBRANCH  35  37
ENDBRANCH  32  35
ENDBRANCH  30  31
ENDBRANCH   1  30
TORSDOF 10
ENDMDL
MODEL 2
REMARK VINA RESULT: -9.305434508      0.898      1.813
REMARK  10 active torsions:
REMARK  status: ('A' for Active; 'I' for Inactive)
REMARK    1  A    between atoms: N1_2  and  C2_5 
REMARK    2  A    between atoms: C2_5  and  C4_7 
REMARK       I    between atoms: C4_7  and  N2_9 
REMARK    3  A    between atoms: N2_9  and  C5_11 
REMARK    4  A    between atoms: C5_11  and  C6_12 
REMARK    5  A    between atoms: N3_21  and  C14_22 
REMARK    6  A    between atoms: C14_22  and  O3_23 
REMARK    7  A    between atoms: C14_22  and  N4_25 
REMARK    8  A    between atoms: C17_30  and  O4_31 
REMARK    9  A    between atoms: C17_30  and  C18_33 
REMARK   10  A    between atoms: C18_33  and  C19_34 
ROOT
HETATM    1  C6  UNL     1      10.813  64.770   2.409  1.00  0.00     0.147 C 
HETATM    2  O2  UNL     1      10.382  66.091   2.312  1.00  0.00    -0.359 OA
HETATM    3  C7  UNL     1       9.059  66.163   2.891  1.00  0.00     0.227 C 
HETATM    4  C8  UNL     1       8.403  67.269   2.081  1.00  0.00     0.054 C 
HETATM    5  C9  UNL     1       7.727  66.713   0.849  1.00  0.00     0.006 C 
HETATM    6  C10 UNL     1       8.479  65.536   0.275  1.00  0.00     0.026 C 
HETATM    7  C11 UNL     1       8.740  64.425   1.216  1.00  0.00     0.096 C 
HETATM    8  C12 UNL     1      10.188  64.006   1.280  1.00  0.00     0.035 C 
HETATM    9  C13 UNL     1      10.248  62.519   1.458  1.00  0.00     0.015 C 
HETATM   10  N3  UNL     1       8.410  64.927   2.597  1.00  0.00    -0.316 N 
ENDROOT
BRANCH  10  11
HETATM   11  C14 UNL     1       7.538  64.140   3.362  1.00  0.00     0.220 C 
BRANCH  11  12
HETATM   12  O3  UNL     1       7.038  64.694   4.447  1.00  0.00    -0.332 OA
ATOM     13  H3  UNL     1       7.567  64.642   5.234  1.00  0.00     0.220 HD
ENDBRANCH  11  12
BRANCH  11  14
HETATM   14  N4  UNL     1       7.084  62.824   3.177  1.00  0.00    -0.336 N 
HETATM   15  C15 UNL     1       6.203  62.461   2.126  1.00  0.00     0.209 C 
HETATM   16  C16 UNL     1       5.944  61.026   1.868  1.00  0.00     0.295 C 
HETATM   17  F1  UNL     1       6.378  60.651   0.599  1.00  0.00    -0.201 F 
HETATM   18  F2  UNL     1       4.602  60.684   1.905  1.00  0.00    -0.201 F 
HETATM   19  C17 UNL     1       6.677  60.062   2.823  1.00  0.00     0.192 C 
HETATM   20  C22 UNL     1       6.551  60.697   4.163  1.00  0.00     0.295 C 
HETATM   21  F3  UNL     1       6.692  59.914   5.252  1.00  0.00    -0.201 F 
HETATM   22  F4  UNL     1       5.311  61.344   4.299  1.00  0.00    -0.201 F 
HETATM   23  C23 UNL     1       7.577  61.841   4.158  1.00  0.00     0.209 C 
BRANCH  19  24
HETATM   24  O4  UNL     1       8.012  60.120   2.410  1.00  0.00    -0.378 OA
ATOM     25  H4  UNL     1       8.397  59.325   2.760  1.00  0.00     0.211 HD
ENDBRANCH  19  24
BRANCH  19  26
HETATM   26  C18 UNL     1       6.054  58.740   2.618  1.00  0.00     0.055 C 
BRANCH  26  27
HETATM   27  C19 UNL     1       6.089  57.758   3.730  1.00  0.00    -0.011 A 
HETATM   28  C20 UNL     1       6.126  56.298   3.218  1.00  0.00     0.005 A 
HETATM   29  C21 UNL     1       7.272  56.888   3.969  1.00  0.00     0.005 A 
ENDBRANCH  26  27
ENDBRANCH  19  26
ENDBRANCH  11  14
ENDBRANCH  10  11
BRANCH   1  30
HETATM   30  C5  UNL     1      12.292  64.721   2.477  1.00  0.00     0.155 C 
BRANCH  30  31
HETATM   31  N2  UNL     1      12.831  65.016   3.784  1.00  0.00    -0.357 N 
HETATM   32  C4  UNL     1      14.121  64.535   4.178  1.00  0.00     0.248 C 
HETATM   33  O1  UNL     1      14.753  63.848   3.321  1.00  0.00    -0.271 OA
ATOM     34  H2  UNL     1      12.284  65.577   4.437  1.00  0.00     0.162 HD
BRANCH  32  35
HETATM   35  C2  UNL     1      14.707  64.812   5.511  1.00  0.00     0.272 C 
HETATM   36  C3  UNL     1      15.346  63.615   6.134  1.00  0.00     0.050 C 
BRANCH  35  37
HETATM   37  N1  UNL     1      13.686  65.416   6.335  1.00  0.00    -0.067 N 
HETATM   38  C1  UNL     1      13.697  64.894   7.690  1.00  0.00     0.267 C 
ATOM     39  H12 UNL     1      12.763  65.321   5.910  1.00  0.00     0.277 HD
ATOM     40  H11 UNL     1      13.761  66.433   6.330  1.00  0.00     0.277 HD
ENDBRANCH  35  37
ENDBRANCH  32  35
ENDBRANCH  30  31
ENDBRANCH   1  30
TORSDOF 10
ENDMDL
MODEL 3
REMARK VINA RESULT: -9.156680225      1.370      2.070
REMARK  10 active torsions:
REMARK  status: ('A' for Active; 'I' for Inactive)
REMARK    1  A    between atoms: N1_2  and  C2_5 
REMARK    2  A    between atoms: C2_5  and  C4_7 
REMARK       I    between atoms: C4_7  and  N2_9 
REMARK    3  A    between atoms: N2_9  and  C5_11 
REMARK    4  A    between atoms: C5_11  and  C6_12 
REMARK    5  A    between atoms: N3_21  and  C14_22 
REMARK    6  A    between atoms: C14_22  and  O3_23 
REMARK    7  A    between atoms: C14_22  and  N4_25 
REMARK    8  A    between atoms: C17_30  and  O4_31 
REMARK    9  A    between atoms: C17_30  and  C18_33 
REMARK   10  A    between atoms: C18_33  and  C19_34 
ROOT
HETATM    1  C6  UNL     1      10.016  64.449   2.209  1.00  0.00     0.147 C 
HETATM    2  O2  UNL     1       9.853  65.816   2.421  1.00  0.00    -0.359 OA
HETATM    3  C7  UNL     1       8.489  66.034   2.846  1.00  0.00     0.227 C 
HETATM    4  C8  UNL     1       8.186  67.416   2.292  1.00  0.00     0.054 C 
HETATM    5  C9  UNL     1       7.633  67.331   0.889  1.00  0.00     0.006 C 
HETATM    6  C10 UNL     1       8.243  66.191   0.110  1.00  0.00     0.026 C 
HETATM    7  C11 UNL     1       8.140  64.858   0.742  1.00  0.00     0.096 C 
HETATM    8  C12 UNL     1       9.457  64.131   0.854  1.00  0.00     0.035 C 
HETATM    9  C13 UNL     1       9.216  62.669   0.634  1.00  0.00     0.015 C 
HETATM   10  N3  UNL     1       7.683  65.076   2.161  1.00  0.00    -0.316 N 
ENDROOT
BRANCH  10  11
HETATM   11  C14 UNL     1       6.569  64.337   2.584  1.00  0.00     0.220 C 
BRANCH  11  12
HETATM   12  O3  UNL     1       5.413  64.968   2.597  1.00  0.00    -0.332 OA
ATOM     13  H3  UNL     1       4.735  64.625   2.026  1.00  0.00     0.220 HD
ENDBRANCH  11  12
BRANCH  11  14
HETATM   14  N4  UNL     1       6.456  63.005   3.012  1.00  0.00    -0.336 N 
HETATM   15  C15 UNL     1       5.631  62.059   2.352  1.00  0.00     0.209 C 
HETATM   16  C16 UNL     1       5.731  60.630   2.728  1.00  0.00     0.295 C 
HETATM   17  F1  UNL     1       6.163  59.851   1.658  1.00  0.00    -0.201 F 
HETATM   18  F2  UNL     1       4.527  60.068   3.120  1.00  0.00    -0.201 F 
HETATM   19  C17 UNL     1       6.747  60.335   3.850  1.00  0.00     0.192 C 
HETATM   20  C22 UNL     1       6.551  61.436   4.832  1.00  0.00     0.295 C 
HETATM   21  F3  UNL     1       6.959  61.235   6.102  1.00  0.00    -0.201 F 
HETATM   22  F4  UNL     1       5.199  61.810   4.905  1.00  0.00    -0.201 F 
HETATM   23  C23 UNL     1       7.247  62.654   4.206  1.00  0.00     0.209 C 
BRANCH  19  24
HETATM   24  O4  UNL     1       7.993  60.485   3.233  1.00  0.00    -0.378 OA
ATOM     25  H4  UNL     1       8.550  59.857   3.678  1.00  0.00     0.211 HD
ENDBRANCH  19  24
BRANCH  19  26
HETATM   26  C18 UNL     1       6.472  58.953   4.291  1.00  0.00     0.055 C 
BRANCH  26  27
HETATM   27  C19 UNL     1       7.157  57.836   3.594  1.00  0.00    -0.011 A 
HETATM   28  C20 UNL     1       7.024  56.500   4.366  1.00  0.00     0.005 A 
HETATM   29  C21 UNL     1       6.402  56.689   3.023  1.00  0.00     0.005 A 
ENDBRANCH  26  27
ENDBRANCH  19  26
ENDBRANCH  11  14
ENDBRANCH  10  11
BRANCH   1  30
HETATM   30  C5  UNL     1      11.430  64.064   2.428  1.00  0.00     0.155 C 
BRANCH  30  31
HETATM   31  N2  UNL     1      12.055  64.732   3.545  1.00  0.00    -0.357 N 
HETATM   32  C4  UNL     1      13.438  64.522   3.852  1.00  0.00     0.248 C 
HETATM   33  O1  UNL     1      14.071  63.729   3.092  1.00  0.00    -0.271 OA
ATOM     34  H2  UNL     1      11.503  65.364   4.125  1.00  0.00     0.162 HD
BRANCH  32  35
HETATM   35  C2  UNL     1      14.116  65.185   4.992  1.00  0.00     0.272 C 
HETATM   36  C3  UNL     1      15.377  64.501   5.405  1.00  0.00     0.050 C 
BRANCH  35  37
HETATM   37  N1  UNL     1      13.159  65.327   6.064  1.00  0.00    -0.067 N 
HETATM   38  C1  UNL     1      13.728  64.984   7.354  1.00  0.00     0.267 C 
ATOM     39  H12 UNL     1      12.313  64.788   5.878  1.00  0.00     0.277 HD
ATOM     40  H11 UNL     1      12.753  66.263   6.076  1.00  0.00     0.277 HD
ENDBRANCH  35  37
ENDBRANCH  32  35
ENDBRANCH  30  31
ENDBRANCH   1  30
TORSDOF 10
ENDMDL
MODEL 4
REMARK VINA RESULT: -9.120347006      1.973      3.049
REMARK  10 active torsions:
REMARK  status: ('A' for Active; 'I' for Inactive)
REMARK    1  A    between atoms: N1_2  and  C2_5 
REMARK    2  A    between atoms: C2_5  and  C4_7 
REMARK       I    between atoms: C4_7  and  N2_9 
REMARK    3  A    between atoms: N2_9  and  C5_11 
REMARK    4  A    between atoms: C5_11  and  C6_12 
REMARK    5  A    between atoms: N3_21  and  C14_22 
REMARK    6  A    between atoms: C14_22  and  O3_23 
REMARK    7  A    between atoms: C14_22  and  N4_25 
REMARK    8  A    between atoms: C17_30  and  O4_31 
REMARK    9  A    between atoms: C17_30  and  C18_33 
REMARK   10  A    between atoms: C18_33  and  C19_34 
ROOT
HETATM    1  C6  UNL     1       8.273  66.263   3.674  1.00  0.00     0.147 C 
HETATM    2  O2  UNL     1       7.454  66.732   4.699  1.00  0.00    -0.359 OA
HETATM    3  C7  UNL     1       6.271  65.901   4.727  1.00  0.00     0.227 C 
HETATM    4  C8  UNL     1       5.200  66.867   5.208  1.00  0.00     0.054 C 
HETATM    5  C9  UNL     1       4.551  67.583   4.046  1.00  0.00     0.006 C 
HETATM    6  C10 UNL     1       5.531  67.848   2.928  1.00  0.00     0.026 C 
HETATM    7  C11 UNL     1       6.250  66.662   2.414  1.00  0.00     0.096 C 
HETATM    8  C12 UNL     1       7.750  66.822   2.385  1.00  0.00     0.035 C 
HETATM    9  C13 UNL     1       8.281  66.124   1.170  1.00  0.00     0.015 C 
HETATM   10  N3  UNL     1       5.989  65.534   3.378  1.00  0.00    -0.316 N 
ENDROOT
BRANCH  10  11
HETATM   11  C14 UNL     1       5.517  64.334   2.828  1.00  0.00     0.220 C 
BRANCH  11  12
HETATM   12  O3  UNL     1       4.417  64.406   2.107  1.00  0.00    -0.332 OA
ATOM     13  H3  UNL     1       4.217  63.657   1.559  1.00  0.00     0.220 HD
ENDBRANCH  11  12
BRANCH  11  14
HETATM   14  N4  UNL     1       6.018  63.025   2.908  1.00  0.00    -0.336 N 
HETATM   15  C15 UNL     1       7.396  62.724   2.752  1.00  0.00     0.209 C 
HETATM   16  C16 UNL     1       7.874  61.358   3.063  1.00  0.00     0.295 C 
HETATM   17  F1  UNL     1       8.784  61.364   4.116  1.00  0.00    -0.201 F 
HETATM   18  F2  UNL     1       8.541  60.745   2.014  1.00  0.00    -0.201 F 
HETATM   19  C17 UNL     1       6.769  60.383   3.519  1.00  0.00     0.192 C 
HETATM   20  C22 UNL     1       5.621  60.671   2.618  1.00  0.00     0.295 C 
HETATM   21  F3  UNL     1       4.680  59.717   2.463  1.00  0.00    -0.201 F 
HETATM   22  F4  UNL     1       6.064  61.002   1.327  1.00  0.00    -0.201 F 
HETATM   23  C23 UNL     1       5.013  61.976   3.156  1.00  0.00     0.209 C 
BRANCH  19  24
HETATM   24  O4  UNL     1       6.455  60.803   4.815  1.00  0.00    -0.378 OA
ATOM     25  H4  UNL     1       5.516  60.679   4.878  1.00  0.00     0.211 HD
ENDBRANCH  19  24
BRANCH  19  26
HETATM   26  C18 UNL     1       7.373  59.037   3.468  1.00  0.00     0.055 C 
BRANCH  26  27
HETATM   27  C19 UNL     1       6.776  57.959   4.295  1.00  0.00    -0.011 A 
HETATM   28  C20 UNL     1       6.046  56.900   3.432  1.00  0.00     0.005 A 
HETATM   29  C21 UNL     1       7.263  56.555   4.222  1.00  0.00     0.005 A 
ENDBRANCH  26  27
ENDBRANCH  19  26
ENDBRANCH  11  14
ENDBRANCH  10  11
BRANCH   1  30
HETATM   30  C5  UNL     1       9.691  66.565   3.978  1.00  0.00     0.155 C 
BRANCH  30  31
HETATM   31  N2  UNL     1      10.545  65.402   4.018  1.00  0.00    -0.357 N 
HETATM   32  C4  UNL     1      11.587  65.216   3.053  1.00  0.00     0.248 C 
HETATM   33  O1  UNL     1      11.714  66.124   2.178  1.00  0.00    -0.271 OA
ATOM     34  H2  UNL     1      10.404  64.701   4.745  1.00  0.00     0.162 HD
BRANCH  32  35
HETATM   35  C2  UNL     1      12.482  64.034   3.057  1.00  0.00     0.272 C 
HETATM   36  C3  UNL     1      13.834  64.322   3.621  1.00  0.00     0.050 C 
BRANCH  35  37
HETATM   37  N1  UNL     1      12.519  63.493   1.718  1.00  0.00    -0.067 N 
HETATM   38  C1  UNL     1      11.306  62.767   1.389  1.00  0.00     0.267 C 
ATOM     39  H12 UNL     1      13.346  62.914   1.576  1.00  0.00     0.277 HD
ATOM     40  H11 UNL     1      12.712  64.220   1.030  1.00  0.00     0.277 HD
ENDBRANCH  35  37
ENDBRANCH  32  35
ENDBRANCH  30  31
ENDBRANCH   1  30
TORSDOF 10
ENDMDL
MODEL 5
REMARK VINA RESULT: -9.085344063      2.056      3.048
REMARK  10 active torsions:
REMARK  status: ('A' for Active; 'I' for Inactive)
REMARK    1  A    between atoms: N1_2  and  C2_5 
REMARK    2  A    between atoms: C2_5  and  C4_7 
REMARK       I    between atoms: C4_7  and  N2_9 
REMARK    3  A    between atoms: N2_9  and  C5_11 
REMARK    4  A    between atoms: C5_11  and  C6_12 
REMARK    5  A    between atoms: N3_21  and  C14_22 
REMARK    6  A    between atoms: C14_22  and  O3_23 
REMARK    7  A    between atoms: C14_22  and  N4_25 
REMARK    8  A    between atoms: C17_30  and  O4_31 
REMARK    9  A    between atoms: C17_30  and  C18_33 
REMARK   10  A    between atoms: C18_33  and  C19_34 
ROOT
HETATM    1  C6  UNL     1       7.843  66.790   3.882  1.00  0.00     0.147 C 
HETATM    2  O2  UNL     1       6.974  66.643   4.962  1.00  0.00    -0.359 OA
HETATM    3  C7  UNL     1       6.160  65.476   4.712  1.00  0.00     0.227 C 
HETATM    4  C8  UNL     1       4.849  65.833   5.394  1.00  0.00     0.054 C 
HETATM    5  C9  UNL     1       3.924  66.561   4.448  1.00  0.00     0.006 C 
HETATM    6  C10 UNL     1       4.681  67.447   3.487  1.00  0.00     0.026 C 
HETATM    7  C11 UNL     1       5.737  66.777   2.698  1.00  0.00     0.096 C 
HETATM    8  C12 UNL     1       7.082  67.456   2.776  1.00  0.00     0.035 C 
HETATM    9  C13 UNL     1       7.750  67.347   1.439  1.00  0.00     0.015 C 
HETATM   10  N3  UNL     1       5.944  65.413   3.303  1.00  0.00    -0.316 N 
ENDROOT
BRANCH  10  11
HETATM   11  C14 UNL     1       5.890  64.320   2.426  1.00  0.00     0.220 C 
BRANCH  11  12
HETATM   12  O3  UNL     1       5.349  64.537   1.245  1.00  0.00    -0.332 OA
ATOM     13  H3  UNL     1       4.559  64.049   1.043  1.00  0.00     0.220 HD
ENDBRANCH  11  12
BRANCH  11  14
HETATM   14  N4  UNL     1       6.321  62.993   2.581  1.00  0.00    -0.336 N 
HETATM   15  C15 UNL     1       7.692  62.642   2.675  1.00  0.00     0.209 C 
HETATM   16  C16 UNL     1       8.055  61.257   3.052  1.00  0.00     0.295 C 
HETATM   17  F1  UNL     1       8.759  61.225   4.254  1.00  0.00    -0.201 F 
HETATM   18  F2  UNL     1       8.880  60.625   2.136  1.00  0.00    -0.201 F 
HETATM   19  C17 UNL     1       6.852  60.322   3.290  1.00  0.00     0.192 C 
HETATM   20  C22 UNL     1       5.898  60.657   2.198  1.00  0.00     0.295 C 
HETATM   21  F3  UNL     1       4.967  59.740   1.864  1.00  0.00    -0.201 F 
HETATM   22  F4  UNL     1       6.581  60.977   1.013  1.00  0.00    -0.201 F 
HETATM   23  C23 UNL     1       5.250  61.982   2.631  1.00  0.00     0.209 C 
BRANCH  19  24
HETATM   24  O4  UNL     1       6.323  60.749   4.511  1.00  0.00    -0.378 OA
ATOM     25  H4  UNL     1       6.362  59.977   5.064  1.00  0.00     0.211 HD
ENDBRANCH  19  24
BRANCH  19  26
HETATM   26  C18 UNL     1       7.406  58.955   3.334  1.00  0.00     0.055 C 
BRANCH  26  27
HETATM   27  C19 UNL     1       6.721  57.938   4.171  1.00  0.00    -0.011 A 
HETATM   28  C20 UNL     1       6.087  56.813   3.318  1.00  0.00     0.005 A 
HETATM   29  C21 UNL     1       7.212  56.537   4.258  1.00  0.00     0.005 A 
ENDBRANCH  26  27
ENDBRANCH  19  26
ENDBRANCH  11  14
ENDBRANCH  10  11
BRANCH   1  30
HETATM   30  C5  UNL     1       9.082  67.478   4.316  1.00  0.00     0.155 C 
BRANCH  30  31
HETATM   31  N2  UNL     1      10.177  66.585   4.613  1.00  0.00    -0.357 N 
HETATM   32  C4  UNL     1      11.387  66.620   3.848  1.00  0.00     0.248 C 
HETATM   33  O1  UNL     1      11.438  67.472   2.911  1.00  0.00    -0.271 OA
ATOM     34  H2  UNL     1      10.088  65.919   5.381  1.00  0.00     0.162 HD
BRANCH  32  35
HETATM   35  C2  UNL     1      12.532  65.718   4.118  1.00  0.00     0.272 C 
HETATM   36  C3  UNL     1      12.452  64.426   3.376  1.00  0.00     0.050 C 
BRANCH  35  37
HETATM   37  N1  UNL     1      12.650  65.556   5.548  1.00  0.00    -0.067 N 
HETATM   38  C1  UNL     1      13.908  64.940   5.927  1.00  0.00     0.267 C 
ATOM     39  H12 UNL     1      11.856  65.040   5.928  1.00  0.00     0.277 HD
ATOM     40  H11 UNL     1      12.512  66.443   6.033  1.00  0.00     0.277 HD
ENDBRANCH  35  37
ENDBRANCH  32  35
ENDBRANCH  30  31
ENDBRANCH   1  30
TORSDOF 10
ENDMDL
