MODEL 1
REMARK VINA RESULT: -4.747786532      0.000      0.000
REMARK  4 active torsions:
REMARK  status: ('A' for Active; 'I' for Inactive)
REMARK    1  A    between atoms: N1_1  and  C1_4 
REMARK    2  A    between atoms: C2_10  and  C3_11 
REMARK    3  A    between atoms: C3_11  and  N4_12 
REMARK    4  A    between atoms: C3_11  and  N5_16 
ROOT
HETATM    1  C1  UNL     1      27.305  -1.609   7.295  1.00  0.00     0.149 A 
HETATM    2  N2  UNL     1      26.638  -0.769   6.472  1.00  0.00    -0.224 N 
ATOM      3  H2  UNL     1      27.030  -0.326   5.640  1.00  0.00     0.198 HD
HETATM    4  O1  UNL     1      25.420  -0.612   6.901  1.00  0.00    -0.155 OA
HETATM    5  N3  UNL     1      25.244  -1.314   7.984  1.00  0.00    -0.239 N 
ATOM      6  H3  UNL     1      24.380  -1.368   8.524  1.00  0.00     0.196 HD
HETATM    7  C2  UNL     1      26.409  -1.966   8.278  1.00  0.00     0.126 A 
ENDROOT
BRANCH   7   8
HETATM    8  C3  UNL     1      26.574  -2.850   9.436  1.00  0.00     0.340 C 
BRANCH   8   9
HETATM    9  N4  UNL     1      25.304  -3.269   9.980  1.00  0.00    -0.055 N 
ATOM     10  H43 UNL     1      24.571  -3.246   9.270  1.00  0.00     0.276 HD
ATOM     11  H42 UNL     1      25.300  -4.269  10.184  1.00  0.00     0.276 HD
ATOM     12  H41 UNL     1      25.042  -2.722  10.800  1.00  0.00     0.276 HD
ENDBRANCH   8   9
BRANCH   8  13
HETATM   13  N5  UNL     1      27.355  -2.138  10.458  1.00  0.00    -0.128 NA
HETATM   14  S1  UNL     1      26.258  -1.586  11.734  1.00  0.00     0.029 SA
ENDBRANCH   8  13
ENDBRANCH   7   8
BRANCH   1  15
HETATM   15  N1  UNL     1      28.518  -2.004   7.202  1.00  0.00    -0.382 N 
ATOM     16  H12 UNL     1      28.853  -2.785   6.639  1.00  0.00     0.157 HD
ATOM     17  H11 UNL     1      29.341  -1.618   7.663  1.00  0.00     0.157 HD
ENDBRANCH   1  15
TORSDOF 4
ENDMDL
MODEL 2
REMARK VINA RESULT: -4.495083301      2.754      3.997
REMARK  4 active torsions:
REMARK  status: ('A' for Active; 'I' for Inactive)
REMARK    1  A    between atoms: N1_1  and  C1_4 
REMARK    2  A    between atoms: C2_10  and  C3_11 
REMARK    3  A    between atoms: C3_11  and  N4_12 
REMARK    4  A    between atoms: C3_11  and  N5_16 
ROOT
HETATM    1  C1  UNL     1      25.587  -1.662   8.467  1.00  0.00     0.149 A 
HETATM    2  N2  UNL     1      25.302  -2.097   9.715  1.00  0.00    -0.224 N 
ATOM      3  H2  UNL     1      24.415  -1.957  10.198  1.00  0.00     0.198 HD
HETATM    4  O1  UNL     1      26.333  -2.722  10.206  1.00  0.00    -0.155 OA
HETATM    5  N3  UNL     1      27.300  -2.722   9.334  1.00  0.00    -0.239 N 
ATOM      6  H3  UNL     1      28.219  -3.144   9.466  1.00  0.00     0.196 HD
HETATM    7  C2  UNL     1      26.880  -2.063   8.213  1.00  0.00     0.126 A 
ENDROOT
BRANCH   7   8
HETATM    8  C3  UNL     1      27.716  -1.871   7.023  1.00  0.00     0.340 C 
BRANCH   8   9
HETATM    9  N4  UNL     1      29.121  -2.012   7.324  1.00  0.00    -0.055 N 
ATOM     10  H43 UNL     1      29.534  -2.790   6.809  1.00  0.00     0.276 HD
ATOM     11  H42 UNL     1      29.665  -1.247   6.922  1.00  0.00     0.276 HD
ATOM     12  H41 UNL     1      29.289  -2.100   8.326  1.00  0.00     0.276 HD
ENDBRANCH   8   9
BRANCH   8  13
HETATM   13  N5  UNL     1      27.445  -0.533   6.476  1.00  0.00    -0.128 NA
HETATM   14  S1  UNL     1      28.073  -0.454   4.822  1.00  0.00     0.029 SA
ENDBRANCH   8  13
ENDBRANCH   7   8
BRANCH   1  15
HETATM   15  N1  UNL     1      24.830  -1.011   7.668  1.00  0.00    -0.382 N 
ATOM     16  H12 UNL     1      23.816  -1.091   7.603  1.00  0.00     0.157 HD
ATOM     17  H11 UNL     1      25.101  -0.315   6.973  1.00  0.00     0.157 HD
ENDBRANCH   1  15
TORSDOF 4
ENDMDL
MODEL 3
REMARK VINA RESULT: -4.430541110      4.571      5.826
REMARK  4 active torsions:
REMARK  status: ('A' for Active; 'I' for Inactive)
REMARK    1  A    between atoms: N1_1  and  C1_4 
REMARK    2  A    between atoms: C2_10  and  C3_11 
REMARK    3  A    between atoms: C3_11  and  N4_12 
REMARK    4  A    between atoms: C3_11  and  N5_16 
ROOT
HETATM    1  C1  UNL     1      28.428  -1.271   5.320  1.00  0.00     0.149 A 
HETATM    2  N2  UNL     1      27.901  -1.548   6.533  1.00  0.00    -0.224 N 
ATOM      3  H2  UNL     1      28.184  -2.323   7.134  1.00  0.00     0.198 HD
HETATM    4  O1  UNL     1      26.978  -0.677   6.819  1.00  0.00    -0.155 OA
HETATM    5  N3  UNL     1      26.864   0.176   5.840  1.00  0.00    -0.239 N 
ATOM      6  H3  UNL     1      26.214   0.961   5.809  1.00  0.00     0.196 HD
HETATM    7  C2  UNL     1      27.761  -0.155   4.864  1.00  0.00     0.126 A 
ENDROOT
BRANCH   7   8
HETATM    8  C3  UNL     1      27.909   0.593   3.611  1.00  0.00     0.340 C 
BRANCH   8   9
HETATM    9  N4  UNL     1      27.312  -0.102   2.495  1.00  0.00    -0.055 N 
ATOM     10  H43 UNL     1      27.756  -1.008   2.342  1.00  0.00     0.276 HD
ATOM     11  H42 UNL     1      26.369  -0.421   2.719  1.00  0.00     0.276 HD
ATOM     12  H41 UNL     1      27.320   0.463   1.646  1.00  0.00     0.276 HD
ENDBRANCH   8   9
BRANCH   8  13
HETATM   13  N5  UNL     1      29.343   0.810   3.367  1.00  0.00    -0.128 NA
HETATM   14  S1  UNL     1      29.529   2.101   2.168  1.00  0.00     0.029 SA
ENDBRANCH   8  13
ENDBRANCH   7   8
BRANCH   1  15
HETATM   15  N1  UNL     1      29.354  -1.899   4.701  1.00  0.00    -0.382 N 
ATOM     16  H12 UNL     1      30.270  -1.526   4.452  1.00  0.00     0.157 HD
ATOM     17  H11 UNL     1      29.339  -2.859   4.356  1.00  0.00     0.157 HD
ENDBRANCH   1  15
TORSDOF 4
ENDMDL
MODEL 4
REMARK VINA RESULT: -4.386547399      4.413      5.470
REMARK  4 active torsions:
REMARK  status: ('A' for Active; 'I' for Inactive)
REMARK    1  A    between atoms: N1_1  and  C1_4 
REMARK    2  A    between atoms: C2_10  and  C3_11 
REMARK    3  A    between atoms: C3_11  and  N4_12 
REMARK    4  A    between atoms: C3_11  and  N5_16 
ROOT
HETATM    1  C1  UNL     1      27.634  -0.147   4.857  1.00  0.00     0.149 A 
HETATM    2  N2  UNL     1      26.746   0.216   5.810  1.00  0.00    -0.224 N 
ATOM      3  H2  UNL     1      26.071   0.976   5.725  1.00  0.00     0.198 HD
HETATM    4  O1  UNL     1      26.884  -0.552   6.852  1.00  0.00    -0.155 OA
HETATM    5  N3  UNL     1      27.833  -1.417   6.634  1.00  0.00    -0.239 N 
ATOM      6  H3  UNL     1      28.144  -2.135   7.289  1.00  0.00     0.196 HD
HETATM    7  C2  UNL     1      28.342  -1.205   5.384  1.00  0.00     0.126 A 
ENDROOT
BRANCH   7   8
HETATM    8  C3  UNL     1      29.430  -1.999   4.805  1.00  0.00     0.340 C 
BRANCH   8   9
HETATM    9  N4  UNL     1      30.658  -1.245   4.713  1.00  0.00    -0.055 N 
ATOM     10  H43 UNL     1      30.531  -0.288   5.043  1.00  0.00     0.276 HD
ATOM     11  H42 UNL     1      31.341  -1.563   5.401  1.00  0.00     0.276 HD
ATOM     12  H41 UNL     1      31.046  -1.263   3.769  1.00  0.00     0.276 HD
ENDBRANCH   8   9
BRANCH   8  13
HETATM   13  N5  UNL     1      29.013  -2.457   3.472  1.00  0.00    -0.128 NA
HETATM   14  S1  UNL     1      30.414  -2.420   2.389  1.00  0.00     0.029 SA
ENDBRANCH   8  13
ENDBRANCH   7   8
BRANCH   1  15
HETATM   15  N1  UNL     1      27.801   0.369   3.700  1.00  0.00    -0.382 N 
ATOM     16  H12 UNL     1      28.165   1.302   3.505  1.00  0.00     0.157 HD
ATOM     17  H11 UNL     1      27.605  -0.050   2.790  1.00  0.00     0.157 HD
ENDBRANCH   1  15
TORSDOF 4
ENDMDL
MODEL 5
REMARK VINA RESULT: -4.260949953      2.432      3.588
REMARK  4 active torsions:
REMARK  status: ('A' for Active; 'I' for Inactive)
REMARK    1  A    between atoms: N1_1  and  C1_4 
REMARK    2  A    between atoms: C2_10  and  C3_11 
REMARK    3  A    between atoms: C3_11  and  N4_12 
REMARK    4  A    between atoms: C3_11  and  N5_16 
ROOT
HETATM    1  C1  UNL     1      26.273  -2.609   9.770  1.00  0.00     0.149 A 
HETATM    2  N2  UNL     1      25.096  -1.945   9.818  1.00  0.00    -0.224 N 
ATOM      3  H2  UNL     1      24.475  -1.909  10.627  1.00  0.00     0.198 HD
HETATM    4  O1  UNL     1      24.877  -1.358   8.678  1.00  0.00    -0.155 OA
HETATM    5  N3  UNL     1      25.863  -1.605   7.863  1.00  0.00    -0.239 N 
ATOM      6  H3  UNL     1      25.941  -1.265   6.905  1.00  0.00     0.196 HD
HETATM    7  C2  UNL     1      26.776  -2.394   8.505  1.00  0.00     0.126 A 
ENDROOT
BRANCH   7   8
HETATM    8  C3  UNL     1      28.017  -2.869   7.885  1.00  0.00     0.340 C 
BRANCH   8   9
HETATM    9  N4  UNL     1      29.154  -2.069   8.275  1.00  0.00    -0.055 N 
ATOM     10  H43 UNL     1      29.400  -1.395   7.549  1.00  0.00     0.276 HD
ATOM     11  H42 UNL     1      28.911  -1.419   9.023  1.00  0.00     0.276 HD
ATOM     12  H41 UNL     1      29.955  -2.646   8.531  1.00  0.00     0.276 HD
ENDBRANCH   8   9
BRANCH   8  13
HETATM   13  N5  UNL     1      27.849  -2.836   6.425  1.00  0.00    -0.128 NA
HETATM   14  S1  UNL     1      28.991  -1.666   5.743  1.00  0.00     0.029 SA
ENDBRANCH   8  13
ENDBRANCH   7   8
BRANCH   1  15
HETATM   15  N1  UNL     1      26.825  -3.302  10.692  1.00  0.00    -0.382 N 
ATOM     16  H12 UNL     1      27.149  -2.951  11.593  1.00  0.00     0.157 HD
ATOM     17  H11 UNL     1      27.034  -4.300  10.688  1.00  0.00     0.157 HD
ENDBRANCH   1  15
TORSDOF 4
ENDMDL
