MODEL 1
REMARK VINA RESULT: -5.025352293      0.000      0.000
REMARK  5 active torsions:
REMARK  status: ('A' for Active; 'I' for Inactive)
REMARK    1  A    between atoms: C1_4  and  N2_5 
REMARK    2  A    between atoms: N2_5  and  N3_7 
REMARK    3  A    between atoms: N3_7  and  N4_9 
REMARK    4  A    between atoms: N4_9  and  C2_11 
REMARK    5  A    between atoms: C4_17  and  N7_18 
ROOT
HETATM    1  C2  UNL     1      26.891  -2.096   7.943  1.00  0.00     0.713 A 
HETATM    2  N5  UNL     1      25.733  -1.429   7.967  1.00  0.00    -0.185 N 
ATOM      3  H5  UNL     1      25.037  -1.631   8.685  1.00  0.00     0.185 HD
HETATM    4  C3  UNL     1      25.494  -0.488   7.036  1.00  0.00     0.215 A 
HETATM    5  N6  UNL     1      26.425  -0.215   6.075  1.00  0.00    -0.187 N 
ATOM      6  H6  UNL     1      26.247   0.499   5.368  1.00  0.00     0.185 HD
HETATM    7  C4  UNL     1      27.580  -0.902   6.075  1.00  0.00     0.691 A 
HETATM    8  N8  UNL     1      27.815  -1.842   7.007  1.00  0.00    -0.021 N 
ATOM      9  H8  UNL     1      28.693  -2.360   7.002  1.00  0.00     0.203 HD
ENDROOT
BRANCH   1  10
HETATM   10  N4  UNL     1      27.122  -3.005   8.842  1.00  0.00    -0.117 N 
ATOM     11  H4  UNL     1      28.061  -3.387   8.946  1.00  0.00     0.207 HD
BRANCH  10  12
HETATM   12  N3  UNL     1      26.105  -3.455   9.659  1.00  0.00    -0.228 N 
ATOM     13  H3  UNL     1      25.284  -3.900   9.247  1.00  0.00     0.209 HD
BRANCH  12  14
HETATM   14  N2  UNL     1      26.191  -3.306  11.042  1.00  0.00    -0.282 N 
ATOM     15  H2  UNL     1      26.092  -4.123  11.645  1.00  0.00     0.189 HD
BRANCH  14  16
HETATM   16  C1  UNL     1      26.414  -2.029  11.619  1.00  0.00     0.192 C 
HETATM   17  N1  UNL     1      25.505  -1.119  11.685  1.00  0.00    -0.394 N 
ATOM     18  H12 UNL     1      24.588  -1.343  11.301  1.00  0.00     0.156 HD
ATOM     19  H11 UNL     1      25.666  -0.201  12.100  1.00  0.00     0.156 HD
ENDBRANCH  14  16
ENDBRANCH  12  14
ENDBRANCH  10  12
ENDBRANCH   1  10
BRANCH   7  20
HETATM   20  N7  UNL     1      28.490  -0.678   5.185  1.00  0.00    -0.234 N 
ATOM     21  H72 UNL     1      29.018   0.193   5.237  1.00  0.00     0.174 HD
ATOM     22  H71 UNL     1      28.679  -1.354   4.444  1.00  0.00     0.174 HD
ENDBRANCH   7  20
TORSDOF 5
ENDMDL
MODEL 2
REMARK VINA RESULT: -4.971821499      1.156      2.181
REMARK  5 active torsions:
REMARK  status: ('A' for Active; 'I' for Inactive)
REMARK    1  A    between atoms: C1_4  and  N2_5 
REMARK    2  A    between atoms: N2_5  and  N3_7 
REMARK    3  A    between atoms: N3_7  and  N4_9 
REMARK    4  A    between atoms: N4_9  and  C2_11 
REMARK    5  A    between atoms: C4_17  and  N7_18 
ROOT
HETATM    1  C2  UNL     1      27.005  -1.140   6.769  1.00  0.00     0.713 A 
HETATM    2  N5  UNL     1      28.100  -1.901   6.864  1.00  0.00    -0.185 N 
ATOM      3  H5  UNL     1      28.212  -2.549   7.643  1.00  0.00     0.185 HD
HETATM    4  C3  UNL     1      29.053  -1.804   5.920  1.00  0.00     0.215 A 
HETATM    5  N6  UNL     1      28.905  -0.938   4.875  1.00  0.00    -0.187 N 
ATOM      6  H6  UNL     1      29.626  -0.863   4.157  1.00  0.00     0.185 HD
HETATM    7  C4  UNL     1      27.794  -0.185   4.807  1.00  0.00     0.691 A 
HETATM    8  N8  UNL     1      26.844  -0.285   5.752  1.00  0.00    -0.021 N 
ATOM      9  H8  UNL     1      26.003   0.289   5.695  1.00  0.00     0.203 HD
ENDROOT
BRANCH   1  10
HETATM   10  N4  UNL     1      26.084  -1.234   7.681  1.00  0.00    -0.117 N 
ATOM     11  H4  UNL     1      25.297  -0.586   7.674  1.00  0.00     0.207 HD
BRANCH  10  12
HETATM   12  N3  UNL     1      26.164  -2.204   8.659  1.00  0.00    -0.228 N 
ATOM     13  H3  UNL     1      26.689  -3.061   8.481  1.00  0.00     0.209 HD
BRANCH  12  14
HETATM   14  N2  UNL     1      25.532  -2.023   9.887  1.00  0.00    -0.282 N 
ATOM     15  H2  UNL     1      24.522  -1.883   9.920  1.00  0.00     0.189 HD
BRANCH  14  16
HETATM   16  C1  UNL     1      26.280  -2.030  11.093  1.00  0.00     0.192 C 
HETATM   17  N1  UNL     1      25.785  -1.680  12.230  1.00  0.00    -0.394 N 
ATOM     18  H12 UNL     1      24.809  -1.386  12.246  1.00  0.00     0.156 HD
ATOM     19  H11 UNL     1      26.323  -1.685  13.097  1.00  0.00     0.156 HD
ENDBRANCH  14  16
ENDBRANCH  12  14
ENDBRANCH  10  12
ENDBRANCH   1  10
BRANCH   7  20
HETATM   20  N7  UNL     1      27.611   0.649   3.836  1.00  0.00    -0.234 N 
ATOM     21  H72 UNL     1      28.421   1.141   3.459  1.00  0.00     0.174 HD
ATOM     22  H71 UNL     1      26.680   0.814   3.452  1.00  0.00     0.174 HD
ENDBRANCH   7  20
TORSDOF 5
ENDMDL
MODEL 3
REMARK VINA RESULT: -4.879050127      1.786      3.089
REMARK  5 active torsions:
REMARK  status: ('A' for Active; 'I' for Inactive)
REMARK    1  A    between atoms: C1_4  and  N2_5 
REMARK    2  A    between atoms: N2_5  and  N3_7 
REMARK    3  A    between atoms: N3_7  and  N4_9 
REMARK    4  A    between atoms: N4_9  and  C2_11 
REMARK    5  A    between atoms: C4_17  and  N7_18 
ROOT
HETATM    1  C2  UNL     1      27.844  -1.151   5.750  1.00  0.00     0.713 A 
HETATM    2  N5  UNL     1      28.721  -2.079   5.353  1.00  0.00    -0.185 N 
ATOM      3  H5  UNL     1      28.994  -2.833   5.983  1.00  0.00     0.185 HD
HETATM    4  C3  UNL     1      29.240  -2.008   4.114  1.00  0.00     0.215 A 
HETATM    5  N6  UNL     1      28.875  -1.000   3.268  1.00  0.00    -0.187 N 
ATOM      6  H6  UNL     1      29.266  -0.945   2.328  1.00  0.00     0.185 HD
HETATM    7  C4  UNL     1      27.991  -0.082   3.695  1.00  0.00     0.691 A 
HETATM    8  N8  UNL     1      27.476  -0.156   4.934  1.00  0.00    -0.021 N 
ATOM      9  H8  UNL     1      26.806   0.545   5.252  1.00  0.00     0.203 HD
ENDROOT
BRANCH   1  10
HETATM   10  N4  UNL     1      27.342  -1.220   6.946  1.00  0.00    -0.117 N 
ATOM     11  H4  UNL     1      26.587  -0.590   7.215  1.00  0.00     0.207 HD
BRANCH  10  12
HETATM   12  N3  UNL     1      27.824  -2.138   7.855  1.00  0.00    -0.228 N 
ATOM     13  H3  UNL     1      28.817  -2.146   8.090  1.00  0.00     0.209 HD
BRANCH  12  14
HETATM   14  N2  UNL     1      26.965  -3.056   8.456  1.00  0.00    -0.282 N 
ATOM     15  H2  UNL     1      26.724  -3.918   7.967  1.00  0.00     0.189 HD
BRANCH  14  16
HETATM   16  C1  UNL     1      26.420  -2.802   9.742  1.00  0.00     0.192 C 
HETATM   17  N1  UNL     1      25.366  -2.087   9.930  1.00  0.00    -0.394 N 
ATOM     18  H12 UNL     1      24.912  -1.693   9.106  1.00  0.00     0.156 HD
ATOM     19  H11 UNL     1      24.974  -1.905  10.855  1.00  0.00     0.156 HD
ENDBRANCH  14  16
ENDBRANCH  12  14
ENDBRANCH  10  12
ENDBRANCH   1  10
BRANCH   7  20
HETATM   20  N7  UNL     1      27.617   0.890   2.929  1.00  0.00    -0.234 N 
ATOM     21  H72 UNL     1      27.929   0.892   1.958  1.00  0.00     0.174 HD
ATOM     22  H71 UNL     1      27.024   1.641   3.284  1.00  0.00     0.174 HD
ENDBRANCH   7  20
TORSDOF 5
ENDMDL
MODEL 4
REMARK VINA RESULT: -4.817894298      1.855      5.792
REMARK  5 active torsions:
REMARK  status: ('A' for Active; 'I' for Inactive)
REMARK    1  A    between atoms: C1_4  and  N2_5 
REMARK    2  A    between atoms: N2_5  and  N3_7 
REMARK    3  A    between atoms: N3_7  and  N4_9 
REMARK    4  A    between atoms: N4_9  and  C2_11 
REMARK    5  A    between atoms: C4_17  and  N7_18 
ROOT
HETATM    1  C2  UNL     1      26.859  -1.012   6.841  1.00  0.00     0.713 A 
HETATM    2  N5  UNL     1      28.025  -1.662   6.934  1.00  0.00    -0.185 N 
ATOM      3  H5  UNL     1      28.749  -1.524   6.230  1.00  0.00     0.185 HD
HETATM    4  C3  UNL     1      28.232  -2.499   7.966  1.00  0.00     0.215 A 
HETATM    5  N6  UNL     1      27.263  -2.685   8.911  1.00  0.00    -0.187 N 
ATOM      6  H6  UNL     1      27.418  -3.319   9.695  1.00  0.00     0.185 HD
HETATM    7  C4  UNL     1      26.102  -2.019   8.791  1.00  0.00     0.691 A 
HETATM    8  N8  UNL     1      25.899  -1.184   7.758  1.00  0.00    -0.021 N 
ATOM      9  H8  UNL     1      25.015  -0.681   7.672  1.00  0.00     0.203 HD
ENDROOT
BRANCH   1  10
HETATM   10  N4  UNL     1      26.659  -0.203   5.844  1.00  0.00    -0.117 N 
ATOM     11  H4  UNL     1      25.749   0.242   5.729  1.00  0.00     0.207 HD
BRANCH  10  12
HETATM   12  N3  UNL     1      27.669   0.058   4.942  1.00  0.00    -0.228 N 
ATOM     13  H3  UNL     1      28.642   0.042   5.250  1.00  0.00     0.209 HD
BRANCH  12  14
HETATM   14  N2  UNL     1      27.371   0.343   3.611  1.00  0.00    -0.282 N 
ATOM     15  H2  UNL     1      26.760   1.129   3.387  1.00  0.00     0.189 HD
BRANCH  14  16
HETATM   16  C1  UNL     1      27.908  -0.450   2.563  1.00  0.00     0.192 C 
HETATM   17  N1  UNL     1      27.249  -0.747   1.498  1.00  0.00    -0.394 N 
ATOM     18  H12 UNL     1      26.297  -0.387   1.418  1.00  0.00     0.156 HD
ATOM     19  H11 UNL     1      27.634  -1.317   0.745  1.00  0.00     0.156 HD
ENDBRANCH  14  16
ENDBRANCH  12  14
ENDBRANCH  10  12
ENDBRANCH   1  10
BRANCH   7  20
HETATM   20  N7  UNL     1      25.156  -2.164   9.660  1.00  0.00    -0.234 N 
ATOM     21  H72 UNL     1      25.188  -1.603  10.511  1.00  0.00     0.174 HD
ATOM     22  H71 UNL     1      24.394  -2.824   9.504  1.00  0.00     0.174 HD
ENDBRANCH   7  20
TORSDOF 5
ENDMDL
MODEL 5
REMARK VINA RESULT: -4.729742094      1.808      2.941
REMARK  5 active torsions:
REMARK  status: ('A' for Active; 'I' for Inactive)
REMARK    1  A    between atoms: C1_4  and  N2_5 
REMARK    2  A    between atoms: N2_5  and  N3_7 
REMARK    3  A    between atoms: N3_7  and  N4_9 
REMARK    4  A    between atoms: N4_9  and  C2_11 
REMARK    5  A    between atoms: C4_17  and  N7_18 
ROOT
HETATM    1  C2  UNL     1      27.813  -1.101   5.720  1.00  0.00     0.713 A 
HETATM    2  N5  UNL     1      27.519   0.019   5.050  1.00  0.00    -0.185 N 
ATOM      3  H5  UNL     1      26.984   0.762   5.498  1.00  0.00     0.185 HD
HETATM    4  C3  UNL     1      27.935   0.154   3.778  1.00  0.00     0.215 A 
HETATM    5  N6  UNL     1      28.653  -0.840   3.176  1.00  0.00    -0.187 N 
ATOM      6  H6  UNL     1      28.971  -0.739   2.212  1.00  0.00     0.185 HD
HETATM    7  C4  UNL     1      28.933  -1.953   3.875  1.00  0.00     0.691 A 
HETATM    8  N8  UNL     1      28.514  -2.085   5.145  1.00  0.00    -0.021 N 
ATOM      9  H8  UNL     1      28.730  -2.933   5.669  1.00  0.00     0.203 HD
ENDROOT
BRANCH   1  10
HETATM   10  N4  UNL     1      27.410  -1.231   6.948  1.00  0.00    -0.117 N 
ATOM     11  H4  UNL     1      26.750  -0.559   7.339  1.00  0.00     0.207 HD
BRANCH  10  12
HETATM   12  N3  UNL     1      27.868  -2.273   7.728  1.00  0.00    -0.228 N 
ATOM     13  H3  UNL     1      28.871  -2.446   7.804  1.00  0.00     0.209 HD
BRANCH  12  14
HETATM   14  N2  UNL     1      26.972  -3.092   8.411  1.00  0.00    -0.282 N 
ATOM     15  H2  UNL     1      26.656  -3.963   7.983  1.00  0.00     0.189 HD
BRANCH  14  16
HETATM   16  C1  UNL     1      26.494  -2.726   9.696  1.00  0.00     0.192 C 
HETATM   17  N1  UNL     1      25.392  -2.086   9.880  1.00  0.00    -0.394 N 
ATOM     18  H12 UNL     1      24.849  -1.837   9.053  1.00  0.00     0.156 HD
ATOM     19  H11 UNL     1      25.048  -1.823  10.804  1.00  0.00     0.156 HD
ENDBRANCH  14  16
ENDBRANCH  12  14
ENDBRANCH  10  12
ENDBRANCH   1  10
BRANCH   7  20
HETATM   20  N7  UNL     1      29.608  -2.920   3.346  1.00  0.00    -0.234 N 
ATOM     21  H72 UNL     1      29.197  -3.430   2.564  1.00  0.00     0.174 HD
ATOM     22  H71 UNL     1      30.532  -3.171   3.698  1.00  0.00     0.174 HD
ENDBRANCH   7  20
TORSDOF 5
ENDMDL
