MODEL 1
REMARK VINA RESULT: -5.616445715      0.000      0.000
REMARK  5 active torsions:
REMARK  status: ('A' for Active; 'I' for Inactive)
REMARK    1  A    between atoms: N1_1  and  C1_5 
REMARK    2  A    between atoms: C1_5  and  C2_6 
REMARK    3  A    between atoms: C2_6  and  N2_7 
REMARK    4  A    between atoms: C2_6  and  C3_11 
REMARK    5  A    between atoms: C3_11  and  N3_12 
ROOT
HETATM    1  C3  UNL     1      26.973  -2.761   8.655  1.00  0.00     0.183 C 
ENDROOT
BRANCH   1   2
HETATM    2  C2  UNL     1      25.966  -2.591   9.760  1.00  0.00     0.228 C 
BRANCH   2   3
HETATM    3  C1  UNL     1      26.554  -1.955  10.993  1.00  0.00     0.264 C 
BRANCH   3   4
HETATM    4  N1  UNL     1      25.544  -1.150  11.619  1.00  0.00    -0.077 N 
ATOM      5  H13 UNL     1      25.935  -0.357  12.128  1.00  0.00     0.274 HD
ATOM      6  H12 UNL     1      24.989  -0.623  10.944  1.00  0.00     0.274 HD
ATOM      7  H11 UNL     1      24.971  -1.750  12.213  1.00  0.00     0.274 HD
ENDBRANCH   3   4
ENDBRANCH   2   3
BRANCH   2   8
HETATM    8  N2  UNL     1      25.461  -3.895  10.123  1.00  0.00    -0.072 N 
ATOM      9  H23 UNL     1      26.069  -4.653   9.811  1.00  0.00     0.274 HD
ATOM     10  H22 UNL     1      25.520  -4.075  11.126  1.00  0.00     0.274 HD
ATOM     11  H21 UNL     1      24.510  -3.980   9.763  1.00  0.00     0.274 HD
ENDBRANCH   2   8
ENDBRANCH   1   2
BRANCH   1  12
HETATM   12  N3  UNL     1      26.851  -1.771   7.622  1.00  0.00    -0.254 N 
HETATM   13  N4  UNL     1      25.877  -0.905   7.411  1.00  0.00    -0.017 NA
HETATM   14  N5  UNL     1      26.130  -0.153   6.353  1.00  0.00    -0.265 N 
HETATM   15  C4  UNL     1      27.326  -0.536   5.837  1.00  0.00     0.180 A 
ATOM     16  H5  UNL     1      25.530   0.586   5.987  1.00  0.00     0.186 HD
HETATM   17  N6  UNL     1      28.431  -0.646   5.081  1.00  0.00    -0.280 N 
HETATM   18  C5  UNL     1      27.756  -1.550   6.651  1.00  0.00     0.183 A 
HETATM   19  N7  UNL     1      28.851  -1.621   5.858  1.00  0.00    -0.280 N 
ATOM     20  H6  UNL     1      28.793  -0.172   4.254  1.00  0.00     0.188 HD
ATOM     21  H7  UNL     1      29.685  -2.208   5.861  1.00  0.00     0.189 HD
ENDBRANCH   1  12
TORSDOF 5
ENDMDL
MODEL 2
REMARK VINA RESULT: -5.144956251      1.515      4.989
REMARK  5 active torsions:
REMARK  status: ('A' for Active; 'I' for Inactive)
REMARK    1  A    between atoms: N1_1  and  C1_5 
REMARK    2  A    between atoms: C1_5  and  C2_6 
REMARK    3  A    between atoms: C2_6  and  N2_7 
REMARK    4  A    between atoms: C2_6  and  C3_11 
REMARK    5  A    between atoms: C3_11  and  N3_12 
ROOT
HETATM    1  C3  UNL     1      28.438  -1.809   6.647  1.00  0.00     0.183 C 
ENDROOT
BRANCH   1   2
HETATM    2  C2  UNL     1      28.327  -1.607   5.159  1.00  0.00     0.228 C 
BRANCH   2   3
HETATM    3  C1  UNL     1      29.589  -1.979   4.424  1.00  0.00     0.264 C 
BRANCH   3   4
HETATM    4  N1  UNL     1      29.251  -2.891   3.368  1.00  0.00    -0.077 N 
ATOM      5  H13 UNL     1      30.072  -3.218   2.856  1.00  0.00     0.274 HD
ATOM      6  H12 UNL     1      28.935  -3.796   3.719  1.00  0.00     0.274 HD
ATOM      7  H11 UNL     1      28.564  -2.446   2.760  1.00  0.00     0.274 HD
ENDBRANCH   3   4
ENDBRANCH   2   3
BRANCH   2   8
HETATM    8  N2  UNL     1      28.052  -0.212   4.906  1.00  0.00    -0.072 N 
ATOM      9  H23 UNL     1      28.469   0.404   5.605  1.00  0.00     0.274 HD
ATOM     10  H22 UNL     1      28.552   0.147   4.092  1.00  0.00     0.274 HD
ATOM     11  H21 UNL     1      27.041  -0.094   4.831  1.00  0.00     0.274 HD
ENDBRANCH   2   8
ENDBRANCH   1   2
BRANCH   1  12
HETATM   12  N3  UNL     1      27.179  -1.692   7.328  1.00  0.00    -0.254 N 
HETATM   13  N4  UNL     1      26.100  -1.019   6.972  1.00  0.00    -0.017 NA
HETATM   14  N5  UNL     1      25.136  -1.157   7.867  1.00  0.00    -0.265 N 
HETATM   15  C4  UNL     1      25.594  -1.959   8.863  1.00  0.00     0.180 A 
ATOM     16  H5  UNL     1      24.209  -0.735   7.817  1.00  0.00     0.186 HD
HETATM   17  N6  UNL     1      25.706  -2.690   9.983  1.00  0.00    -0.280 N 
HETATM   18  C5  UNL     1      26.875  -2.279   8.500  1.00  0.00     0.183 A 
HETATM   19  N7  UNL     1      26.938  -3.003   9.643  1.00  0.00    -0.280 N 
ATOM     20  H6  UNL     1      25.094  -2.911  10.769  1.00  0.00     0.188 HD
ATOM     21  H7  UNL     1      27.664  -3.573  10.075  1.00  0.00     0.189 HD
ENDBRANCH   1  12
TORSDOF 5
ENDMDL
MODEL 3
REMARK VINA RESULT: -5.129874146      0.955      1.860
REMARK  5 active torsions:
REMARK  status: ('A' for Active; 'I' for Inactive)
REMARK    1  A    between atoms: N1_1  and  C1_5 
REMARK    2  A    between atoms: C1_5  and  C2_6 
REMARK    3  A    between atoms: C2_6  and  N2_7 
REMARK    4  A    between atoms: C2_6  and  C3_11 
REMARK    5  A    between atoms: C3_11  and  N3_12 
ROOT
HETATM    1  C3  UNL     1      26.919  -3.014   8.573  1.00  0.00     0.183 C 
ENDROOT
BRANCH   1   2
HETATM    2  C2  UNL     1      26.389  -2.159   9.692  1.00  0.00     0.228 C 
BRANCH   2   3
HETATM    3  C1  UNL     1      26.646  -2.753  11.052  1.00  0.00     0.264 C 
BRANCH   3   4
HETATM    4  N1  UNL     1      25.944  -1.973  12.033  1.00  0.00    -0.077 N 
ATOM      5  H13 UNL     1      25.903  -2.433  12.943  1.00  0.00     0.274 HD
ATOM      6  H12 UNL     1      26.466  -1.143  12.319  1.00  0.00     0.274 HD
ATOM      7  H11 UNL     1      25.019  -1.746  11.667  1.00  0.00     0.274 HD
ENDBRANCH   3   4
ENDBRANCH   2   3
BRANCH   2   8
HETATM    8  N2  UNL     1      24.960  -2.019   9.523  1.00  0.00    -0.072 N 
ATOM      9  H23 UNL     1      24.714  -1.469   8.699  1.00  0.00     0.274 HD
ATOM     10  H22 UNL     1      24.510  -2.891   9.246  1.00  0.00     0.274 HD
ATOM     11  H21 UNL     1      24.574  -1.632  10.384  1.00  0.00     0.274 HD
ENDBRANCH   2   8
ENDBRANCH   1   2
BRANCH   1  12
HETATM   12  N3  UNL     1      27.486  -2.249   7.498  1.00  0.00    -0.254 N 
HETATM   13  N4  UNL     1      28.651  -2.399   6.895  1.00  0.00    -0.017 NA
HETATM   14  N5  UNL     1      28.816  -1.494   5.945  1.00  0.00    -0.265 N 
HETATM   15  C4  UNL     1      27.709  -0.707   5.913  1.00  0.00     0.180 A 
ATOM     16  H5  UNL     1      29.632  -1.403   5.340  1.00  0.00     0.186 HD
HETATM   17  N6  UNL     1      26.805   0.237   5.607  1.00  0.00    -0.280 N 
HETATM   18  C5  UNL     1      26.893  -1.202   6.895  1.00  0.00     0.183 A 
HETATM   19  N7  UNL     1      26.014  -0.232   6.549  1.00  0.00    -0.280 N 
ATOM     20  H6  UNL     1      26.751   0.997   4.930  1.00  0.00     0.188 HD
ATOM     21  H7  UNL     1      25.091   0.034   6.889  1.00  0.00     0.189 HD
ENDBRANCH   1  12
TORSDOF 5
ENDMDL
MODEL 4
REMARK VINA RESULT: -4.878577376      1.547      5.087
REMARK  5 active torsions:
REMARK  status: ('A' for Active; 'I' for Inactive)
REMARK    1  A    between atoms: N1_1  and  C1_5 
REMARK    2  A    between atoms: C1_5  and  C2_6 
REMARK    3  A    between atoms: C2_6  and  N2_7 
REMARK    4  A    between atoms: C2_6  and  C3_11 
REMARK    5  A    between atoms: C3_11  and  N3_12 
ROOT
HETATM    1  C3  UNL     1      27.434  -0.830   6.001  1.00  0.00     0.183 C 
ENDROOT
BRANCH   1   2
HETATM    2  C2  UNL     1      28.685  -1.057   5.195  1.00  0.00     0.228 C 
BRANCH   2   3
HETATM    3  C1  UNL     1      28.822  -0.094   4.045  1.00  0.00     0.264 C 
BRANCH   3   4
HETATM    4  N1  UNL     1      27.512   0.212   3.545  1.00  0.00    -0.077 N 
ATOM      5  H13 UNL     1      27.524   0.953   2.843  1.00  0.00     0.274 HD
ATOM      6  H12 UNL     1      27.135  -0.532   2.956  1.00  0.00     0.274 HD
ATOM      7  H11 UNL     1      26.904   0.431   4.335  1.00  0.00     0.274 HD
ENDBRANCH   3   4
ENDBRANCH   2   3
BRANCH   2   8
HETATM    8  N2  UNL     1      28.645  -2.398   4.658  1.00  0.00    -0.072 N 
ATOM      9  H23 UNL     1      29.143  -3.071   5.242  1.00  0.00     0.274 HD
ATOM     10  H22 UNL     1      27.718  -2.820   4.723  1.00  0.00     0.274 HD
ATOM     11  H21 UNL     1      28.999  -2.369   3.702  1.00  0.00     0.274 HD
ENDBRANCH   2   8
ENDBRANCH   1   2
BRANCH   1  12
HETATM   12  N3  UNL     1      27.375  -1.630   7.191  1.00  0.00    -0.254 N 
HETATM   13  N4  UNL     1      28.287  -2.443   7.693  1.00  0.00    -0.017 NA
HETATM   14  N5  UNL     1      27.859  -3.005   8.811  1.00  0.00    -0.265 N 
HETATM   15  C4  UNL     1      26.608  -2.544   9.066  1.00  0.00     0.180 A 
ATOM     16  H5  UNL     1      28.380  -3.670   9.384  1.00  0.00     0.186 HD
HETATM   17  N6  UNL     1      25.404  -2.312   9.614  1.00  0.00    -0.280 N 
HETATM   18  C5  UNL     1      26.329  -1.685   8.037  1.00  0.00     0.183 A 
HETATM   19  N7  UNL     1      25.128  -1.485   8.628  1.00  0.00    -0.280 N 
ATOM     20  H6  UNL     1      24.911  -2.638  10.445  1.00  0.00     0.188 HD
ATOM     21  H7  UNL     1      24.317  -0.912   8.397  1.00  0.00     0.189 HD
ENDBRANCH   1  12
TORSDOF 5
ENDMDL
MODEL 5
REMARK VINA RESULT: -4.859168843      1.300      2.189
REMARK  5 active torsions:
REMARK  status: ('A' for Active; 'I' for Inactive)
REMARK    1  A    between atoms: N1_1  and  C1_5 
REMARK    2  A    between atoms: C1_5  and  C2_6 
REMARK    3  A    between atoms: C2_6  and  N2_7 
REMARK    4  A    between atoms: C2_6  and  C3_11 
REMARK    5  A    between atoms: C3_11  and  N3_12 
ROOT
HETATM    1  C3  UNL     1      26.542  -1.783   7.876  1.00  0.00     0.183 C 
ENDROOT
BRANCH   1   2
HETATM    2  C2  UNL     1      27.033  -2.892   8.768  1.00  0.00     0.228 C 
BRANCH   2   3
HETATM    3  C1  UNL     1      26.301  -2.950  10.084  1.00  0.00     0.264 C 
BRANCH   3   4
HETATM    4  N1  UNL     1      25.220  -2.005  10.049  1.00  0.00    -0.077 N 
ATOM      5  H13 UNL     1      24.526  -2.178  10.777  1.00  0.00     0.274 HD
ATOM      6  H12 UNL     1      25.507  -1.072  10.347  1.00  0.00     0.274 HD
ATOM      7  H11 UNL     1      24.814  -2.009   9.113  1.00  0.00     0.274 HD
ENDBRANCH   3   4
ENDBRANCH   2   3
BRANCH   2   8
HETATM    8  N2  UNL     1      28.434  -2.672   9.041  1.00  0.00    -0.072 N 
ATOM      9  H23 UNL     1      28.588  -2.083   9.860  1.00  0.00     0.274 HD
ATOM     10  H22 UNL     1      28.905  -3.510   9.383  1.00  0.00     0.274 HD
ATOM     11  H21 UNL     1      28.868  -2.294   8.198  1.00  0.00     0.274 HD
ENDBRANCH   2   8
ENDBRANCH   1   2
BRANCH   1  12
HETATM   12  N3  UNL     1      27.331  -1.623   6.688  1.00  0.00    -0.254 N 
HETATM   13  N4  UNL     1      28.217  -2.447   6.160  1.00  0.00    -0.017 NA
HETATM   14  N5  UNL     1      28.738  -1.942   5.055  1.00  0.00    -0.265 N 
HETATM   15  C4  UNL     1      28.172  -0.727   4.836  1.00  0.00     0.180 A 
ATOM     16  H5  UNL     1      29.443  -2.388   4.467  1.00  0.00     0.186 HD
HETATM   17  N6  UNL     1      27.837   0.468   4.323  1.00  0.00    -0.280 N 
HETATM   18  C5  UNL     1      27.295  -0.552   5.873  1.00  0.00     0.183 A 
HETATM   19  N7  UNL     1      26.992   0.644   5.316  1.00  0.00    -0.280 N 
ATOM     20  H6  UNL     1      28.119   1.011   3.507  1.00  0.00     0.188 HD
ATOM     21  H7  UNL     1      26.353   1.397   5.570  1.00  0.00     0.189 HD
ENDBRANCH   1  12
TORSDOF 5
ENDMDL
