MODEL 1
REMARK VINA RESULT: -4.864573962      0.000      0.000
REMARK  6 active torsions:
REMARK  status: ('A' for Active; 'I' for Inactive)
REMARK    1  A    between atoms: N1_1  and  C1_4 
REMARK    2  A    between atoms: C2_7  and  C3_8 
REMARK    3  A    between atoms: C3_8  and  C4_9 
REMARK    4  A    between atoms: C4_9  and  C5_10 
REMARK    5  A    between atoms: C5_10  and  N3_11 
REMARK    6  A    between atoms: N5_17  and  N6_18 
ROOT
HETATM    1  C1  UNL     1      27.985  -1.919   7.156  1.00  0.00     0.713 A 
HETATM    2  N2  UNL     1      27.747  -2.754   8.177  1.00  0.00    -0.176 N 
ATOM      3  H2  UNL     1      28.409  -3.448   8.525  1.00  0.00     0.185 HD
HETATM    4  C2  UNL     1      26.494  -2.547   8.690  1.00  0.00     0.114 A 
HETATM    5  N4  UNL     1      25.985  -1.560   7.943  1.00  0.00    -0.253 N 
ATOM      6  H4  UNL     1      25.055  -1.158   8.061  1.00  0.00     0.191 HD
HETATM    7  N5  UNL     1      26.878  -1.173   7.012  1.00  0.00    -0.026 N 
ENDROOT
BRANCH   4   8
HETATM    8  C3  UNL     1      25.908  -3.324   9.804  1.00  0.00     0.080 C 
BRANCH   8   9
HETATM    9  C4  UNL     1      26.606  -3.132  11.094  1.00  0.00     0.034 C 
BRANCH   9  10
HETATM   10  C5  UNL     1      26.642  -1.711  11.595  1.00  0.00     0.230 C 
BRANCH  10  11
HETATM   11  N3  UNL     1      25.324  -1.185  11.667  1.00  0.00    -0.079 N 
ATOM     12  H33 UNL     1      24.639  -1.900  11.914  1.00  0.00     0.274 HD
ATOM     13  H32 UNL     1      25.201  -0.575  12.476  1.00  0.00     0.274 HD
ATOM     14  H31 UNL     1      25.085  -0.713  10.794  1.00  0.00     0.274 HD
ENDBRANCH  10  11
ENDBRANCH   9  10
ENDBRANCH   8   9
ENDBRANCH   4   8
BRANCH   1  15
HETATM   15  N1  UNL     1      29.080  -1.843   6.434  1.00  0.00    -0.231 N 
ATOM     16  H12 UNL     1      29.320  -2.424   5.630  1.00  0.00     0.174 HD
ATOM     17  H11 UNL     1      29.858  -1.196   6.564  1.00  0.00     0.174 HD
ENDBRANCH   1  15
BRANCH   7  18
HETATM   18  N6  UNL     1      26.658  -0.163   6.073  1.00  0.00    -0.309 N 
ATOM     19  H62 UNL     1      25.981  -0.217   5.312  1.00  0.00     0.179 HD
ATOM     20  H61 UNL     1      27.129   0.741   6.017  1.00  0.00     0.179 HD
ENDBRANCH   7  18
TORSDOF 6
ENDMDL
MODEL 2
REMARK VINA RESULT: -4.741002152      0.577      1.664
REMARK  6 active torsions:
REMARK  status: ('A' for Active; 'I' for Inactive)
REMARK    1  A    between atoms: N1_1  and  C1_4 
REMARK    2  A    between atoms: C2_7  and  C3_8 
REMARK    3  A    between atoms: C3_8  and  C4_9 
REMARK    4  A    between atoms: C4_9  and  C5_10 
REMARK    5  A    between atoms: C5_10  and  N3_11 
REMARK    6  A    between atoms: N5_17  and  N6_18 
ROOT
HETATM    1  C1  UNL     1      26.852  -1.135   6.960  1.00  0.00     0.713 A 
HETATM    2  N2  UNL     1      26.001  -1.556   7.906  1.00  0.00    -0.176 N 
ATOM      3  H2  UNL     1      25.068  -1.173   8.060  1.00  0.00     0.185 HD
HETATM    4  C2  UNL     1      26.556  -2.572   8.639  1.00  0.00     0.114 A 
HETATM    5  N4  UNL     1      27.769  -2.748   8.102  1.00  0.00    -0.253 N 
ATOM      6  H4  UNL     1      28.452  -3.437   8.416  1.00  0.00     0.191 HD
HETATM    7  N5  UNL     1      27.958  -1.885   7.086  1.00  0.00    -0.026 N 
ENDROOT
BRANCH   4   8
HETATM    8  C3  UNL     1      25.891  -3.238   9.781  1.00  0.00     0.080 C 
BRANCH   8   9
HETATM    9  C4  UNL     1      26.627  -3.105  11.056  1.00  0.00     0.034 C 
BRANCH   9  10
HETATM   10  C5  UNL     1      26.632  -1.720  11.649  1.00  0.00     0.230 C 
BRANCH  10  11
HETATM   11  N3  UNL     1      25.320  -1.175  11.631  1.00  0.00    -0.079 N 
ATOM     12  H33 UNL     1      25.149  -0.619  10.793  1.00  0.00     0.274 HD
ATOM     13  H32 UNL     1      24.611  -1.893  11.481  1.00  0.00     0.274 HD
ATOM     14  H31 UNL     1      25.148  -0.642  12.484  1.00  0.00     0.274 HD
ENDBRANCH  10  11
ENDBRANCH   9  10
ENDBRANCH   8   9
ENDBRANCH   4   8
BRANCH   1  15
HETATM   15  N1  UNL     1      26.649  -0.180   6.081  1.00  0.00    -0.231 N 
ATOM     16  H12 UNL     1      27.339   0.493   5.744  1.00  0.00     0.174 HD
ATOM     17  H11 UNL     1      25.776   0.039   5.601  1.00  0.00     0.174 HD
ENDBRANCH   1  15
BRANCH   7  18
HETATM   18  N6  UNL     1      29.120  -1.809   6.315  1.00  0.00    -0.309 N 
ATOM     19  H62 UNL     1      29.980  -2.324   6.510  1.00  0.00     0.179 HD
ATOM     20  H61 UNL     1      29.268  -1.247   5.476  1.00  0.00     0.179 HD
ENDBRANCH   7  18
TORSDOF 6
ENDMDL
MODEL 3
REMARK VINA RESULT: -4.530675089      1.604      2.455
REMARK  6 active torsions:
REMARK  status: ('A' for Active; 'I' for Inactive)
REMARK    1  A    between atoms: N1_1  and  C1_4 
REMARK    2  A    between atoms: C2_7  and  C3_8 
REMARK    3  A    between atoms: C3_8  and  C4_9 
REMARK    4  A    between atoms: C4_9  and  C5_10 
REMARK    5  A    between atoms: C5_10  and  N3_11 
REMARK    6  A    between atoms: N5_17  and  N6_18 
ROOT
HETATM    1  C1  UNL     1      29.171  -1.174   4.979  1.00  0.00     0.713 A 
HETATM    2  N2  UNL     1      29.370  -1.886   6.097  1.00  0.00    -0.176 N 
ATOM      3  H2  UNL     1      30.200  -2.449   6.286  1.00  0.00     0.185 HD
HETATM    4  C2  UNL     1      28.308  -1.754   6.951  1.00  0.00     0.114 A 
HETATM    5  N4  UNL     1      27.462  -0.938   6.309  1.00  0.00    -0.253 N 
ATOM      6  H4  UNL     1      26.560  -0.630   6.671  1.00  0.00     0.191 HD
HETATM    7  N5  UNL     1      27.975  -0.582   5.116  1.00  0.00    -0.026 N 
ENDROOT
BRANCH   4   8
HETATM    8  C3  UNL     1      28.197  -2.435   8.259  1.00  0.00     0.080 C 
BRANCH   8   9
HETATM    9  C4  UNL     1      26.861  -3.015   8.516  1.00  0.00     0.034 C 
BRANCH   9  10
HETATM   10  C5  UNL     1      26.375  -2.897   9.937  1.00  0.00     0.230 C 
BRANCH  10  11
HETATM   11  N3  UNL     1      25.271  -2.005  10.004  1.00  0.00    -0.079 N 
ATOM     12  H33 UNL     1      25.273  -1.336   9.233  1.00  0.00     0.274 HD
ATOM     13  H32 UNL     1      24.390  -2.473   9.794  1.00  0.00     0.274 HD
ATOM     14  H31 UNL     1      25.250  -1.540  10.912  1.00  0.00     0.274 HD
ENDBRANCH  10  11
ENDBRANCH   9  10
ENDBRANCH   8   9
ENDBRANCH   4   8
BRANCH   1  15
HETATM   15  N1  UNL     1      29.982  -1.073   3.950  1.00  0.00    -0.231 N 
ATOM     16  H12 UNL     1      30.969  -0.816   3.977  1.00  0.00     0.174 HD
ATOM     17  H11 UNL     1      29.754  -1.234   2.969  1.00  0.00     0.174 HD
ENDBRANCH   1  15
BRANCH   7  18
HETATM   18  N6  UNL     1      27.342   0.263   4.201  1.00  0.00    -0.309 N 
ATOM     19  H62 UNL     1      27.826   0.815   3.492  1.00  0.00     0.179 HD
ATOM     20  H61 UNL     1      26.341   0.441   4.116  1.00  0.00     0.179 HD
ENDBRANCH   7  18
TORSDOF 6
ENDMDL
MODEL 4
REMARK VINA RESULT: -4.493278635      1.628      3.010
REMARK  6 active torsions:
REMARK  status: ('A' for Active; 'I' for Inactive)
REMARK    1  A    between atoms: N1_1  and  C1_4 
REMARK    2  A    between atoms: C2_7  and  C3_8 
REMARK    3  A    between atoms: C3_8  and  C4_9 
REMARK    4  A    between atoms: C4_9  and  C5_10 
REMARK    5  A    between atoms: C5_10  and  N3_11 
REMARK    6  A    between atoms: N5_17  and  N6_18 
ROOT
HETATM    1  C1  UNL     1      27.964  -0.534   5.084  1.00  0.00     0.713 A 
HETATM    2  N2  UNL     1      27.511  -0.979   6.264  1.00  0.00    -0.176 N 
ATOM      3  H2  UNL     1      26.598  -0.752   6.657  1.00  0.00     0.185 HD
HETATM    4  C2  UNL     1      28.443  -1.779   6.870  1.00  0.00     0.114 A 
HETATM    5  N4  UNL     1      29.473  -1.801   6.014  1.00  0.00    -0.253 N 
ATOM      6  H4  UNL     1      30.343  -2.312   6.161  1.00  0.00     0.191 HD
HETATM    7  N5  UNL     1      29.193  -1.052   4.931  1.00  0.00    -0.026 N 
ENDROOT
BRANCH   4   8
HETATM    8  C3  UNL     1      28.269  -2.405   8.199  1.00  0.00     0.080 C 
BRANCH   8   9
HETATM    9  C4  UNL     1      26.901  -2.912   8.442  1.00  0.00     0.034 C 
BRANCH   9  10
HETATM   10  C5  UNL     1      26.441  -2.847   9.875  1.00  0.00     0.230 C 
BRANCH  10  11
HETATM   11  N3  UNL     1      25.297  -2.011   9.984  1.00  0.00    -0.079 N 
ATOM     12  H33 UNL     1      24.986  -1.913  10.951  1.00  0.00     0.274 HD
ATOM     13  H32 UNL     1      25.520  -1.033   9.798  1.00  0.00     0.274 HD
ATOM     14  H31 UNL     1      24.552  -2.354   9.377  1.00  0.00     0.274 HD
ENDBRANCH  10  11
ENDBRANCH   9  10
ENDBRANCH   8   9
ENDBRANCH   4   8
BRANCH   1  15
HETATM   15  N1  UNL     1      27.336   0.253   4.240  1.00  0.00    -0.231 N 
ATOM     16  H12 UNL     1      27.559   0.389   3.253  1.00  0.00     0.174 HD
ATOM     17  H11 UNL     1      26.531   0.849   4.436  1.00  0.00     0.174 HD
ENDBRANCH   1  15
BRANCH   7  18
HETATM   18  N6  UNL     1      30.059  -0.866   3.850  1.00  0.00    -0.309 N 
ATOM     19  H62 UNL     1      29.759  -0.651   2.899  1.00  0.00     0.179 HD
ATOM     20  H61 UNL     1      31.078  -0.918   3.861  1.00  0.00     0.179 HD
ENDBRANCH   7  18
TORSDOF 6
ENDMDL
MODEL 5
REMARK VINA RESULT: -4.303889418      1.119      2.054
REMARK  6 active torsions:
REMARK  status: ('A' for Active; 'I' for Inactive)
REMARK    1  A    between atoms: N1_1  and  C1_4 
REMARK    2  A    between atoms: C2_7  and  C3_8 
REMARK    3  A    between atoms: C3_8  and  C4_9 
REMARK    4  A    between atoms: C4_9  and  C5_10 
REMARK    5  A    between atoms: C5_10  and  N3_11 
REMARK    6  A    between atoms: N5_17  and  N6_18 
ROOT
HETATM    1  C1  UNL     1      28.649  -1.857   6.592  1.00  0.00     0.713 A 
HETATM    2  N2  UNL     1      27.392  -2.010   7.031  1.00  0.00    -0.176 N 
ATOM      3  H2  UNL     1      26.559  -1.900   6.452  1.00  0.00     0.185 HD
HETATM    4  C2  UNL     1      27.380  -2.336   8.361  1.00  0.00     0.114 A 
HETATM    5  N4  UNL     1      28.672  -2.373   8.709  1.00  0.00    -0.253 N 
ATOM      6  H4  UNL     1      29.019  -2.588   9.643  1.00  0.00     0.191 HD
HETATM    7  N5  UNL     1      29.448  -2.085   7.646  1.00  0.00    -0.026 N 
ENDROOT
BRANCH   4   8
HETATM    8  C3  UNL     1      26.151  -2.543   9.159  1.00  0.00     0.080 C 
BRANCH   8   9
HETATM    9  C4  UNL     1      26.407  -3.074  10.515  1.00  0.00     0.034 C 
BRANCH   9  10
HETATM   10  C5  UNL     1      26.534  -2.032  11.595  1.00  0.00     0.230 C 
BRANCH  10  11
HETATM   11  N3  UNL     1      25.398  -1.178  11.588  1.00  0.00    -0.079 N 
ATOM     12  H33 UNL     1      25.662  -0.192  11.592  1.00  0.00     0.274 HD
ATOM     13  H32 UNL     1      24.912  -1.198  10.691  1.00  0.00     0.274 HD
ATOM     14  H31 UNL     1      24.778  -1.410  12.364  1.00  0.00     0.274 HD
ENDBRANCH  10  11
ENDBRANCH   9  10
ENDBRANCH   8   9
ENDBRANCH   4   8
BRANCH   1  15
HETATM   15  N1  UNL     1      29.031  -1.545   5.374  1.00  0.00    -0.231 N 
ATOM     16  H12 UNL     1      29.991  -1.439   5.046  1.00  0.00     0.174 HD
ATOM     17  H11 UNL     1      28.430  -1.360   4.570  1.00  0.00     0.174 HD
ENDBRANCH   1  15
BRANCH   7  18
HETATM   18  N6  UNL     1      30.844  -2.040   7.673  1.00  0.00    -0.309 N 
ATOM     19  H62 UNL     1      31.437  -1.964   6.845  1.00  0.00     0.179 HD
ATOM     20  H61 UNL     1      31.446  -2.076   8.495  1.00  0.00     0.179 HD
ENDBRANCH   7  18
TORSDOF 6
ENDMDL
