MODEL 1
REMARK VINA RESULT: -5.301893315      0.000      0.000
REMARK  6 active torsions:
REMARK  status: ('A' for Active; 'I' for Inactive)
REMARK    1  A    between atoms: N1_1  and  C1_5 
REMARK    2  A    between atoms: C1_5  and  C2_6 
REMARK    3  A    between atoms: C2_6  and  C3_7 
REMARK    4  A    between atoms: C3_7  and  N2_8 
REMARK    5  A    between atoms: N2_8  and  C4_10 
REMARK    6  A    between atoms: N5_16  and  N6_17 
ROOT
HETATM    1  C4  UNL     1      27.490  -1.525   6.837  1.00  0.00     0.700 A 
HETATM    2  N3  UNL     1      28.594  -2.091   6.354  1.00  0.00    -0.197 N 
ATOM      3  H3  UNL     1      29.065  -2.903   6.754  1.00  0.00     0.183 HD
HETATM    4  C5  UNL     1      28.989  -1.424   5.255  1.00  0.00     0.153 A 
HETATM    5  C6  UNL     1      28.101  -0.391   5.030  1.00  0.00     0.171 A 
HETATM    6  N4  UNL     1      28.128   0.575   3.976  1.00  0.00    -0.079 NA
HETATM    7  N5  UNL     1      27.191  -0.492   6.031  1.00  0.00    -0.078 N 
ENDROOT
BRANCH   1   8
HETATM    8  N2  UNL     1      26.786  -1.856   7.880  1.00  0.00    -0.224 N 
ATOM      9  H2  UNL     1      26.014  -1.254   8.167  1.00  0.00     0.177 HD
BRANCH   8  10
HETATM   10  C3  UNL     1      27.062  -3.045   8.642  1.00  0.00     0.140 C 
BRANCH  10  11
HETATM   11  C2  UNL     1      26.081  -3.126   9.778  1.00  0.00     0.047 C 
BRANCH  11  12
HETATM   12  C1  UNL     1      26.536  -2.349  10.993  1.00  0.00     0.231 C 
BRANCH  12  13
HETATM   13  N1  UNL     1      25.471  -1.415  11.328  1.00  0.00    -0.079 N 
ATOM     14  H13 UNL     1      24.899  -1.157  10.525  1.00  0.00     0.274 HD
ATOM     15  H12 UNL     1      24.730  -1.838  11.887  1.00  0.00     0.274 HD
ATOM     16  H11 UNL     1      25.908  -0.613  11.784  1.00  0.00     0.274 HD
ENDBRANCH  12  13
ENDBRANCH  11  12
ENDBRANCH  10  11
ENDBRANCH   8  10
ENDBRANCH   1   8
BRANCH   7  17
HETATM   17  N6  UNL     1      26.117   0.386   6.155  1.00  0.00    -0.323 N 
ATOM     18  H62 UNL     1      26.187   1.269   6.661  1.00  0.00     0.178 HD
ATOM     19  H61 UNL     1      25.178   0.264   5.777  1.00  0.00     0.178 HD
ENDBRANCH   7  17
TORSDOF 6
ENDMDL
MODEL 2
REMARK VINA RESULT: -4.951359522      1.343      2.215
REMARK  6 active torsions:
REMARK  status: ('A' for Active; 'I' for Inactive)
REMARK    1  A    between atoms: N1_1  and  C1_5 
REMARK    2  A    between atoms: C1_5  and  C2_6 
REMARK    3  A    between atoms: C2_6  and  C3_7 
REMARK    4  A    between atoms: C3_7  and  N2_8 
REMARK    5  A    between atoms: N2_8  and  C4_10 
REMARK    6  A    between atoms: N5_16  and  N6_17 
ROOT
HETATM    1  C4  UNL     1      26.551  -1.996   7.964  1.00  0.00     0.700 A 
HETATM    2  N3  UNL     1      25.444  -1.271   7.814  1.00  0.00    -0.197 N 
ATOM      3  H3  UNL     1      24.581  -1.394   8.344  1.00  0.00     0.183 HD
HETATM    4  C5  UNL     1      25.644  -0.352   6.852  1.00  0.00     0.153 A 
HETATM    5  C6  UNL     1      26.929  -0.499   6.371  1.00  0.00     0.171 A 
HETATM    6  N4  UNL     1      27.574   0.262   5.345  1.00  0.00    -0.079 NA
HETATM    7  N5  UNL     1      27.453  -1.525   7.086  1.00  0.00    -0.078 N 
ENDROOT
BRANCH   1   8
HETATM    8  N2  UNL     1      26.782  -2.981   8.782  1.00  0.00    -0.224 N 
ATOM      9  H2  UNL     1      27.637  -3.528   8.668  1.00  0.00     0.177 HD
BRANCH   8  10
HETATM   10  C3  UNL     1      25.871  -3.325   9.842  1.00  0.00     0.140 C 
BRANCH  10  11
HETATM   11  C2  UNL     1      26.601  -3.222  11.153  1.00  0.00     0.047 C 
BRANCH  11  12
HETATM   12  C1  UNL     1      26.574  -1.821  11.721  1.00  0.00     0.231 C 
BRANCH  12  13
HETATM   13  N1  UNL     1      25.276  -1.250  11.393  1.00  0.00    -0.079 N 
ATOM     14  H13 UNL     1      24.495  -1.793  11.763  1.00  0.00     0.274 HD
ATOM     15  H12 UNL     1      25.082  -0.384  11.894  1.00  0.00     0.274 HD
ATOM     16  H11 UNL     1      25.242  -1.142  10.379  1.00  0.00     0.274 HD
ENDBRANCH  12  13
ENDBRANCH  11  12
ENDBRANCH  10  11
ENDBRANCH   8  10
ENDBRANCH   1   8
BRANCH   7  17
HETATM   17  N6  UNL     1      28.753  -1.983   6.892  1.00  0.00    -0.323 N 
ATOM     18  H62 UNL     1      29.218  -2.607   7.553  1.00  0.00     0.178 HD
ATOM     19  H61 UNL     1      29.371  -1.767   6.110  1.00  0.00     0.178 HD
ENDBRANCH   7  17
TORSDOF 6
ENDMDL
MODEL 3
REMARK VINA RESULT: -4.887192951      1.143      1.285
REMARK  6 active torsions:
REMARK  status: ('A' for Active; 'I' for Inactive)
REMARK    1  A    between atoms: N1_1  and  C1_5 
REMARK    2  A    between atoms: C1_5  and  C2_6 
REMARK    3  A    between atoms: C2_6  and  C3_7 
REMARK    4  A    between atoms: C3_7  and  N2_8 
REMARK    5  A    between atoms: N2_8  and  C4_10 
REMARK    6  A    between atoms: N5_16  and  N6_17 
ROOT
HETATM    1  C4  UNL     1      28.270  -1.560   5.949  1.00  0.00     0.700 A 
HETATM    2  N3  UNL     1      29.362  -1.936   5.286  1.00  0.00    -0.197 N 
ATOM      3  H3  UNL     1      29.934  -2.752   5.504  1.00  0.00     0.183 HD
HETATM    4  C5  UNL     1      29.591  -1.070   4.283  1.00  0.00     0.153 A 
HETATM    5  C6  UNL     1      28.606  -0.104   4.309  1.00  0.00     0.171 A 
HETATM    6  N4  UNL     1      28.451   1.015   3.430  1.00  0.00    -0.079 NA
HETATM    7  N5  UNL     1      27.812  -0.445   5.353  1.00  0.00    -0.078 N 
ENDROOT
BRANCH   1   8
HETATM    8  N2  UNL     1      27.702  -2.115   6.979  1.00  0.00    -0.224 N 
ATOM      9  H2  UNL     1      26.744  -2.454   6.893  1.00  0.00     0.177 HD
BRANCH   8  10
HETATM   10  C3  UNL     1      28.385  -2.267   8.238  1.00  0.00     0.140 C 
BRANCH  10  11
HETATM   11  C2  UNL     1      27.378  -2.656   9.285  1.00  0.00     0.047 C 
BRANCH  11  12
HETATM   12  C1  UNL     1      25.986  -2.165   8.959  1.00  0.00     0.231 C 
BRANCH  12  13
HETATM   13  N1  UNL     1      25.298  -1.956  10.224  1.00  0.00    -0.079 N 
ATOM     14  H13 UNL     1      25.183  -2.813  10.764  1.00  0.00     0.274 HD
ATOM     15  H12 UNL     1      25.859  -1.446  10.906  1.00  0.00     0.274 HD
ATOM     16  H11 UNL     1      24.412  -1.496  10.012  1.00  0.00     0.274 HD
ENDBRANCH  12  13
ENDBRANCH  11  12
ENDBRANCH  10  11
ENDBRANCH   8  10
ENDBRANCH   1   8
BRANCH   7  17
HETATM   17  N6  UNL     1      26.689   0.296   5.712  1.00  0.00    -0.323 N 
ATOM     18  H62 UNL     1      25.864   0.363   5.116  1.00  0.00     0.178 HD
ATOM     19  H61 UNL     1      26.557   0.836   6.567  1.00  0.00     0.178 HD
ENDBRANCH   7  17
TORSDOF 6
ENDMDL
MODEL 4
REMARK VINA RESULT: -4.531943761      1.623      5.150
REMARK  6 active torsions:
REMARK  status: ('A' for Active; 'I' for Inactive)
REMARK    1  A    between atoms: N1_1  and  C1_5 
REMARK    2  A    between atoms: C1_5  and  C2_6 
REMARK    3  A    between atoms: C2_6  and  C3_7 
REMARK    4  A    between atoms: C3_7  and  N2_8 
REMARK    5  A    between atoms: N2_8  and  C4_10 
REMARK    6  A    between atoms: N5_16  and  N6_17 
ROOT
HETATM    1  C4  UNL     1      27.133  -1.034   6.539  1.00  0.00     0.700 A 
HETATM    2  N3  UNL     1      28.130  -1.800   6.978  1.00  0.00    -0.197 N 
ATOM      3  H3  UNL     1      29.053  -1.870   6.549  1.00  0.00     0.183 HD
HETATM    4  C5  UNL     1      27.728  -2.465   8.075  1.00  0.00     0.153 A 
HETATM    5  C6  UNL     1      26.422  -2.109   8.345  1.00  0.00     0.171 A 
HETATM    6  N4  UNL     1      25.590  -2.569   9.415  1.00  0.00    -0.079 NA
HETATM    7  N5  UNL     1      26.095  -1.223   7.372  1.00  0.00    -0.078 N 
ENDROOT
BRANCH   1   8
HETATM    8  N2  UNL     1      27.101  -0.235   5.513  1.00  0.00    -0.224 N 
ATOM      9  H2  UNL     1      26.246   0.286   5.318  1.00  0.00     0.177 HD
BRANCH   8  10
HETATM   10  C3  UNL     1      28.235  -0.063   4.643  1.00  0.00     0.140 C 
BRANCH  10  11
HETATM   11  C2  UNL     1      27.855  -0.524   3.263  1.00  0.00     0.047 C 
BRANCH  11  12
HETATM   12  C1  UNL     1      28.875  -1.467   2.667  1.00  0.00     0.231 C 
BRANCH  12  13
HETATM   13  N1  UNL     1      29.023  -2.580   3.593  1.00  0.00    -0.079 N 
ATOM     14  H13 UNL     1      29.314  -3.444   3.136  1.00  0.00     0.274 HD
ATOM     15  H12 UNL     1      29.828  -2.481   4.211  1.00  0.00     0.274 HD
ATOM     16  H11 UNL     1      28.140  -2.672   4.096  1.00  0.00     0.274 HD
ENDBRANCH  12  13
ENDBRANCH  11  12
ENDBRANCH  10  11
ENDBRANCH   8  10
ENDBRANCH   1   8
BRANCH   7  17
HETATM   17  N6  UNL     1      24.840  -0.625   7.297  1.00  0.00    -0.323 N 
ATOM     18  H62 UNL     1      24.666   0.326   7.623  1.00  0.00     0.178 HD
ATOM     19  H61 UNL     1      23.983  -1.038   6.928  1.00  0.00     0.178 HD
ENDBRANCH   7  17
TORSDOF 6
ENDMDL
MODEL 5
REMARK VINA RESULT: -4.507283852      0.980      1.780
REMARK  6 active torsions:
REMARK  status: ('A' for Active; 'I' for Inactive)
REMARK    1  A    between atoms: N1_1  and  C1_5 
REMARK    2  A    between atoms: C1_5  and  C2_6 
REMARK    3  A    between atoms: C2_6  and  C3_7 
REMARK    4  A    between atoms: C3_7  and  N2_8 
REMARK    5  A    between atoms: N2_8  and  C4_10 
REMARK    6  A    between atoms: N5_16  and  N6_17 
ROOT
HETATM    1  C4  UNL     1      27.623  -1.539   6.619  1.00  0.00     0.700 A 
HETATM    2  N3  UNL     1      26.639  -0.647   6.701  1.00  0.00    -0.197 N 
ATOM      3  H3  UNL     1      25.902  -0.643   7.406  1.00  0.00     0.183 HD
HETATM    4  C5  UNL     1      26.770   0.248   5.706  1.00  0.00     0.153 A 
HETATM    5  C6  UNL     1      27.882  -0.088   4.961  1.00  0.00     0.171 A 
HETATM    6  N4  UNL     1      28.403   0.583   3.809  1.00  0.00    -0.079 NA
HETATM    7  N5  UNL     1      28.379  -1.198   5.561  1.00  0.00    -0.078 N 
ENDROOT
BRANCH   1   8
HETATM    8  N2  UNL     1      27.867  -2.566   7.381  1.00  0.00    -0.224 N 
ATOM      9  H2  UNL     1      28.069  -3.467   6.947  1.00  0.00     0.177 HD
BRANCH   8  10
HETATM   10  C3  UNL     1      27.860  -2.470   8.817  1.00  0.00     0.140 C 
BRANCH  10  11
HETATM   11  C2  UNL     1      26.604  -3.113   9.335  1.00  0.00     0.047 C 
BRANCH  11  12
HETATM   12  C1  UNL     1      26.388  -2.856  10.809  1.00  0.00     0.231 C 
BRANCH  12  13
HETATM   13  N1  UNL     1      25.529  -1.686  10.920  1.00  0.00    -0.079 N 
ATOM     14  H13 UNL     1      25.980  -0.902  11.391  1.00  0.00     0.274 HD
ATOM     15  H12 UNL     1      25.365  -1.224  10.025  1.00  0.00     0.274 HD
ATOM     16  H11 UNL     1      24.669  -1.987  11.378  1.00  0.00     0.274 HD
ENDBRANCH  12  13
ENDBRANCH  11  12
ENDBRANCH  10  11
ENDBRANCH   8  10
ENDBRANCH   1   8
BRANCH   7  17
HETATM   17  N6  UNL     1      29.518  -1.851   5.098  1.00  0.00    -0.323 N 
ATOM     18  H62 UNL     1      29.948  -2.626   5.603  1.00  0.00     0.178 HD
ATOM     19  H61 UNL     1      30.037  -1.650   4.243  1.00  0.00     0.178 HD
ENDBRANCH   7  17
TORSDOF 6
ENDMDL
