MODEL 1
REMARK VINA RESULT: -4.749712534      0.000      0.000
REMARK  6 active torsions:
REMARK  status: ('A' for Active; 'I' for Inactive)
REMARK    1  A    between atoms: C2_2  and  C3_3 
REMARK    2  A    between atoms: C3_3  and  N1_4 
REMARK    3  A    between atoms: N1_4  and  C4_7 
REMARK    4  A    between atoms: C4_7  and  C5_8 
REMARK    5  A    between atoms: N3_12  and  N4_14 
REMARK    6  A    between atoms: N4_14  and  N5_16 
ROOT
HETATM    1  C5  UNL     1      17.927  41.129  55.398  1.00  0.00     0.177 A 
HETATM    2  N2  UNL     1      18.150  39.666  55.434  1.00  0.00    -0.364 N 
ATOM      3  H2  UNL     1      17.878  38.728  55.139  1.00  0.00     0.161 HD
HETATM    4  C6  UNL     1      19.031  40.531  56.187  1.00  0.00     0.118 A 
HETATM    5  N3  UNL     1      20.050  40.556  56.969  1.00  0.00    -0.273 N 
ATOM      6  H3  UNL     1      20.518  39.694  57.248  1.00  0.00     0.190 HD
ENDROOT
BRANCH   1   7
HETATM    7  C4  UNL     1      16.706  41.566  56.162  1.00  0.00     0.265 C 
BRANCH   7   8
HETATM    8  N1  UNL     1      16.321  42.928  55.848  1.00  0.00    -0.070 N 
ATOM      9  H12 UNL     1      16.903  43.626  56.313  1.00  0.00     0.277 HD
ATOM     10  H11 UNL     1      15.432  43.200  56.267  1.00  0.00     0.277 HD
BRANCH   8  11
HETATM   11  C3  UNL     1      16.332  43.050  54.407  1.00  0.00     0.259 C 
BRANCH  11  12
HETATM   12  C2  UNL     1      15.950  44.378  53.923  1.00  0.00    -0.010 C 
HETATM   13  C1  UNL     1      15.500  45.291  54.765  1.00  0.00     0.008 C 
ENDBRANCH  11  12
ENDBRANCH   8  11
ENDBRANCH   7   8
ENDBRANCH   1   7
BRANCH   5  14
HETATM   14  N4  UNL     1      20.499  41.804  57.427  1.00  0.00    -0.248 N 
ATOM     15  H4  UNL     1      19.887  42.618  57.487  1.00  0.00     0.207 HD
BRANCH  14  16
HETATM   16  N5  UNL     1      21.739  41.846  57.765  1.00  0.00    -0.331 N 
ATOM     17  H52 UNL     1      22.461  41.394  57.205  1.00  0.00     0.178 HD
ATOM     18  H51 UNL     1      21.936  42.359  58.625  1.00  0.00     0.178 HD
ENDBRANCH  14  16
ENDBRANCH   5  14
TORSDOF 6
ENDMDL
MODEL 2
REMARK VINA RESULT: -4.718796326      1.030      1.110
REMARK  6 active torsions:
REMARK  status: ('A' for Active; 'I' for Inactive)
REMARK    1  A    between atoms: C2_2  and  C3_3 
REMARK    2  A    between atoms: C3_3  and  N1_4 
REMARK    3  A    between atoms: N1_4  and  C4_7 
REMARK    4  A    between atoms: C4_7  and  C5_8 
REMARK    5  A    between atoms: N3_12  and  N4_14 
REMARK    6  A    between atoms: N4_14  and  N5_16 
ROOT
HETATM    1  C5  UNL     1      17.843  41.212  54.944  1.00  0.00     0.177 A 
HETATM    2  N2  UNL     1      17.467  39.897  55.508  1.00  0.00    -0.364 N 
ATOM      3  H2  UNL     1      16.943  39.025  55.433  1.00  0.00     0.161 HD
HETATM    4  C6  UNL     1      18.381  40.742  56.244  1.00  0.00     0.118 A 
HETATM    5  N3  UNL     1      19.086  40.834  57.314  1.00  0.00    -0.273 N 
ATOM      6  H3  UNL     1      19.095  40.082  58.003  1.00  0.00     0.190 HD
ENDROOT
BRANCH   1   7
HETATM    7  C4  UNL     1      16.730  42.224  54.997  1.00  0.00     0.265 C 
BRANCH   7   8
HETATM    8  N1  UNL     1      16.380  42.722  53.680  1.00  0.00    -0.070 N 
ATOM      9  H12 UNL     1      15.581  42.239  53.269  1.00  0.00     0.277 HD
ATOM     10  H11 UNL     1      17.064  42.477  52.964  1.00  0.00     0.277 HD
BRANCH   8  11
HETATM   11  C3  UNL     1      16.176  44.148  53.807  1.00  0.00     0.259 C 
BRANCH  11  12
HETATM   12  C2  UNL     1      15.669  44.559  55.118  1.00  0.00    -0.010 C 
HETATM   13  C1  UNL     1      14.976  45.676  55.246  1.00  0.00     0.008 C 
ENDBRANCH  11  12
ENDBRANCH   8  11
ENDBRANCH   7   8
ENDBRANCH   1   7
BRANCH   5  14
HETATM   14  N4  UNL     1      19.844  41.999  57.507  1.00  0.00    -0.248 N 
ATOM     15  H4  UNL     1      19.422  42.927  57.541  1.00  0.00     0.207 HD
BRANCH  14  16
HETATM   16  N5  UNL     1      21.109  41.811  57.639  1.00  0.00    -0.331 N 
ATOM     17  H52 UNL     1      21.627  41.200  57.007  1.00  0.00     0.178 HD
ATOM     18  H51 UNL     1      21.543  42.313  58.414  1.00  0.00     0.178 HD
ENDBRANCH  14  16
ENDBRANCH   5  14
TORSDOF 6
ENDMDL
MODEL 3
REMARK VINA RESULT: -4.629383170      1.459      2.132
REMARK  6 active torsions:
REMARK  status: ('A' for Active; 'I' for Inactive)
REMARK    1  A    between atoms: C2_2  and  C3_3 
REMARK    2  A    between atoms: C3_3  and  N1_4 
REMARK    3  A    between atoms: N1_4  and  C4_7 
REMARK    4  A    between atoms: C4_7  and  C5_8 
REMARK    5  A    between atoms: N3_12  and  N4_14 
REMARK    6  A    between atoms: N4_14  and  N5_16 
ROOT
HETATM    1  C5  UNL     1      16.764  41.631  56.127  1.00  0.00     0.177 A 
HETATM    2  N2  UNL     1      17.310  42.463  57.222  1.00  0.00    -0.364 N 
ATOM      3  H2  UNL     1      17.230  43.279  57.830  1.00  0.00     0.161 HD
HETATM    4  C6  UNL     1      18.036  41.284  56.807  1.00  0.00     0.118 A 
HETATM    5  N3  UNL     1      19.085  40.575  57.022  1.00  0.00    -0.273 N 
ATOM      6  H3  UNL     1      19.756  40.836  57.744  1.00  0.00     0.190 HD
ENDROOT
BRANCH   1   7
HETATM    7  C4  UNL     1      16.874  42.280  54.773  1.00  0.00     0.265 C 
BRANCH   7   8
HETATM    8  N1  UNL     1      15.662  42.986  54.404  1.00  0.00    -0.070 N 
ATOM      9  H12 UNL     1      15.006  43.088  55.178  1.00  0.00     0.277 HD
ATOM     10  H11 UNL     1      15.055  42.443  53.789  1.00  0.00     0.277 HD
BRANCH   8  11
HETATM   11  C3  UNL     1      16.067  44.251  53.831  1.00  0.00     0.259 C 
BRANCH  11  12
HETATM   12  C2  UNL     1      15.629  45.415  54.603  1.00  0.00    -0.010 C 
HETATM   13  C1  UNL     1      14.827  45.265  55.641  1.00  0.00     0.008 C 
ENDBRANCH  11  12
ENDBRANCH   8  11
ENDBRANCH   7   8
ENDBRANCH   1   7
BRANCH   5  14
HETATM   14  N4  UNL     1      19.281  39.430  56.234  1.00  0.00    -0.248 N 
ATOM     15  H4  UNL     1      18.871  39.328  55.306  1.00  0.00     0.207 HD
BRANCH  14  16
HETATM   16  N5  UNL     1      20.016  38.520  56.768  1.00  0.00    -0.331 N 
ATOM     17  H52 UNL     1      20.489  38.670  57.659  1.00  0.00     0.178 HD
ATOM     18  H51 UNL     1      20.086  37.653  56.235  1.00  0.00     0.178 HD
ENDBRANCH  14  16
ENDBRANCH   5  14
TORSDOF 6
ENDMDL
MODEL 4
REMARK VINA RESULT: -4.566037608      0.740      1.006
REMARK  6 active torsions:
REMARK  status: ('A' for Active; 'I' for Inactive)
REMARK    1  A    between atoms: C2_2  and  C3_3 
REMARK    2  A    between atoms: C3_3  and  N1_4 
REMARK    3  A    between atoms: N1_4  and  C4_7 
REMARK    4  A    between atoms: C4_7  and  C5_8 
REMARK    5  A    between atoms: N3_12  and  N4_14 
REMARK    6  A    between atoms: N4_14  and  N5_16 
ROOT
HETATM    1  C5  UNL     1      17.827  41.521  55.574  1.00  0.00     0.177 A 
HETATM    2  N2  UNL     1      17.790  40.055  55.772  1.00  0.00    -0.364 N 
ATOM      3  H2  UNL     1      17.358  39.152  55.575  1.00  0.00     0.161 HD
HETATM    4  C6  UNL     1      18.808  40.830  56.446  1.00  0.00     0.118 A 
HETATM    5  N3  UNL     1      19.814  40.762  57.241  1.00  0.00    -0.273 N 
ATOM      6  H3  UNL     1      20.124  39.868  57.622  1.00  0.00     0.190 HD
ENDROOT
BRANCH   1   7
HETATM    7  C4  UNL     1      16.701  42.245  56.261  1.00  0.00     0.265 C 
BRANCH   7   8
HETATM    8  N1  UNL     1      15.669  42.662  55.331  1.00  0.00    -0.070 N 
ATOM      9  H12 UNL     1      14.737  42.346  55.599  1.00  0.00     0.277 HD
ATOM     10  H11 UNL     1      15.719  42.178  54.435  1.00  0.00     0.277 HD
BRANCH   8  11
HETATM   11  C3  UNL     1      15.768  44.100  55.206  1.00  0.00     0.259 C 
BRANCH  11  12
HETATM   12  C2  UNL     1      16.012  44.559  53.837  1.00  0.00    -0.010 C 
HETATM   13  C1  UNL     1      16.402  43.705  52.907  1.00  0.00     0.008 C 
ENDBRANCH  11  12
ENDBRANCH   8  11
ENDBRANCH   7   8
ENDBRANCH   1   7
BRANCH   5  14
HETATM   14  N4  UNL     1      20.476  41.955  57.571  1.00  0.00    -0.248 N 
ATOM     15  H4  UNL     1      19.978  42.833  57.721  1.00  0.00     0.207 HD
BRANCH  14  16
HETATM   16  N5  UNL     1      21.754  41.860  57.672  1.00  0.00    -0.331 N 
ATOM     17  H52 UNL     1      22.326  42.649  57.974  1.00  0.00     0.178 HD
ATOM     18  H51 UNL     1      22.141  40.948  57.427  1.00  0.00     0.178 HD
ENDBRANCH  14  16
ENDBRANCH   5  14
TORSDOF 6
ENDMDL
MODEL 5
REMARK VINA RESULT: -4.323871270      2.051      2.691
REMARK  6 active torsions:
REMARK  status: ('A' for Active; 'I' for Inactive)
REMARK    1  A    between atoms: C2_2  and  C3_3 
REMARK    2  A    between atoms: C3_3  and  N1_4 
REMARK    3  A    between atoms: N1_4  and  C4_7 
REMARK    4  A    between atoms: C4_7  and  C5_8 
REMARK    5  A    between atoms: N3_12  and  N4_14 
REMARK    6  A    between atoms: N4_14  and  N5_16 
ROOT
HETATM    1  C5  UNL     1      17.811  41.200  52.783  1.00  0.00     0.177 A 
HETATM    2  N2  UNL     1      17.747  39.762  52.439  1.00  0.00    -0.364 N 
ATOM      3  H2  UNL     1      17.712  39.028  51.731  1.00  0.00     0.161 HD
HETATM    4  C6  UNL     1      17.770  40.151  53.831  1.00  0.00     0.118 A 
HETATM    5  N3  UNL     1      17.757  39.711  55.038  1.00  0.00    -0.273 N 
ATOM      6  H3  UNL     1      17.714  38.710  55.231  1.00  0.00     0.190 HD
ENDROOT
BRANCH   1   7
HETATM    7  C4  UNL     1      16.527  41.937  52.511  1.00  0.00     0.265 C 
BRANCH   7   8
HETATM    8  N1  UNL     1      16.649  43.360  52.759  1.00  0.00    -0.070 N 
ATOM      9  H12 UNL     1      16.197  43.932  52.045  1.00  0.00     0.277 HD
ATOM     10  H11 UNL     1      17.598  43.710  52.625  1.00  0.00     0.277 HD
BRANCH   8  11
HETATM   11  C3  UNL     1      16.136  43.604  54.090  1.00  0.00     0.259 C 
BRANCH  11  12
HETATM   12  C2  UNL     1      15.735  44.992  54.324  1.00  0.00    -0.010 C 
HETATM   13  C1  UNL     1      15.149  45.335  55.456  1.00  0.00     0.008 C 
ENDBRANCH  11  12
ENDBRANCH   8  11
ENDBRANCH   7   8
ENDBRANCH   1   7
BRANCH   5  14
HETATM   14  N4  UNL     1      17.803  40.647  56.083  1.00  0.00    -0.248 N 
ATOM     15  H4  UNL     1      17.112  41.389  56.183  1.00  0.00     0.207 HD
BRANCH  14  16
HETATM   16  N5  UNL     1      18.782  40.499  56.904  1.00  0.00    -0.331 N 
ATOM     17  H52 UNL     1      18.646  40.565  57.913  1.00  0.00     0.178 HD
ATOM     18  H51 UNL     1      19.687  40.315  56.471  1.00  0.00     0.178 HD
ENDBRANCH  14  16
ENDBRANCH   5  14
TORSDOF 6
ENDMDL
