MODEL 1
REMARK VINA RESULT: -4.938616057      0.000      0.000
REMARK  5 active torsions:
REMARK  status: ('A' for Active; 'I' for Inactive)
REMARK    1  A    between atoms: C2_2  and  C3_3 
REMARK    2  A    between atoms: C3_3  and  N1_4 
REMARK    3  A    between atoms: C4_6  and  N2_7 
REMARK    4  A    between atoms: N2_7  and  N3_9 
REMARK    5  A    between atoms: N4_11  and  C5_13 
ROOT
HETATM    1  N2  UNL     1      18.187  41.592  57.466  1.00  0.00    -0.282 N 
ATOM      2  H2  UNL     1      17.748  41.774  58.369  1.00  0.00     0.189 HD
ENDROOT
BRANCH   1   3
HETATM    3  C4  UNL     1      17.416  41.778  56.291  1.00  0.00     0.194 C 
HETATM    4  N1  UNL     1      16.692  42.828  56.192  1.00  0.00    -0.382 N 
ATOM      5  H1  UNL     1      16.701  43.489  56.968  1.00  0.00     0.160 HD
BRANCH   4   6
HETATM    6  C3  UNL     1      15.864  43.133  55.050  1.00  0.00     0.147 C 
BRANCH   6   7
HETATM    7  C2  UNL     1      15.818  44.562  54.715  1.00  0.00    -0.018 C 
HETATM    8  C1  UNL     1      15.074  45.396  55.412  1.00  0.00     0.008 C 
ENDBRANCH   6   7
ENDBRANCH   4   6
ENDBRANCH   1   3
BRANCH   1   9
HETATM    9  N3  UNL     1      19.519  41.172  57.446  1.00  0.00    -0.246 N 
HETATM   10  N4  UNL     1      20.473  41.997  57.424  1.00  0.00    -0.317 N 
ATOM     11  H4  UNL     1      20.275  42.997  57.421  1.00  0.00     0.182 HD
ATOM     12  H3  UNL     1      19.725  40.173  57.450  1.00  0.00     0.208 HD
BRANCH  10  13
HETATM   13  C5  UNL     1      21.847  41.537  57.403  1.00  0.00     0.101 A 
HETATM   14  C6  UNL     1      22.776  42.185  56.373  1.00  0.00     0.029 A 
HETATM   15  C7  UNL     1      22.328  40.805  56.157  1.00  0.00     0.029 A 
ENDBRANCH  10  13
ENDBRANCH   1   9
TORSDOF 5
ENDMDL
MODEL 2
REMARK VINA RESULT: -4.816970597      1.103      1.251
REMARK  5 active torsions:
REMARK  status: ('A' for Active; 'I' for Inactive)
REMARK    1  A    between atoms: C2_2  and  C3_3 
REMARK    2  A    between atoms: C3_3  and  N1_4 
REMARK    3  A    between atoms: C4_6  and  N2_7 
REMARK    4  A    between atoms: N2_7  and  N3_9 
REMARK    5  A    between atoms: N4_11  and  C5_13 
ROOT
HETATM    1  N2  UNL     1      17.191  40.821  56.168  1.00  0.00    -0.282 N 
ATOM      2  H2  UNL     1      16.483  40.089  56.226  1.00  0.00     0.189 HD
ENDROOT
BRANCH   1   3
HETATM    3  C4  UNL     1      16.769  42.152  55.924  1.00  0.00     0.194 C 
HETATM    4  N1  UNL     1      16.545  42.514  54.718  1.00  0.00    -0.382 N 
ATOM      5  H1  UNL     1      16.681  41.825  53.979  1.00  0.00     0.160 HD
BRANCH   4   6
HETATM    6  C3  UNL     1      16.111  43.837  54.339  1.00  0.00     0.147 C 
BRANCH   6   7
HETATM    7  C2  UNL     1      15.570  44.627  55.452  1.00  0.00    -0.018 C 
HETATM    8  C1  UNL     1      14.867  45.718  55.229  1.00  0.00     0.008 C 
ENDBRANCH   6   7
ENDBRANCH   4   6
ENDBRANCH   1   3
BRANCH   1   9
HETATM    9  N3  UNL     1      18.531  40.465  56.332  1.00  0.00    -0.246 N 
HETATM   10  N4  UNL     1      19.316  41.148  57.046  1.00  0.00    -0.317 N 
ATOM     11  H4  UNL     1      18.970  41.982  57.520  1.00  0.00     0.182 HD
ATOM     12  H3  UNL     1      18.885  39.631  55.862  1.00  0.00     0.208 HD
BRANCH  10  13
HETATM   13  C5  UNL     1      20.703  40.759  57.201  1.00  0.00     0.101 A 
HETATM   14  C6  UNL     1      21.748  41.873  57.102  1.00  0.00     0.029 A 
HETATM   15  C7  UNL     1      21.620  40.918  55.995  1.00  0.00     0.029 A 
ENDBRANCH  10  13
ENDBRANCH   1   9
TORSDOF 5
ENDMDL
MODEL 3
REMARK VINA RESULT: -4.720428490      1.043      1.334
REMARK  5 active torsions:
REMARK  status: ('A' for Active; 'I' for Inactive)
REMARK    1  A    between atoms: C2_2  and  C3_3 
REMARK    2  A    between atoms: C3_3  and  N1_4 
REMARK    3  A    between atoms: C4_6  and  N2_7 
REMARK    4  A    between atoms: N2_7  and  N3_9 
REMARK    5  A    between atoms: N4_11  and  C5_13 
ROOT
HETATM    1  N2  UNL     1      17.548  40.778  56.390  1.00  0.00    -0.282 N 
ATOM      2  H2  UNL     1      16.889  40.013  56.247  1.00  0.00     0.189 HD
ENDROOT
BRANCH   1   3
HETATM    3  C4  UNL     1      17.048  42.105  56.417  1.00  0.00     0.194 C 
HETATM    4  N1  UNL     1      16.379  42.528  55.414  1.00  0.00    -0.382 N 
ATOM      5  H1  UNL     1      16.233  41.890  54.632  1.00  0.00     0.160 HD
BRANCH   4   6
HETATM    6  C3  UNL     1      15.817  43.855  55.319  1.00  0.00     0.147 C 
BRANCH   6   7
HETATM    7  C2  UNL     1      15.954  44.464  53.991  1.00  0.00    -0.018 C 
HETATM    8  C1  UNL     1      16.392  43.762  52.966  1.00  0.00     0.008 C 
ENDBRANCH   6   7
ENDBRANCH   4   6
ENDBRANCH   1   3
BRANCH   1   9
HETATM    9  N3  UNL     1      18.901  40.470  56.549  1.00  0.00    -0.246 N 
HETATM   10  N4  UNL     1      19.702  41.270  57.107  1.00  0.00    -0.317 N 
ATOM     11  H4  UNL     1      19.360  42.165  57.455  1.00  0.00     0.182 HD
ATOM     12  H3  UNL     1      19.251  39.576  56.204  1.00  0.00     0.208 HD
BRANCH  10  13
HETATM   13  C5  UNL     1      21.101  40.928  57.260  1.00  0.00     0.101 A 
HETATM   14  C6  UNL     1      22.120  42.009  56.888  1.00  0.00     0.029 A 
HETATM   15  C7  UNL     1      21.952  40.854  55.998  1.00  0.00     0.029 A 
ENDBRANCH  10  13
ENDBRANCH   1   9
TORSDOF 5
ENDMDL
MODEL 4
REMARK VINA RESULT: -4.582707156      1.637      2.040
REMARK  5 active torsions:
REMARK  status: ('A' for Active; 'I' for Inactive)
REMARK    1  A    between atoms: C2_2  and  C3_3 
REMARK    2  A    between atoms: C3_3  and  N1_4 
REMARK    3  A    between atoms: C4_6  and  N2_7 
REMARK    4  A    between atoms: N2_7  and  N3_9 
REMARK    5  A    between atoms: N4_11  and  C5_13 
ROOT
HETATM    1  N2  UNL     1      18.026  41.719  57.523  1.00  0.00    -0.282 N 
ATOM      2  H2  UNL     1      17.780  42.131  58.424  1.00  0.00     0.189 HD
ENDROOT
BRANCH   1   3
HETATM    3  C4  UNL     1      17.106  41.838  56.452  1.00  0.00     0.194 C 
HETATM    4  N1  UNL     1      16.706  43.005  56.113  1.00  0.00    -0.382 N 
ATOM      5  H1  UNL     1      17.069  43.804  56.632  1.00  0.00     0.160 HD
BRANCH   4   6
HETATM    6  C3  UNL     1      15.773  43.259  55.042  1.00  0.00     0.147 C 
BRANCH   6   7
HETATM    7  C2  UNL     1      15.737  44.661  54.606  1.00  0.00    -0.018 C 
HETATM    8  C1  UNL     1      15.112  45.575  55.319  1.00  0.00     0.008 C 
ENDBRANCH   6   7
ENDBRANCH   4   6
ENDBRANCH   1   3
BRANCH   1   9
HETATM    9  N3  UNL     1      19.254  41.065  57.405  1.00  0.00    -0.246 N 
HETATM   10  N4  UNL     1      19.355  39.945  56.833  1.00  0.00    -0.317 N 
ATOM     11  H4  UNL     1      18.524  39.500  56.444  1.00  0.00     0.182 HD
ATOM     12  H3  UNL     1      20.090  41.504  57.790  1.00  0.00     0.208 HD
BRANCH  10  13
HETATM   13  C5  UNL     1      20.640  39.285  56.722  1.00  0.00     0.101 A 
HETATM   14  C6  UNL     1      20.788  38.242  55.611  1.00  0.00     0.029 A 
HETATM   15  C7  UNL     1      20.693  37.789  57.004  1.00  0.00     0.029 A 
ENDBRANCH  10  13
ENDBRANCH   1   9
TORSDOF 5
ENDMDL
MODEL 5
REMARK VINA RESULT: -4.566383583      3.113      4.113
REMARK  5 active torsions:
REMARK  status: ('A' for Active; 'I' for Inactive)
REMARK    1  A    between atoms: C2_2  and  C3_3 
REMARK    2  A    between atoms: C3_3  and  N1_4 
REMARK    3  A    between atoms: C4_6  and  N2_7 
REMARK    4  A    between atoms: N2_7  and  N3_9 
REMARK    5  A    between atoms: N4_11  and  C5_13 
ROOT
HETATM    1  N2  UNL     1      18.091  40.848  56.339  1.00  0.00    -0.282 N 
ATOM      2  H2  UNL     1      18.746  41.081  57.086  1.00  0.00     0.189 HD
ENDROOT
BRANCH   1   3
HETATM    3  C4  UNL     1      16.868  41.560  56.266  1.00  0.00     0.194 C 
HETATM    4  N1  UNL     1      16.736  42.463  55.370  1.00  0.00    -0.382 N 
ATOM      5  H1  UNL     1      17.522  42.632  54.743  1.00  0.00     0.160 HD
BRANCH   4   6
HETATM    6  C3  UNL     1      15.544  43.257  55.192  1.00  0.00     0.147 C 
BRANCH   6   7
HETATM    7  C2  UNL     1      15.805  44.624  54.724  1.00  0.00    -0.018 C 
HETATM    8  C1  UNL     1      15.137  45.647  55.217  1.00  0.00     0.008 C 
ENDBRANCH   6   7
ENDBRANCH   4   6
ENDBRANCH   1   3
BRANCH   1   9
HETATM    9  N3  UNL     1      18.442  39.842  55.437  1.00  0.00    -0.246 N 
HETATM   10  N4  UNL     1      17.574  39.097  54.903  1.00  0.00    -0.317 N 
ATOM     11  H4  UNL     1      16.589  39.228  55.132  1.00  0.00     0.182 HD
ATOM     12  H3  UNL     1      19.426  39.705  55.202  1.00  0.00     0.208 HD
BRANCH  10  13
HETATM   13  C5  UNL     1      17.963  38.060  53.970  1.00  0.00     0.101 A 
HETATM   14  C6  UNL     1      16.879  37.544  53.019  1.00  0.00     0.029 A 
HETATM   15  C7  UNL     1      17.317  36.689  54.129  1.00  0.00     0.029 A 
ENDBRANCH  10  13
ENDBRANCH   1   9
TORSDOF 5
ENDMDL
