MODEL 1
REMARK VINA RESULT: -4.666744216      0.000      0.000
REMARK  5 active torsions:
REMARK  status: ('A' for Active; 'I' for Inactive)
REMARK    1  A    between atoms: N2_4  and  N3_6 
REMARK    2  A    between atoms: C1_8  and  C2_9 
REMARK    3  A    between atoms: C3_13  and  C4_14 
REMARK    4  A    between atoms: C4_14  and  C5_15 
REMARK    5  A    between atoms: C5_15  and  C6_16 
ROOT
HETATM    1  C2  UNL     1      17.143  41.360  56.161  1.00  0.00     0.256 A 
HETATM    2  N4  UNL     1      16.662  42.447  56.956  1.00  0.00    -0.058 N 
ATOM      3  H41 UNL     1      16.962  42.913  57.812  1.00  0.00     0.278 HD
ATOM      4  H42 UNL     1      15.866  42.602  57.575  1.00  0.00     0.278 HD
HETATM    5  C3  UNL     1      16.930  42.616  55.503  1.00  0.00     0.222 A 
ENDROOT
BRANCH   1   6
HETATM    6  C1  UNL     1      18.540  40.898  56.374  1.00  0.00     0.116 C 
HETATM    7  N3  UNL     1      19.296  41.461  57.255  1.00  0.00    -0.300 N 
ATOM      8  H3  UNL     1      18.908  42.231  57.800  1.00  0.00     0.187 HD
BRANCH   7   9
HETATM    9  N2  UNL     1      20.604  41.078  57.501  1.00  0.00    -0.250 N 
HETATM   10  N1  UNL     1      21.521  41.932  57.677  1.00  0.00    -0.331 N 
ATOM     11  H12 UNL     1      21.274  42.921  57.632  1.00  0.00     0.178 HD
ATOM     12  H11 UNL     1      22.484  41.651  57.858  1.00  0.00     0.178 HD
ATOM     13  H2  UNL     1      20.833  40.085  57.542  1.00  0.00     0.207 HD
ENDBRANCH   7   9
ENDBRANCH   1   6
BRANCH   5  14
HETATM   14  C4  UNL     1      15.702  42.995  54.739  1.00  0.00     0.041 C 
BRANCH  14  15
HETATM   15  C5  UNL     1      15.956  44.284  53.989  1.00  0.00     0.046 C 
BRANCH  15  16
HETATM   16  C6  UNL     1      15.505  45.408  54.846  1.00  0.00     0.052 C 
HETATM   17  N5  UNL     1      14.375  45.365  55.431  1.00  0.00    -0.411 N 
ATOM     18  H52 UNL     1      13.787  44.541  55.299  1.00  0.00     0.155 HD
ATOM     19  H51 UNL     1      14.064  46.137  56.020  1.00  0.00     0.155 HD
ENDBRANCH  15  16
ENDBRANCH  14  15
ENDBRANCH   5  14
TORSDOF 5
ENDMDL
MODEL 2
REMARK VINA RESULT: -4.532875439      2.194      2.537
REMARK  5 active torsions:
REMARK  status: ('A' for Active; 'I' for Inactive)
REMARK    1  A    between atoms: N2_4  and  N3_6 
REMARK    2  A    between atoms: C1_8  and  C2_9 
REMARK    3  A    between atoms: C3_13  and  C4_14 
REMARK    4  A    between atoms: C4_14  and  C5_15 
REMARK    5  A    between atoms: C5_15  and  C6_16 
ROOT
HETATM    1  C2  UNL     1      17.442  41.969  56.331  1.00  0.00     0.256 A 
HETATM    2  N4  UNL     1      16.323  41.168  55.942  1.00  0.00    -0.058 N 
ATOM      3  H41 UNL     1      15.657  40.562  56.421  1.00  0.00     0.278 HD
ATOM      4  H42 UNL     1      16.192  40.300  55.421  1.00  0.00     0.278 HD
HETATM    5  C3  UNL     1      16.390  42.615  55.600  1.00  0.00     0.222 A 
ENDROOT
BRANCH   1   6
HETATM    6  C1  UNL     1      17.607  42.291  57.772  1.00  0.00     0.116 C 
HETATM    7  N3  UNL     1      17.351  43.474  58.219  1.00  0.00    -0.300 N 
ATOM      8  H3  UNL     1      17.031  44.180  57.556  1.00  0.00     0.187 HD
BRANCH   7   9
HETATM    9  N2  UNL     1      17.485  43.838  59.548  1.00  0.00    -0.250 N 
HETATM   10  N1  UNL     1      17.511  45.053  59.902  1.00  0.00    -0.331 N 
ATOM     11  H12 UNL     1      17.430  45.767  59.179  1.00  0.00     0.178 HD
ATOM     12  H11 UNL     1      17.610  45.321  60.881  1.00  0.00     0.178 HD
ATOM     13  H2  UNL     1      17.565  43.110  60.259  1.00  0.00     0.207 HD
ENDBRANCH   7   9
ENDBRANCH   1   6
BRANCH   5  14
HETATM   14  C4  UNL     1      16.382  42.851  54.124  1.00  0.00     0.041 C 
BRANCH  14  15
HETATM   15  C5  UNL     1      16.013  44.293  53.850  1.00  0.00     0.046 C 
BRANCH  15  16
HETATM   16  C6  UNL     1      15.551  44.897  55.124  1.00  0.00     0.052 C 
HETATM   17  N5  UNL     1      14.513  45.632  55.155  1.00  0.00    -0.411 N 
ATOM     18  H52 UNL     1      14.004  45.798  54.287  1.00  0.00     0.155 HD
ATOM     19  H51 UNL     1      14.195  46.047  56.032  1.00  0.00     0.155 HD
ENDBRANCH  15  16
ENDBRANCH  14  15
ENDBRANCH   5  14
TORSDOF 5
ENDMDL
MODEL 3
REMARK VINA RESULT: -4.513454921      1.580      5.611
REMARK  5 active torsions:
REMARK  status: ('A' for Active; 'I' for Inactive)
REMARK    1  A    between atoms: N2_4  and  N3_6 
REMARK    2  A    between atoms: C1_8  and  C2_9 
REMARK    3  A    between atoms: C3_13  and  C4_14 
REMARK    4  A    between atoms: C4_14  and  C5_15 
REMARK    5  A    between atoms: C5_15  and  C6_16 
ROOT
HETATM    1  C2  UNL     1      16.945  41.706  56.232  1.00  0.00     0.256 A 
HETATM    2  N4  UNL     1      17.097  40.345  55.821  1.00  0.00    -0.058 N 
ATOM      3  H41 UNL     1      16.741  39.768  55.059  1.00  0.00     0.278 HD
ATOM      4  H42 UNL     1      16.791  39.437  56.174  1.00  0.00     0.278 HD
HETATM    5  C3  UNL     1      18.280  41.224  56.027  1.00  0.00     0.222 A 
ENDROOT
BRANCH   1   6
HETATM    6  C1  UNL     1      16.382  42.676  55.256  1.00  0.00     0.116 C 
HETATM    7  N3  UNL     1      15.968  43.836  55.639  1.00  0.00    -0.300 N 
ATOM      8  H3  UNL     1      16.039  44.068  56.630  1.00  0.00     0.187 HD
BRANCH   7   9
HETATM    9  N2  UNL     1      15.434  44.782  54.782  1.00  0.00    -0.250 N 
HETATM   10  N1  UNL     1      14.537  45.590  55.163  1.00  0.00    -0.331 N 
ATOM     11  H12 UNL     1      14.212  45.527  56.128  1.00  0.00     0.178 HD
ATOM     12  H11 UNL     1      14.144  46.287  54.532  1.00  0.00     0.178 HD
ATOM     13  H2  UNL     1      15.772  44.831  53.820  1.00  0.00     0.207 HD
ENDBRANCH   7   9
ENDBRANCH   1   6
BRANCH   5  14
HETATM   14  C4  UNL     1      19.188  40.712  57.098  1.00  0.00     0.041 C 
BRANCH  14  15
HETATM   15  C5  UNL     1      20.454  40.175  56.467  1.00  0.00     0.046 C 
BRANCH  15  16
HETATM   16  C6  UNL     1      21.564  41.096  56.815  1.00  0.00     0.052 C 
HETATM   17  N5  UNL     1      21.413  41.986  57.712  1.00  0.00    -0.411 N 
ATOM     18  H52 UNL     1      20.513  42.052  58.188  1.00  0.00     0.155 HD
ATOM     19  H51 UNL     1      22.177  42.619  57.951  1.00  0.00     0.155 HD
ENDBRANCH  15  16
ENDBRANCH  14  15
ENDBRANCH   5  14
TORSDOF 5
ENDMDL
MODEL 4
REMARK VINA RESULT: -4.418827960      1.278      1.532
REMARK  5 active torsions:
REMARK  status: ('A' for Active; 'I' for Inactive)
REMARK    1  A    between atoms: N2_4  and  N3_6 
REMARK    2  A    between atoms: C1_8  and  C2_9 
REMARK    3  A    between atoms: C3_13  and  C4_14 
REMARK    4  A    between atoms: C4_14  and  C5_15 
REMARK    5  A    between atoms: C5_15  and  C6_16 
ROOT
HETATM    1  C2  UNL     1      16.985  41.159  56.025  1.00  0.00     0.256 A 
HETATM    2  N4  UNL     1      17.068  42.318  56.858  1.00  0.00    -0.058 N 
ATOM      3  H41 UNL     1      17.727  42.674  57.550  1.00  0.00     0.278 HD
ATOM      4  H42 UNL     1      16.571  42.663  57.680  1.00  0.00     0.278 HD
HETATM    5  C3  UNL     1      16.901  42.440  55.385  1.00  0.00     0.222 A 
ENDROOT
BRANCH   1   6
HETATM    6  C1  UNL     1      18.214  40.346  55.828  1.00  0.00     0.116 C 
HETATM    7  N3  UNL     1      18.950  40.008  56.832  1.00  0.00    -0.300 N 
ATOM      8  H3  UNL     1      18.666  40.313  57.762  1.00  0.00     0.187 HD
BRANCH   7   9
HETATM    9  N2  UNL     1      20.105  39.253  56.716  1.00  0.00    -0.250 N 
HETATM   10  N1  UNL     1      20.105  38.006  56.934  1.00  0.00    -0.331 N 
ATOM     11  H12 UNL     1      19.226  37.563  57.199  1.00  0.00     0.178 HD
ATOM     12  H11 UNL     1      20.956  37.450  56.849  1.00  0.00     0.178 HD
ATOM     13  H2  UNL     1      20.977  39.712  56.449  1.00  0.00     0.207 HD
ENDBRANCH   7   9
ENDBRANCH   1   6
BRANCH   5  14
HETATM   14  C4  UNL     1      15.634  43.140  55.012  1.00  0.00     0.041 C 
BRANCH  14  15
HETATM   15  C5  UNL     1      15.961  44.350  54.165  1.00  0.00     0.046 C 
BRANCH  15  16
HETATM   16  C6  UNL     1      15.425  45.549  54.855  1.00  0.00     0.052 C 
HETATM   17  N5  UNL     1      14.258  45.538  55.363  1.00  0.00    -0.411 N 
ATOM     18  H52 UNL     1      13.699  44.688  55.286  1.00  0.00     0.155 HD
ATOM     19  H51 UNL     1      13.889  46.363  55.838  1.00  0.00     0.155 HD
ENDBRANCH  15  16
ENDBRANCH  14  15
ENDBRANCH   5  14
TORSDOF 5
ENDMDL
MODEL 5
REMARK VINA RESULT: -4.375294773      1.088      1.340
REMARK  5 active torsions:
REMARK  status: ('A' for Active; 'I' for Inactive)
REMARK    1  A    between atoms: N2_4  and  N3_6 
REMARK    2  A    between atoms: C1_8  and  C2_9 
REMARK    3  A    between atoms: C3_13  and  C4_14 
REMARK    4  A    between atoms: C4_14  and  C5_15 
REMARK    5  A    between atoms: C5_15  and  C6_16 
ROOT
HETATM    1  C2  UNL     1      18.447  41.178  55.893  1.00  0.00     0.256 A 
HETATM    2  N4  UNL     1      17.255  40.390  55.945  1.00  0.00    -0.058 N 
ATOM      3  H41 UNL     1      16.968  39.531  56.413  1.00  0.00     0.278 HD
ATOM      4  H42 UNL     1      16.754  39.781  55.297  1.00  0.00     0.278 HD
HETATM    5  C3  UNL     1      17.233  41.840  56.275  1.00  0.00     0.222 A 
ENDROOT
BRANCH   1   6
HETATM    6  C1  UNL     1      19.487  40.948  56.929  1.00  0.00     0.116 C 
HETATM    7  N3  UNL     1      20.441  41.797  57.110  1.00  0.00    -0.300 N 
ATOM      8  H3  UNL     1      20.460  42.631  56.523  1.00  0.00     0.187 HD
BRANCH   7   9
HETATM    9  N2  UNL     1      21.439  41.641  58.057  1.00  0.00    -0.250 N 
HETATM   10  N1  UNL     1      22.654  41.863  57.780  1.00  0.00    -0.331 N 
ATOM     11  H12 UNL     1      22.885  42.163  56.833  1.00  0.00     0.178 HD
ATOM     12  H11 UNL     1      23.389  41.748  58.477  1.00  0.00     0.178 HD
ATOM     13  H2  UNL     1      21.189  41.340  58.999  1.00  0.00     0.207 HD
ENDBRANCH   7   9
ENDBRANCH   1   6
BRANCH   5  14
HETATM   14  C4  UNL     1      16.347  42.619  55.357  1.00  0.00     0.041 C 
BRANCH  14  15
HETATM   15  C5  UNL     1      15.926  43.903  56.038  1.00  0.00     0.046 C 
BRANCH  15  16
HETATM   16  C6  UNL     1      15.548  44.877  54.984  1.00  0.00     0.052 C 
HETATM   17  N5  UNL     1      14.521  45.616  55.120  1.00  0.00    -0.411 N 
ATOM     18  H52 UNL     1      13.962  45.525  55.969  1.00  0.00     0.155 HD
ATOM     19  H51 UNL     1      14.261  46.285  54.395  1.00  0.00     0.155 HD
ENDBRANCH  15  16
ENDBRANCH  14  15
ENDBRANCH   5  14
TORSDOF 5
ENDMDL
