MODEL 1
REMARK VINA RESULT: -4.364519469      0.000      0.000
REMARK  6 active torsions:
REMARK  status: ('A' for Active; 'I' for Inactive)
REMARK    1  A    between atoms: C2_2  and  N1_3 
REMARK    2  A    between atoms: N1_3  and  C3_4 
REMARK    3  A    between atoms: N1_3  and  C4_6 
REMARK    4  A    between atoms: C4_6  and  N2_7 
REMARK    5  A    between atoms: N2_7  and  C5_9 
REMARK    6  A    between atoms: N3_10  and  N4_12 
ROOT
HETATM    1  N2  UNL     1      16.990  42.281  56.338  1.00  0.00    -0.372 N 
ATOM      2  H2  UNL     1      17.110  42.816  57.198  1.00  0.00     0.161 HD
ENDROOT
BRANCH   1   3
HETATM    3  C4  UNL     1      16.022  42.673  55.361  1.00  0.00     0.225 C 
BRANCH   3   4
HETATM    4  N1  UNL     1      16.153  44.044  54.940  1.00  0.00    -0.221 NA
BRANCH   4   5
HETATM    5  C2  UNL     1      16.190  44.269  53.566  1.00  0.00     0.059 C 
HETATM    6  C1  UNL     1      16.430  43.266  52.742  1.00  0.00     0.024 C 
ENDBRANCH   4   5
BRANCH   4   7
HETATM    7  C3  UNL     1      15.264  44.911  55.641  1.00  0.00     0.329 C 
HETATM    8  O1  UNL     1      15.196  46.069  55.263  1.00  0.00    -0.289 OA
ENDBRANCH   4   7
ENDBRANCH   3   4
ENDBRANCH   1   3
BRANCH   1   9
HETATM    9  C5  UNL     1      17.778  41.130  56.081  1.00  0.00     0.193 C 
HETATM   10  N3  UNL     1      18.644  40.741  56.949  1.00  0.00    -0.303 N 
ATOM     11  H3  UNL     1      18.750  41.270  57.815  1.00  0.00     0.187 HD
BRANCH  10  12
HETATM   12  N4  UNL     1      19.443  39.614  56.740  1.00  0.00    -0.344 N 
ATOM     13  H42 UNL     1      20.133  39.647  55.990  1.00  0.00     0.176 HD
ATOM     14  H41 UNL     1      19.350  38.774  57.313  1.00  0.00     0.176 HD
ENDBRANCH  10  12
ENDBRANCH   1   9
TORSDOF 6
ENDMDL
MODEL 2
REMARK VINA RESULT: -4.287491782      1.510      2.114
REMARK  6 active torsions:
REMARK  status: ('A' for Active; 'I' for Inactive)
REMARK    1  A    between atoms: C2_2  and  N1_3 
REMARK    2  A    between atoms: N1_3  and  C3_4 
REMARK    3  A    between atoms: N1_3  and  C4_6 
REMARK    4  A    between atoms: C4_6  and  N2_7 
REMARK    5  A    between atoms: N2_7  and  C5_9 
REMARK    6  A    between atoms: N3_10  and  N4_12 
ROOT
HETATM    1  N2  UNL     1      17.020  42.293  56.439  1.00  0.00    -0.372 N 
ATOM      2  H2  UNL     1      16.476  42.892  57.060  1.00  0.00     0.161 HD
ENDROOT
BRANCH   1   3
HETATM    3  C4  UNL     1      16.696  42.194  55.050  1.00  0.00     0.225 C 
BRANCH   3   4
HETATM    4  N1  UNL     1      15.908  43.297  54.563  1.00  0.00    -0.221 NA
BRANCH   4   5
HETATM    5  C2  UNL     1      15.674  44.335  55.461  1.00  0.00     0.059 C 
HETATM    6  C1  UNL     1      15.268  45.509  55.017  1.00  0.00     0.024 C 
ENDBRANCH   4   5
BRANCH   4   7
HETATM    7  C3  UNL     1      16.335  43.737  53.275  1.00  0.00     0.329 C 
HETATM    8  O1  UNL     1      15.946  43.102  52.309  1.00  0.00    -0.289 OA
ENDBRANCH   4   7
ENDBRANCH   3   4
ENDBRANCH   1   3
BRANCH   1   9
HETATM    9  C5  UNL     1      18.114  41.538  56.932  1.00  0.00     0.193 C 
HETATM   10  N3  UNL     1      18.425  40.421  56.374  1.00  0.00    -0.303 N 
ATOM     11  H3  UNL     1      17.875  40.095  55.579  1.00  0.00     0.187 HD
BRANCH  10  12
HETATM   12  N4  UNL     1      19.495  39.643  56.824  1.00  0.00    -0.344 N 
ATOM     13  H42 UNL     1      19.283  38.768  57.304  1.00  0.00     0.176 HD
ATOM     14  H41 UNL     1      20.465  39.930  56.686  1.00  0.00     0.176 HD
ENDBRANCH  10  12
ENDBRANCH   1   9
TORSDOF 6
ENDMDL
MODEL 3
REMARK VINA RESULT: -4.211486061      2.084      2.573
REMARK  6 active torsions:
REMARK  status: ('A' for Active; 'I' for Inactive)
REMARK    1  A    between atoms: C2_2  and  N1_3 
REMARK    2  A    between atoms: N1_3  and  C3_4 
REMARK    3  A    between atoms: N1_3  and  C4_6 
REMARK    4  A    between atoms: C4_6  and  N2_7 
REMARK    5  A    between atoms: N2_7  and  C5_9 
REMARK    6  A    between atoms: N3_10  and  N4_12 
ROOT
HETATM    1  N2  UNL     1      18.242  40.482  56.499  1.00  0.00    -0.372 N 
ATOM      2  H2  UNL     1      17.740  39.843  57.116  1.00  0.00     0.161 HD
ENDROOT
BRANCH   1   3
HETATM    3  C4  UNL     1      17.562  41.164  55.442  1.00  0.00     0.225 C 
BRANCH   3   4
HETATM    4  N1  UNL     1      17.042  42.451  55.829  1.00  0.00    -0.221 NA
BRANCH   4   5
HETATM    5  C2  UNL     1      16.082  43.008  54.989  1.00  0.00     0.059 C 
HETATM    6  C1  UNL     1      16.371  43.239  53.723  1.00  0.00     0.024 C 
ENDBRANCH   4   5
BRANCH   4   7
HETATM    7  C3  UNL     1      16.694  42.497  57.212  1.00  0.00     0.329 C 
HETATM    8  O1  UNL     1      17.421  43.140  57.951  1.00  0.00    -0.289 OA
ENDBRANCH   4   7
ENDBRANCH   3   4
ENDBRANCH   1   3
BRANCH   1   9
HETATM    9  C5  UNL     1      19.631  40.716  56.669  1.00  0.00     0.193 C 
HETATM   10  N3  UNL     1      20.031  41.665  57.440  1.00  0.00    -0.303 N 
ATOM     11  H3  UNL     1      19.337  42.238  57.921  1.00  0.00     0.187 HD
BRANCH  10  12
HETATM   12  N4  UNL     1      21.388  41.932  57.639  1.00  0.00    -0.344 N 
ATOM     13  H42 UNL     1      21.966  42.112  56.818  1.00  0.00     0.176 HD
ATOM     14  H41 UNL     1      21.802  41.949  58.571  1.00  0.00     0.176 HD
ENDBRANCH  10  12
ENDBRANCH   1   9
TORSDOF 6
ENDMDL
MODEL 4
REMARK VINA RESULT: -3.999832774      2.819      3.780
REMARK  6 active torsions:
REMARK  status: ('A' for Active; 'I' for Inactive)
REMARK    1  A    between atoms: C2_2  and  N1_3 
REMARK    2  A    between atoms: N1_3  and  C3_4 
REMARK    3  A    between atoms: N1_3  and  C4_6 
REMARK    4  A    between atoms: C4_6  and  N2_7 
REMARK    5  A    between atoms: N2_7  and  C5_9 
REMARK    6  A    between atoms: N3_10  and  N4_12 
ROOT
HETATM    1  N2  UNL     1      15.858  42.863  52.902  1.00  0.00    -0.372 N 
ATOM      2  H2  UNL     1      14.981  42.383  53.107  1.00  0.00     0.161 HD
ENDROOT
BRANCH   1   3
HETATM    3  C4  UNL     1      16.217  44.060  53.597  1.00  0.00     0.225 C 
BRANCH   3   4
HETATM    4  N1  UNL     1      16.239  43.909  55.029  1.00  0.00    -0.221 NA
BRANCH   4   5
HETATM    5  C2  UNL     1      15.393  44.745  55.754  1.00  0.00     0.059 C 
HETATM    6  C1  UNL     1      14.959  45.868  55.213  1.00  0.00     0.024 C 
ENDBRANCH   4   5
BRANCH   4   7
HETATM    7  C3  UNL     1      16.175  42.541  55.428  1.00  0.00     0.329 C 
HETATM    8  O1  UNL     1      17.211  41.898  55.394  1.00  0.00    -0.289 OA
ENDBRANCH   4   7
ENDBRANCH   3   4
ENDBRANCH   1   3
BRANCH   1   9
HETATM    9  C5  UNL     1      16.751  42.359  51.922  1.00  0.00     0.193 C 
HETATM   10  N3  UNL     1      17.606  41.452  52.241  1.00  0.00    -0.303 N 
ATOM     11  H3  UNL     1      17.628  41.108  53.201  1.00  0.00     0.187 HD
BRANCH  10  12
HETATM   12  N4  UNL     1      18.505  40.926  51.310  1.00  0.00    -0.344 N 
ATOM     13  H42 UNL     1      19.039  40.098  51.573  1.00  0.00     0.176 HD
ATOM     14  H41 UNL     1      18.635  41.347  50.389  1.00  0.00     0.176 HD
ENDBRANCH  10  12
ENDBRANCH   1   9
TORSDOF 6
ENDMDL
MODEL 5
REMARK VINA RESULT: -3.960474509      1.991      2.493
REMARK  6 active torsions:
REMARK  status: ('A' for Active; 'I' for Inactive)
REMARK    1  A    between atoms: C2_2  and  N1_3 
REMARK    2  A    between atoms: N1_3  and  C3_4 
REMARK    3  A    between atoms: N1_3  and  C4_6 
REMARK    4  A    between atoms: C4_6  and  N2_7 
REMARK    5  A    between atoms: N2_7  and  C5_9 
REMARK    6  A    between atoms: N3_10  and  N4_12 
ROOT
HETATM    1  N2  UNL     1      17.269  41.448  54.455  1.00  0.00    -0.372 N 
ATOM      2  H2  UNL     1      17.086  41.548  53.456  1.00  0.00     0.161 HD
ENDROOT
BRANCH   1   3
HETATM    3  C4  UNL     1      16.687  42.352  55.399  1.00  0.00     0.225 C 
BRANCH   3   4
HETATM    4  N1  UNL     1      15.874  43.373  54.792  1.00  0.00    -0.221 NA
BRANCH   4   5
HETATM    5  C2  UNL     1      15.577  44.480  55.582  1.00  0.00     0.059 C 
HETATM    6  C1  UNL     1      15.225  45.618  55.014  1.00  0.00     0.024 C 
ENDBRANCH   4   5
BRANCH   4   7
HETATM    7  C3  UNL     1      16.320  43.708  53.479  1.00  0.00     0.329 C 
HETATM    8  O1  UNL     1      15.905  43.028  52.555  1.00  0.00    -0.289 OA
ENDBRANCH   4   7
ENDBRANCH   3   4
ENDBRANCH   1   3
BRANCH   1   9
HETATM    9  C5  UNL     1      18.105  40.411  54.941  1.00  0.00     0.193 C 
HETATM   10  N3  UNL     1      17.840  39.186  54.653  1.00  0.00    -0.303 N 
ATOM     11  H3  UNL     1      17.025  38.979  54.075  1.00  0.00     0.187 HD
BRANCH  10  12
HETATM   12  N4  UNL     1      18.635  38.132  55.109  1.00  0.00    -0.344 N 
ATOM     13  H42 UNL     1      19.631  38.154  54.891  1.00  0.00     0.176 HD
ATOM     14  H41 UNL     1      18.245  37.356  55.645  1.00  0.00     0.176 HD
ENDBRANCH  10  12
ENDBRANCH   1   9
TORSDOF 6
ENDMDL
