MODEL 1
REMARK VINA RESULT: -6.684567450      0.000      0.000
REMARK  5 active torsions:
REMARK  status: ('A' for Active; 'I' for Inactive)
REMARK    1  A    between atoms: C2_2  and  C3_3 
REMARK    2  A    between atoms: N1_8  and  C8_9 
REMARK    3  A    between atoms: C8_9  and  O2_14 
REMARK    4  A    between atoms: N2_10  and  O1_12 
REMARK    5  A    between atoms: O2_14  and  C9_15 
ROOT
HETATM    1  C3  UNL     1       4.300 -16.548  15.728  1.00  0.00    -0.080 C 
HETATM    2  C4  UNL     1       4.322 -15.608  16.662  1.00  0.00     0.006 C 
HETATM    3  C5  UNL     1       4.211 -14.173  16.279  1.00  0.00     0.047 C 
HETATM    4  C6  UNL     1       4.472 -13.341  17.473  1.00  0.00     0.043 C 
HETATM    5  C7  UNL     1       2.756 -13.942  15.856  1.00  0.00     0.043 C 
HETATM    6  N1  UNL     1       5.053 -13.940  15.149  1.00  0.00    -0.329 N 
HETATM    7  C11 UNL     1       5.042 -14.907  14.066  1.00  0.00     0.089 C 
HETATM    8  C12 UNL     1       6.471 -15.326  13.786  1.00  0.00     0.033 C 
HETATM    9  C13 UNL     1       4.162 -16.080  14.322  1.00  0.00     0.059 C 
ENDROOT
BRANCH   6  10
HETATM   10  C8  UNL     1       5.916 -12.823  14.989  1.00  0.00     0.250 C 
HETATM   11  N2  UNL     1       5.524 -11.800  14.308  1.00  0.00    -0.232 N 
ATOM     12  H2  UNL     1       6.168 -11.015  14.213  1.00  0.00     0.198 HD
BRANCH  11  13
HETATM   13  O1  UNL     1       4.307 -11.704  13.711  1.00  0.00    -0.287 OA
ATOM     14  H1  UNL     1       3.894 -10.882  13.472  1.00  0.00     0.244 HD
ENDBRANCH  11  13
BRANCH  10  15
HETATM   15  O2  UNL     1       7.192 -12.755  15.532  1.00  0.00    -0.245 OA
BRANCH  15  16
HETATM   16  C9  UNL     1       8.299 -12.308  14.824  1.00  0.00     0.262 C 
HETATM   17  C10 UNL     1       9.402 -13.208  14.389  1.00  0.00     0.126 C 
HETATM   18  O3  UNL     1       8.326 -11.067  14.561  1.00  0.00    -0.265 OA
ENDBRANCH  15  16
ENDBRANCH  10  15
ENDBRANCH   6  10
BRANCH   1  19
HETATM   19  C2  UNL     1       4.410 -17.980  16.092  1.00  0.00     0.029 C 
HETATM   20  C1  UNL     1       3.798 -18.893  15.050  1.00  0.00     0.010 C 
ENDBRANCH   1  19
TORSDOF 5
ENDMDL
MODEL 2
REMARK VINA RESULT: -6.676718523      2.809      3.969
REMARK  5 active torsions:
REMARK  status: ('A' for Active; 'I' for Inactive)
REMARK    1  A    between atoms: C2_2  and  C3_3 
REMARK    2  A    between atoms: N1_8  and  C8_9 
REMARK    3  A    between atoms: C8_9  and  O2_14 
REMARK    4  A    between atoms: N2_10  and  O1_12 
REMARK    5  A    between atoms: O2_14  and  C9_15 
ROOT
HETATM    1  C3  UNL     1       7.663 -15.325  13.994  1.00  0.00    -0.080 C 
HETATM    2  C4  UNL     1       8.222 -14.195  14.403  1.00  0.00     0.006 C 
HETATM    3  C5  UNL     1       7.456 -12.918  14.338  1.00  0.00     0.047 C 
HETATM    4  C6  UNL     1       8.371 -11.799  14.649  1.00  0.00     0.043 C 
HETATM    5  C7  UNL     1       6.400 -12.982  15.447  1.00  0.00     0.043 C 
HETATM    6  N1  UNL     1       6.786 -12.856  13.078  1.00  0.00    -0.329 N 
HETATM    7  C11 UNL     1       6.111 -14.047  12.593  1.00  0.00     0.089 C 
HETATM    8  C12 UNL     1       6.602 -14.335  11.189  1.00  0.00     0.033 C 
HETATM    9  C13 UNL     1       6.268 -15.228  13.486  1.00  0.00     0.059 C 
ENDROOT
BRANCH   6  10
HETATM   10  C8  UNL     1       6.720 -11.709  12.243  1.00  0.00     0.250 C 
HETATM   11  N2  UNL     1       5.643 -11.000  12.209  1.00  0.00    -0.232 N 
ATOM     12  H2  UNL     1       5.629 -10.182  11.599  1.00  0.00     0.198 HD
BRANCH  11  13
HETATM   13  O1  UNL     1       4.527 -11.274  12.935  1.00  0.00    -0.287 OA
ATOM     14  H1  UNL     1       4.328 -10.880  13.776  1.00  0.00     0.244 HD
ENDBRANCH  11  13
BRANCH  10  15
HETATM   15  O2  UNL     1       7.767 -11.286  11.436  1.00  0.00    -0.245 OA
BRANCH  15  16
HETATM   16  C9  UNL     1       8.090  -9.949  11.243  1.00  0.00     0.262 C 
HETATM   17  C10 UNL     1       8.596  -9.415   9.950  1.00  0.00     0.126 C 
HETATM   18  O3  UNL     1       7.929  -9.189  12.246  1.00  0.00    -0.265 OA
ENDBRANCH  15  16
ENDBRANCH  10  15
ENDBRANCH   6  10
BRANCH   1  19
HETATM   19  C2  UNL     1       8.411 -16.603  14.051  1.00  0.00     0.029 C 
HETATM   20  C1  UNL     1       9.910 -16.403  13.979  1.00  0.00     0.010 C 
ENDBRANCH   1  19
TORSDOF 5
ENDMDL
MODEL 3
REMARK VINA RESULT: -6.662443919      3.596      5.170
REMARK  5 active torsions:
REMARK  status: ('A' for Active; 'I' for Inactive)
REMARK    1  A    between atoms: C2_2  and  C3_3 
REMARK    2  A    between atoms: N1_8  and  C8_9 
REMARK    3  A    between atoms: C8_9  and  O2_14 
REMARK    4  A    between atoms: N2_10  and  O1_12 
REMARK    5  A    between atoms: O2_14  and  C9_15 
ROOT
HETATM    1  C3  UNL     1       9.012 -14.165  14.029  1.00  0.00    -0.080 C 
HETATM    2  C4  UNL     1       9.823 -13.188  13.653  1.00  0.00     0.006 C 
HETATM    3  C5  UNL     1       9.364 -11.771  13.715  1.00  0.00     0.047 C 
HETATM    4  C6  UNL     1      10.369 -10.916  13.049  1.00  0.00     0.043 C 
HETATM    5  C7  UNL     1       9.330 -11.386  15.198  1.00  0.00     0.043 C 
HETATM    6  N1  UNL     1       8.034 -11.704  13.200  1.00  0.00    -0.329 N 
HETATM    7  C11 UNL     1       7.079 -12.718  13.611  1.00  0.00     0.089 C 
HETATM    8  C12 UNL     1       6.461 -13.323  12.366  1.00  0.00     0.033 C 
HETATM    9  C13 UNL     1       7.660 -13.759  14.502  1.00  0.00     0.059 C 
ENDROOT
BRANCH   6  10
HETATM   10  C8  UNL     1       7.554 -10.711  12.304  1.00  0.00     0.250 C 
HETATM   11  N2  UNL     1       6.735  -9.808  12.724  1.00  0.00    -0.232 N 
ATOM     12  H2  UNL     1       6.410  -9.110  12.055  1.00  0.00     0.198 HD
BRANCH  11  13
HETATM   13  O1  UNL     1       6.278  -9.729  14.002  1.00  0.00    -0.287 OA
ATOM     14  H1  UNL     1       5.472  -9.294  14.254  1.00  0.00     0.244 HD
ENDBRANCH  11  13
BRANCH  10  15
HETATM   15  O2  UNL     1       7.917 -10.645  10.966  1.00  0.00    -0.245 OA
BRANCH  15  16
HETATM   16  C9  UNL     1       8.501  -9.525  10.388  1.00  0.00     0.262 C 
HETATM   17  C10 UNL     1       9.751  -9.587   9.584  1.00  0.00     0.126 C 
HETATM   18  O3  UNL     1       7.902  -8.424  10.585  1.00  0.00    -0.265 OA
ENDBRANCH  15  16
ENDBRANCH  10  15
ENDBRANCH   6  10
BRANCH   1  19
HETATM   19  C2  UNL     1       9.452 -15.579  13.972  1.00  0.00     0.029 C 
HETATM   20  C1  UNL     1       8.289 -16.549  13.947  1.00  0.00     0.010 C 
ENDBRANCH   1  19
TORSDOF 5
ENDMDL
MODEL 4
REMARK VINA RESULT: -6.593176681      3.672      6.269
REMARK  5 active torsions:
REMARK  status: ('A' for Active; 'I' for Inactive)
REMARK    1  A    between atoms: C2_2  and  C3_3 
REMARK    2  A    between atoms: N1_8  and  C8_9 
REMARK    3  A    between atoms: C8_9  and  O2_14 
REMARK    4  A    between atoms: N2_10  and  O1_12 
REMARK    5  A    between atoms: O2_14  and  C9_15 
ROOT
HETATM    1  C3  UNL     1       8.058  -9.904  11.395  1.00  0.00    -0.080 C 
HETATM    2  C4  UNL     1       7.332 -10.983  11.143  1.00  0.00     0.006 C 
HETATM    3  C5  UNL     1       6.645 -11.697  12.255  1.00  0.00     0.047 C 
HETATM    4  C6  UNL     1       6.091 -12.966  11.736  1.00  0.00     0.043 C 
HETATM    5  C7  UNL     1       5.468 -10.812  12.684  1.00  0.00     0.043 C 
HETATM    6  N1  UNL     1       7.553 -11.805  13.353  1.00  0.00    -0.329 N 
HETATM    7  C11 UNL     1       8.345 -10.643  13.714  1.00  0.00     0.089 C 
HETATM    8  C12 UNL     1       9.802 -11.056  13.763  1.00  0.00     0.033 C 
HETATM    9  C13 UNL     1       8.132  -9.473  12.818  1.00  0.00     0.059 C 
ENDROOT
BRANCH   6  10
HETATM   10  C8  UNL     1       7.751 -12.972  14.138  1.00  0.00     0.250 C 
HETATM   11  N2  UNL     1       7.064 -13.148  15.215  1.00  0.00    -0.232 N 
ATOM     12  H2  UNL     1       7.230 -13.997  15.755  1.00  0.00     0.198 HD
BRANCH  11  13
HETATM   13  O1  UNL     1       6.131 -12.271  15.674  1.00  0.00    -0.287 OA
ATOM     14  H1  UNL     1       5.195 -12.386  15.568  1.00  0.00     0.244 HD
ENDBRANCH  11  13
BRANCH  10  15
HETATM   15  O2  UNL     1       8.663 -13.968  13.815  1.00  0.00    -0.245 OA
BRANCH  15  16
HETATM   16  C9  UNL     1       8.361 -15.323  13.860  1.00  0.00     0.262 C 
HETATM   17  C10 UNL     1       9.402 -16.385  13.887  1.00  0.00     0.126 C 
HETATM   18  O3  UNL     1       7.127 -15.616  13.876  1.00  0.00    -0.265 OA
ENDBRANCH  15  16
ENDBRANCH  10  15
ENDBRANCH   6  10
BRANCH   1  19
HETATM   19  C2  UNL     1       8.749  -9.183  10.300  1.00  0.00     0.029 C 
HETATM   20  C1  UNL     1      10.079  -9.812   9.939  1.00  0.00     0.010 C 
ENDBRANCH   1  19
TORSDOF 5
ENDMDL
MODEL 5
REMARK VINA RESULT: -6.547554046      3.467      6.498
REMARK  5 active torsions:
REMARK  status: ('A' for Active; 'I' for Inactive)
REMARK    1  A    between atoms: C2_2  and  C3_3 
REMARK    2  A    between atoms: N1_8  and  C8_9 
REMARK    3  A    between atoms: C8_9  and  O2_14 
REMARK    4  A    between atoms: N2_10  and  O1_12 
REMARK    5  A    between atoms: O2_14  and  C9_15 
ROOT
HETATM    1  C3  UNL     1       8.306 -11.258  11.851  1.00  0.00    -0.080 C 
HETATM    2  C4  UNL     1       7.990 -11.595  13.093  1.00  0.00     0.006 C 
HETATM    3  C5  UNL     1       8.379 -12.932  13.626  1.00  0.00     0.047 C 
HETATM    4  C6  UNL     1       7.728 -13.128  14.939  1.00  0.00     0.043 C 
HETATM    5  C7  UNL     1       9.893 -12.890  13.855  1.00  0.00     0.043 C 
HETATM    6  N1  UNL     1       8.099 -13.915  12.628  1.00  0.00    -0.329 N 
HETATM    7  C11 UNL     1       8.464 -13.629  11.251  1.00  0.00     0.089 C 
HETATM    8  C12 UNL     1       7.244 -13.843  10.379  1.00  0.00     0.033 C 
HETATM    9  C13 UNL     1       9.051 -12.274  11.059  1.00  0.00     0.059 C 
ENDROOT
BRANCH   6  10
HETATM   10  C8  UNL     1       7.483 -15.172  12.869  1.00  0.00     0.250 C 
HETATM   11  N2  UNL     1       8.201 -16.243  12.905  1.00  0.00    -0.232 N 
ATOM     12  H2  UNL     1       7.729 -17.129  13.081  1.00  0.00     0.198 HD
BRANCH  11  13
HETATM   13  O1  UNL     1       9.549 -16.263  12.723  1.00  0.00    -0.287 OA
ATOM     14  H1  UNL     1      10.066 -17.058  12.658  1.00  0.00     0.244 HD
ENDBRANCH  11  13
BRANCH  10  15
HETATM   15  O2  UNL     1       6.120 -15.333  13.075  1.00  0.00    -0.245 OA
BRANCH  15  16
HETATM   16  C9  UNL     1       5.426 -16.484  12.727  1.00  0.00     0.262 C 
HETATM   17  C10 UNL     1       4.721 -17.337  13.721  1.00  0.00     0.126 C 
HETATM   18  O3  UNL     1       5.423 -16.778  11.493  1.00  0.00    -0.265 OA
ENDBRANCH  15  16
ENDBRANCH  10  15
ENDBRANCH   6  10
BRANCH   1  19
HETATM   19  C2  UNL     1       7.927  -9.934  11.306  1.00  0.00     0.029 C 
HETATM   20  C1  UNL     1       8.627  -9.620  10.001  1.00  0.00     0.010 C 
ENDBRANCH   1  19
TORSDOF 5
ENDMDL
