MODEL 1
REMARK VINA RESULT: -6.955000399      0.000      0.000
REMARK  4 active torsions:
REMARK  status: ('A' for Active; 'I' for Inactive)
REMARK    1  A    between atoms: C4_5  and  C6_8 
REMARK    2  A    between atoms: N2_14  and  C12_15 
REMARK    3  A    between atoms: C12_15  and  O1_16 
REMARK    4  A    between atoms: C12_15  and  O2_18 
ROOT
HETATM    1  C1  UNL     1       5.657 -14.466  13.892  1.00  0.00     0.068 C 
HETATM    2  C2  UNL     1       6.700 -13.456  13.497  1.00  0.00     0.016 C 
HETATM    3  C3  UNL     1       7.184 -12.649  14.415  1.00  0.00     0.073 C 
HETATM    4  S1  UNL     1       8.389 -11.579  13.653  1.00  0.00    -0.092 SA
HETATM    5  C4  UNL     1       8.438 -12.560  12.094  1.00  0.00     0.182 C 
HETATM    6  C5  UNL     1       9.544 -13.509  12.137  1.00  0.00     0.103 C 
HETATM    7  N1  UNL     1      10.420 -14.262  12.181  1.00  0.00    -0.194 NA
HETATM    8  N2  UNL     1       7.225 -13.277  12.190  1.00  0.00    -0.304 N 
ENDROOT
BRANCH   5   9
HETATM    9  C6  UNL     1       8.685 -11.584  11.034  1.00  0.00     0.040 C 
HETATM   10  C7  UNL     1       7.861 -10.325  11.109  1.00  0.00     0.009 C 
HETATM   11  C8  UNL     1       8.287  -9.296  10.104  1.00  0.00     0.001 C 
HETATM   12  C9  UNL     1       9.762  -9.009  10.129  1.00  0.00     0.000 C 
HETATM   13  C10 UNL     1      10.559 -10.301  10.131  1.00  0.00     0.001 C 
HETATM   14  C11 UNL     1      10.125 -11.077  11.326  1.00  0.00     0.009 C 
ENDBRANCH   5   9
BRANCH   8  15
HETATM   15  C12 UNL     1       6.534 -13.822  11.036  1.00  0.00     0.370 C 
BRANCH  15  16
HETATM   16  O1  UNL     1       5.207 -13.489  10.947  1.00  0.00    -0.354 OA
ATOM     17  H1  UNL     1       4.679 -14.083  10.428  1.00  0.00     0.214 HD
ENDBRANCH  15  16
BRANCH  15  18
HETATM   18  O2  UNL     1       6.587 -15.204  11.031  1.00  0.00    -0.354 OA
ATOM     19  H2  UNL     1       6.529 -15.545  10.147  1.00  0.00     0.214 HD
ENDBRANCH  15  18
ENDBRANCH   8  15
TORSDOF 4
ENDMDL
MODEL 2
REMARK VINA RESULT: -6.582375173      1.115      1.269
REMARK  4 active torsions:
REMARK  status: ('A' for Active; 'I' for Inactive)
REMARK    1  A    between atoms: C4_5  and  C6_8 
REMARK    2  A    between atoms: N2_14  and  C12_15 
REMARK    3  A    between atoms: C12_15  and  O1_16 
REMARK    4  A    between atoms: C12_15  and  O2_18 
ROOT
HETATM    1  C1  UNL     1       6.060 -13.281  15.255  1.00  0.00     0.068 C 
HETATM    2  C2  UNL     1       7.148 -12.654  14.425  1.00  0.00     0.016 C 
HETATM    3  C3  UNL     1       8.235 -12.222  15.022  1.00  0.00     0.073 C 
HETATM    4  S1  UNL     1       9.329 -11.541  13.790  1.00  0.00    -0.092 SA
HETATM    5  C4  UNL     1       8.349 -12.223  12.384  1.00  0.00     0.182 C 
HETATM    6  C5  UNL     1       8.917 -13.496  11.954  1.00  0.00     0.103 C 
HETATM    7  N1  UNL     1       9.369 -14.506  11.621  1.00  0.00    -0.194 NA
HETATM    8  N2  UNL     1       7.111 -12.472  13.017  1.00  0.00    -0.304 N 
ENDROOT
BRANCH   5   9
HETATM    9  C6  UNL     1       8.492 -11.245  11.307  1.00  0.00     0.040 C 
HETATM   10  C7  UNL     1       7.968  -9.866  11.612  1.00  0.00     0.009 C 
HETATM   11  C8  UNL     1       8.304  -8.872  10.540  1.00  0.00     0.001 C 
HETATM   12  C9  UNL     1       9.762  -8.855  10.174  1.00  0.00     0.000 C 
HETATM   13  C10 UNL     1      10.274 -10.267   9.951  1.00  0.00     0.001 C 
HETATM   14  C11 UNL     1      10.027 -11.023  11.211  1.00  0.00     0.009 C 
ENDBRANCH   5   9
BRANCH   8  15
HETATM   15  C12 UNL     1       5.855 -12.554  12.295  1.00  0.00     0.370 C 
BRANCH  15  16
HETATM   16  O1  UNL     1       4.845 -11.781  12.805  1.00  0.00    -0.354 OA
ATOM     17  H1  UNL     1       3.968 -12.104  12.633  1.00  0.00     0.214 HD
ENDBRANCH  15  16
BRANCH  15  18
HETATM   18  O2  UNL     1       5.378 -13.852  12.271  1.00  0.00    -0.354 OA
ATOM     19  H2  UNL     1       4.447 -13.870  12.081  1.00  0.00     0.214 HD
ENDBRANCH  15  18
ENDBRANCH   8  15
TORSDOF 4
ENDMDL
MODEL 3
REMARK VINA RESULT: -6.578531014      2.162      5.310
REMARK  4 active torsions:
REMARK  status: ('A' for Active; 'I' for Inactive)
REMARK    1  A    between atoms: C4_5  and  C6_8 
REMARK    2  A    between atoms: N2_14  and  C12_15 
REMARK    3  A    between atoms: C12_15  and  O1_16 
REMARK    4  A    between atoms: C12_15  and  O2_18 
ROOT
HETATM    1  C1  UNL     1       9.493 -13.150  10.799  1.00  0.00     0.068 C 
HETATM    2  C2  UNL     1       8.765 -13.253  12.112  1.00  0.00     0.016 C 
HETATM    3  C3  UNL     1       9.456 -13.205  13.228  1.00  0.00     0.073 C 
HETATM    4  S1  UNL     1       8.330 -13.348  14.602  1.00  0.00    -0.092 SA
HETATM    5  C4  UNL     1       6.837 -13.109  13.546  1.00  0.00     0.182 C 
HETATM    6  C5  UNL     1       6.432 -11.708  13.566  1.00  0.00     0.103 C 
HETATM    7  N1  UNL     1       6.120 -10.596  13.584  1.00  0.00    -0.194 NA
HETATM    8  N2  UNL     1       7.362 -13.408  12.270  1.00  0.00    -0.304 N 
ENDROOT
BRANCH   5   9
HETATM    9  C6  UNL     1       5.793 -13.920  14.169  1.00  0.00     0.040 C 
HETATM   10  C7  UNL     1       6.184 -15.337  14.498  1.00  0.00     0.009 C 
HETATM   11  C8  UNL     1       5.133 -16.055  15.292  1.00  0.00     0.001 C 
HETATM   12  C9  UNL     1       4.678 -15.297  16.508  1.00  0.00     0.000 C 
HETATM   13  C10 UNL     1       4.368 -13.854  16.154  1.00  0.00     0.001 C 
HETATM   14  C11 UNL     1       5.610 -13.273  15.571  1.00  0.00     0.009 C 
ENDBRANCH   5   9
BRANCH   8  15
HETATM   15  C12 UNL     1       6.538 -13.843  11.157  1.00  0.00     0.370 C 
BRANCH  15  16
HETATM   16  O1  UNL     1       5.216 -13.494  11.247  1.00  0.00    -0.354 OA
ATOM     17  H1  UNL     1       4.737 -13.917  11.950  1.00  0.00     0.214 HD
ENDBRANCH  15  16
BRANCH  15  18
HETATM   18  O2  UNL     1       6.569 -15.219  11.022  1.00  0.00    -0.354 OA
ATOM     19  H2  UNL     1       6.691 -15.471  10.114  1.00  0.00     0.214 HD
ENDBRANCH  15  18
ENDBRANCH   8  15
TORSDOF 4
ENDMDL
MODEL 4
REMARK VINA RESULT: -6.542749214      2.444      3.278
REMARK  4 active torsions:
REMARK  status: ('A' for Active; 'I' for Inactive)
REMARK    1  A    between atoms: C4_5  and  C6_8 
REMARK    2  A    between atoms: N2_14  and  C12_15 
REMARK    3  A    between atoms: C12_15  and  O1_16 
REMARK    4  A    between atoms: C12_15  and  O2_18 
ROOT
HETATM    1  C1  UNL     1      11.680 -14.591  14.212  1.00  0.00     0.068 C 
HETATM    2  C2  UNL     1      11.421 -13.396  13.335  1.00  0.00     0.016 C 
HETATM    3  C3  UNL     1      12.262 -12.387  13.370  1.00  0.00     0.073 C 
HETATM    4  S1  UNL     1      11.697 -11.136  12.233  1.00  0.00    -0.092 SA
HETATM    5  C4  UNL     1      10.449 -12.249  11.456  1.00  0.00     0.182 C 
HETATM    6  C5  UNL     1      11.006 -12.860  10.256  1.00  0.00     0.103 C 
HETATM    7  N1  UNL     1      11.457 -13.344   9.308  1.00  0.00    -0.194 NA
HETATM    8  N2  UNL     1      10.320 -13.242  12.451  1.00  0.00    -0.304 N 
ENDROOT
BRANCH   5   9
HETATM    9  C6  UNL     1       9.339 -11.375  11.079  1.00  0.00     0.040 C 
HETATM   10  C7  UNL     1       8.630 -10.699  12.223  1.00  0.00     0.009 C 
HETATM   11  C8  UNL     1       7.624  -9.686  11.760  1.00  0.00     0.001 C 
HETATM   12  C9  UNL     1       8.181  -8.696  10.776  1.00  0.00     0.000 C 
HETATM   13  C10 UNL     1       8.955  -9.407   9.681  1.00  0.00     0.001 C 
HETATM   14  C11 UNL     1      10.032 -10.191  10.349  1.00  0.00     0.009 C 
ENDBRANCH   5   9
BRANCH   8  15
HETATM   15  C12 UNL     1       9.145 -14.084  12.582  1.00  0.00     0.370 C 
BRANCH  15  16
HETATM   16  O1  UNL     1       8.619 -14.148  13.846  1.00  0.00    -0.354 OA
ATOM     17  H1  UNL     1       8.559 -13.315  14.297  1.00  0.00     0.214 HD
ENDBRANCH  15  16
BRANCH  15  18
HETATM   18  O2  UNL     1       9.422 -15.387  12.210  1.00  0.00    -0.354 OA
ATOM     19  H2  UNL     1      10.082 -15.772  12.776  1.00  0.00     0.214 HD
ENDBRANCH  15  18
ENDBRANCH   8  15
TORSDOF 4
ENDMDL
MODEL 5
REMARK VINA RESULT: -6.531359725      1.992      2.501
REMARK  4 active torsions:
REMARK  status: ('A' for Active; 'I' for Inactive)
REMARK    1  A    between atoms: C4_5  and  C6_8 
REMARK    2  A    between atoms: N2_14  and  C12_15 
REMARK    3  A    between atoms: C12_15  and  O1_16 
REMARK    4  A    between atoms: C12_15  and  O2_18 
ROOT
HETATM    1  C1  UNL     1       5.876 -13.211  15.475  1.00  0.00     0.068 C 
HETATM    2  C2  UNL     1       6.903 -12.680  14.512  1.00  0.00     0.016 C 
HETATM    3  C3  UNL     1       8.158 -13.041  14.658  1.00  0.00     0.073 C 
HETATM    4  S1  UNL     1       9.126 -12.261  13.380  1.00  0.00    -0.092 SA
HETATM    5  C4  UNL     1       7.640 -11.715  12.434  1.00  0.00     0.182 C 
HETATM    6  C5  UNL     1       7.332 -12.683  11.388  1.00  0.00     0.103 C 
HETATM    7  N1  UNL     1       7.091 -13.458  10.565  1.00  0.00    -0.194 NA
HETATM    8  N2  UNL     1       6.644 -11.796  13.432  1.00  0.00    -0.304 N 
ENDROOT
BRANCH   5   9
HETATM    9  C6  UNL     1       8.024 -10.447  11.817  1.00  0.00     0.040 C 
HETATM   10  C7  UNL     1       8.844  -9.527  12.683  1.00  0.00     0.009 C 
HETATM   11  C8  UNL     1       9.352  -8.330  11.935  1.00  0.00     0.001 C 
HETATM   12  C9  UNL     1      10.058  -8.680  10.655  1.00  0.00     0.000 C 
HETATM   13  C10 UNL     1       9.239  -9.669   9.844  1.00  0.00     0.001 C 
HETATM   14  C11 UNL     1       9.027 -10.866  10.705  1.00  0.00     0.009 C 
ENDBRANCH   5   9
BRANCH   8  15
HETATM   15  C12 UNL     1       5.407 -11.038  13.379  1.00  0.00     0.370 C 
BRANCH  15  16
HETATM   16  O1  UNL     1       4.464 -11.531  12.514  1.00  0.00    -0.354 OA
ATOM     17  H1  UNL     1       3.666 -11.838  12.926  1.00  0.00     0.214 HD
ENDBRANCH  15  16
BRANCH  15  18
HETATM   18  O2  UNL     1       5.641  -9.730  12.995  1.00  0.00    -0.354 OA
ATOM     19  H2  UNL     1       5.115  -9.125  13.504  1.00  0.00     0.214 HD
ENDBRANCH  15  18
ENDBRANCH   8  15
TORSDOF 4
ENDMDL
