MODEL 1
REMARK VINA RESULT: -7.287043606      0.000      0.000
REMARK  3 active torsions:
REMARK  status: ('A' for Active; 'I' for Inactive)
REMARK    1  A    between atoms: O1_1  and  C1_3 
REMARK    2  A    between atoms: C4_6  and  O2_7 
REMARK    3  A    between atoms: N1_9  and  C5_10 
ROOT
HETATM    1  C1  UNL     1      11.683 -12.179   9.989  1.00  0.00     0.153 A 
HETATM    2  C2  UNL     1      10.781 -11.300  10.545  1.00  0.00     0.008 A 
HETATM    3  C3  UNL     1      11.494 -10.195  10.984  1.00  0.00     0.008 A 
HETATM    4  C4  UNL     1      12.812 -10.403  10.695  1.00  0.00     0.153 A 
HETATM    5  N1  UNL     1      12.897 -11.608  10.096  1.00  0.00    -0.280 N 
HETATM    6  C9  UNL     1      10.644  -9.145  11.616  1.00  0.00     0.024 C 
HETATM    7  C10 UNL     1       9.907  -9.839  12.752  1.00  0.00     0.010 C 
HETATM    8  C11 UNL     1       9.074 -10.974  12.268  1.00  0.00     0.010 C 
HETATM    9  C12 UNL     1       9.319 -11.250  10.777  1.00  0.00     0.024 C 
HETATM   10  C13 UNL     1       8.840  -9.967  10.082  1.00  0.00     0.010 C 
HETATM   11  C14 UNL     1       9.595  -8.777  10.569  1.00  0.00     0.010 C 
ENDROOT
BRANCH   5  12
HETATM   12  C5  UNL     1      14.135 -12.195   9.634  1.00  0.00     0.232 C 
HETATM   13  C6  UNL     1      14.860 -12.950  10.732  1.00  0.00     0.056 C 
HETATM   14  C7  UNL     1      16.268 -13.026  10.158  1.00  0.00     0.031 C 
HETATM   15  C8  UNL     1      16.188 -12.070   8.984  1.00  0.00     0.170 C 
HETATM   16  O3  UNL     1      15.083 -11.242   9.279  1.00  0.00    -0.366 OA
ENDBRANCH   5  12
BRANCH   1  17
HETATM   17  O1  UNL     1      11.386 -13.417   9.427  1.00  0.00    -0.345 OA
ATOM     18  H1  UNL     1      10.687 -14.002   9.696  1.00  0.00     0.219 HD
ENDBRANCH   1  17
BRANCH   4  19
HETATM   19  O2  UNL     1      13.827  -9.508  10.988  1.00  0.00    -0.345 OA
ATOM     20  H2  UNL     1      14.691  -9.758  11.293  1.00  0.00     0.219 HD
ENDBRANCH   4  19
TORSDOF 3
ENDMDL
MODEL 2
REMARK VINA RESULT: -7.264385110      0.044      2.442
REMARK  3 active torsions:
REMARK  status: ('A' for Active; 'I' for Inactive)
REMARK    1  A    between atoms: O1_1  and  C1_3 
REMARK    2  A    between atoms: C4_6  and  O2_7 
REMARK    3  A    between atoms: N1_9  and  C5_10 
ROOT
HETATM    1  C1  UNL     1      12.796 -10.396  10.702  1.00  0.00     0.153 A 
HETATM    2  C2  UNL     1      11.462 -10.209  10.987  1.00  0.00     0.008 A 
HETATM    3  C3  UNL     1      10.781 -11.330  10.540  1.00  0.00     0.008 A 
HETATM    4  C4  UNL     1      11.692 -12.186   9.992  1.00  0.00     0.153 A 
HETATM    5  N1  UNL     1      12.900 -11.597  10.103  1.00  0.00    -0.280 N 
HETATM    6  C9  UNL     1       9.310 -11.273  10.782  1.00  0.00     0.024 C 
HETATM    7  C10 UNL     1       8.827 -10.001  10.101  1.00  0.00     0.010 C 
HETATM    8  C11 UNL     1       9.500  -8.787  10.643  1.00  0.00     0.010 C 
HETATM    9  C12 UNL     1      10.626  -9.162  11.618  1.00  0.00     0.024 C 
HETATM   10  C13 UNL     1       9.894  -9.864  12.772  1.00  0.00     0.010 C 
HETATM   11  C14 UNL     1       9.145 -11.059  12.285  1.00  0.00     0.010 C 
ENDROOT
BRANCH   5  12
HETATM   12  C5  UNL     1      14.133 -12.189   9.636  1.00  0.00     0.232 C 
HETATM   13  C6  UNL     1      14.856 -12.951  10.731  1.00  0.00     0.056 C 
HETATM   14  C7  UNL     1      16.262 -13.034  10.153  1.00  0.00     0.031 C 
HETATM   15  C8  UNL     1      16.184 -12.075   8.981  1.00  0.00     0.170 C 
HETATM   16  O3  UNL     1      15.086 -11.241   9.282  1.00  0.00    -0.366 OA
ENDBRANCH   5  12
BRANCH   1  17
HETATM   17  O1  UNL     1      13.830  -9.508  10.984  1.00  0.00    -0.345 OA
ATOM     18  H1  UNL     1      13.766  -8.561  11.007  1.00  0.00     0.219 HD
ENDBRANCH   1  17
BRANCH   4  19
HETATM   19  O2  UNL     1      11.375 -13.415   9.439  1.00  0.00    -0.345 OA
ATOM     20  H2  UNL     1      12.011 -14.090   9.234  1.00  0.00     0.219 HD
ENDBRANCH   4  19
TORSDOF 3
ENDMDL
MODEL 3
REMARK VINA RESULT: -7.259916576      4.133      6.380
REMARK  3 active torsions:
REMARK  status: ('A' for Active; 'I' for Inactive)
REMARK    1  A    between atoms: O1_1  and  C1_3 
REMARK    2  A    between atoms: C4_6  and  O2_7 
REMARK    3  A    between atoms: N1_9  and  C5_10 
ROOT
HETATM    1  C1  UNL     1       8.184 -12.541  11.863  1.00  0.00     0.153 A 
HETATM    2  C2  UNL     1       8.626 -11.267  11.589  1.00  0.00     0.008 A 
HETATM    3  C3  UNL     1       7.939 -10.401  12.426  1.00  0.00     0.008 A 
HETATM    4  C4  UNL     1       7.093 -11.143  13.197  1.00  0.00     0.153 A 
HETATM    5  N1  UNL     1       7.261 -12.432  12.836  1.00  0.00    -0.280 N 
HETATM    6  C9  UNL     1       8.315  -8.969  12.244  1.00  0.00     0.024 C 
HETATM    7  C10 UNL     1       8.070  -8.660  10.774  1.00  0.00     0.010 C 
HETATM    8  C11 UNL     1       8.874  -9.536   9.877  1.00  0.00     0.010 C 
HETATM    9  C12 UNL     1       9.600 -10.631  10.671  1.00  0.00     0.024 C 
HETATM   10  C13 UNL     1      10.564  -9.851  11.577  1.00  0.00     0.010 C 
HETATM   11  C14 UNL     1       9.824  -8.906  12.463  1.00  0.00     0.010 C 
ENDROOT
BRANCH   5  12
HETATM   12  C5  UNL     1       6.538 -13.537  13.425  1.00  0.00     0.232 C 
HETATM   13  C6  UNL     1       7.343 -14.241  14.503  1.00  0.00     0.056 C 
HETATM   14  C7  UNL     1       6.612 -15.573  14.592  1.00  0.00     0.031 C 
HETATM   15  C8  UNL     1       5.709 -15.526  13.376  1.00  0.00     0.170 C 
HETATM   16  O3  UNL     1       6.311 -14.572  12.527  1.00  0.00    -0.366 OA
ENDBRANCH   5  12
BRANCH   1  17
HETATM   17  O1  UNL     1       8.616 -13.713  11.246  1.00  0.00    -0.345 OA
ATOM     18  H1  UNL     1       8.531 -14.593  11.592  1.00  0.00     0.219 HD
ENDBRANCH   1  17
BRANCH   4  19
HETATM   19  O2  UNL     1       6.242 -10.616  14.154  1.00  0.00    -0.345 OA
ATOM     20  H2  UNL     1       6.105 -10.993  15.015  1.00  0.00     0.219 HD
ENDBRANCH   4  19
TORSDOF 3
ENDMDL
MODEL 4
REMARK VINA RESULT: -7.245276137      4.244      6.735
REMARK  3 active torsions:
REMARK  status: ('A' for Active; 'I' for Inactive)
REMARK    1  A    between atoms: O1_1  and  C1_3 
REMARK    2  A    between atoms: C4_6  and  O2_7 
REMARK    3  A    between atoms: N1_9  and  C5_10 
ROOT
HETATM    1  C1  UNL     1       8.227 -12.113  12.552  1.00  0.00     0.153 A 
HETATM    2  C2  UNL     1       8.745 -11.005  11.921  1.00  0.00     0.008 A 
HETATM    3  C3  UNL     1       7.758 -10.032  11.912  1.00  0.00     0.008 A 
HETATM    4  C4  UNL     1       6.656 -10.546  12.533  1.00  0.00     0.153 A 
HETATM    5  N1  UNL     1       6.967 -11.803  12.908  1.00  0.00    -0.280 N 
HETATM    6  C9  UNL     1       8.175  -8.760  11.254  1.00  0.00     0.024 C 
HETATM    7  C10 UNL     1       8.611  -9.146   9.848  1.00  0.00     0.010 C 
HETATM    8  C11 UNL     1       9.731 -10.128   9.859  1.00  0.00     0.010 C 
HETATM    9  C12 UNL     1      10.026 -10.621  11.283  1.00  0.00     0.024 C 
HETATM   10  C13 UNL     1      10.486  -9.356  12.022  1.00  0.00     0.010 C 
HETATM   11  C14 UNL     1       9.429  -8.303  11.995  1.00  0.00     0.010 C 
ENDROOT
BRANCH   5  12
HETATM   12  C5  UNL     1       6.057 -12.687  13.602  1.00  0.00     0.232 C 
HETATM   13  C6  UNL     1       6.376 -12.795  15.082  1.00  0.00     0.056 C 
HETATM   14  C7  UNL     1       5.646 -14.081  15.446  1.00  0.00     0.031 C 
HETATM   15  C8  UNL     1       5.280 -14.640  14.085  1.00  0.00     0.170 C 
HETATM   16  O3  UNL     1       6.176 -14.010  13.194  1.00  0.00    -0.366 OA
ENDBRANCH   5  12
BRANCH   1  17
HETATM   17  O1  UNL     1       8.888 -13.318  12.776  1.00  0.00    -0.345 OA
ATOM     18  H1  UNL     1       8.741 -13.913  13.501  1.00  0.00     0.219 HD
ENDBRANCH   1  17
BRANCH   4  19
HETATM   19  O2  UNL     1       5.468  -9.857  12.712  1.00  0.00    -0.345 OA
ATOM     20  H2  UNL     1       4.605 -10.238  12.598  1.00  0.00     0.219 HD
ENDBRANCH   4  19
TORSDOF 3
ENDMDL
MODEL 5
REMARK VINA RESULT: -7.231804965      4.143      6.508
REMARK  3 active torsions:
REMARK  status: ('A' for Active; 'I' for Inactive)
REMARK    1  A    between atoms: O1_1  and  C1_3 
REMARK    2  A    between atoms: C4_6  and  O2_7 
REMARK    3  A    between atoms: N1_9  and  C5_10 
ROOT
HETATM    1  C1  UNL     1       7.066 -11.015  13.183  1.00  0.00     0.153 A 
HETATM    2  C2  UNL     1       7.953 -10.313  12.398  1.00  0.00     0.008 A 
HETATM    3  C3  UNL     1       8.620 -11.232  11.602  1.00  0.00     0.008 A 
HETATM    4  C4  UNL     1       8.141 -12.474  11.902  1.00  0.00     0.153 A 
HETATM    5  N1  UNL     1       7.206 -12.314  12.860  1.00  0.00    -0.280 N 
HETATM    6  C9  UNL     1       9.623 -10.614  10.687  1.00  0.00     0.024 C 
HETATM    7  C10 UNL     1      10.575  -9.835  11.583  1.00  0.00     0.010 C 
HETATM    8  C11 UNL     1       9.868  -8.791  12.375  1.00  0.00     0.010 C 
HETATM    9  C12 UNL     1       8.346  -8.898  12.207  1.00  0.00     0.024 C 
HETATM   10  C13 UNL     1       8.119  -8.609  10.716  1.00  0.00     0.010 C 
HETATM   11  C14 UNL     1       8.853  -9.587   9.861  1.00  0.00     0.010 C 
ENDROOT
BRANCH   5  12
HETATM   12  C5  UNL     1       6.459 -13.402  13.450  1.00  0.00     0.232 C 
HETATM   13  C6  UNL     1       7.234 -14.102  14.551  1.00  0.00     0.056 C 
HETATM   14  C7  UNL     1       6.485 -15.424  14.644  1.00  0.00     0.031 C 
HETATM   15  C8  UNL     1       5.606 -15.383  13.409  1.00  0.00     0.170 C 
HETATM   16  O3  UNL     1       6.236 -14.447  12.561  1.00  0.00    -0.366 OA
ENDBRANCH   5  12
BRANCH   1  17
HETATM   17  O1  UNL     1       6.197 -10.475  14.128  1.00  0.00    -0.345 OA
ATOM     18  H1  UNL     1       5.916 -10.891  14.934  1.00  0.00     0.219 HD
ENDBRANCH   1  17
BRANCH   4  19
HETATM   19  O2  UNL     1       8.575 -13.644  11.303  1.00  0.00    -0.345 OA
ATOM     20  H2  UNL     1       8.006 -14.364  11.057  1.00  0.00     0.219 HD
ENDBRANCH   4  19
TORSDOF 3
ENDMDL
