MODEL 1
REMARK VINA RESULT: -4.406939384      0.000      0.000
REMARK  4 active torsions:
REMARK  status: ('A' for Active; 'I' for Inactive)
REMARK    1  A    between atoms: N1_1  and  C1_4 
REMARK    2  A    between atoms: C3_10  and  N4_11 
REMARK    3  A    between atoms: N4_11  and  N5_13 
REMARK    4  A    between atoms: N5_13  and  C4_15 
ROOT
HETATM    1  C1  UNL     1      18.727  12.942  49.401  1.00  0.00     0.691 A 
HETATM    2  N2  UNL     1      18.256  14.173  49.649  1.00  0.00    -0.187 N 
ATOM      3  H2  UNL     1      18.331  14.906  48.944  1.00  0.00     0.185 HD
HETATM    4  C2  UNL     1      17.682  14.432  50.840  1.00  0.00     0.215 A 
HETATM    5  N3  UNL     1      17.576  13.475  51.779  1.00  0.00    -0.185 N 
ATOM      6  H3  UNL     1      17.138  13.691  52.674  1.00  0.00     0.185 HD
HETATM    7  C3  UNL     1      18.040  12.242  51.548  1.00  0.00     0.712 A 
HETATM    8  N8  UNL     1      18.611  11.991  50.359  1.00  0.00    -0.021 N 
ATOM      9  H8  UNL     1      18.969  11.054  50.171  1.00  0.00     0.203 HD
ENDROOT
BRANCH   7  10
HETATM   10  N4  UNL     1      17.953  11.292  52.438  1.00  0.00    -0.134 N 
ATOM     11  H4  UNL     1      17.608  11.481  53.379  1.00  0.00     0.205 HD
BRANCH  10  12
HETATM   12  N5  UNL     1      18.346  10.009  52.061  1.00  0.00    -0.297 N 
ATOM     13  H5  UNL     1      19.260   9.844  51.637  1.00  0.00     0.183 HD
BRANCH  12  14
HETATM   14  C4  UNL     1      17.427   8.919  52.284  1.00  0.00     0.216 C 
HETATM   15  C5  UNL     1      16.719   8.615  50.983  1.00  0.00     0.168 C 
HETATM   16  N6  UNL     1      17.542   7.566  50.427  1.00  0.00    -0.383 N 
HETATM   17  C6  UNL     1      18.328   7.049  51.296  1.00  0.00     0.173 C 
ATOM     18  H6  UNL     1      17.502   7.270  49.451  1.00  0.00     0.160 HD
HETATM   19  N7  UNL     1      18.125   7.687  52.529  1.00  0.00    -0.363 N 
ATOM     20  H7  UNL     1      18.421   7.337  53.440  1.00  0.00     0.162 HD
ENDBRANCH  12  14
ENDBRANCH  10  12
ENDBRANCH   7  10
BRANCH   1  21
HETATM   21  N1  UNL     1      19.286  12.680  48.249  1.00  0.00    -0.234 N 
ATOM     22  H12 UNL     1      18.725  12.514  47.413  1.00  0.00     0.174 HD
ATOM     23  H11 UNL     1      20.302  12.640  48.176  1.00  0.00     0.174 HD
ENDBRANCH   1  21
TORSDOF 4
ENDMDL
MODEL 2
REMARK VINA RESULT: -4.189459140      3.633      5.816
REMARK  4 active torsions:
REMARK  status: ('A' for Active; 'I' for Inactive)
REMARK    1  A    between atoms: N1_1  and  C1_4 
REMARK    2  A    between atoms: C3_10  and  N4_11 
REMARK    3  A    between atoms: N4_11  and  N5_13 
REMARK    4  A    between atoms: N5_13  and  C4_15 
ROOT
HETATM    1  C1  UNL     1      14.193   7.833  55.145  1.00  0.00     0.691 A 
HETATM    2  N2  UNL     1      13.108   8.555  55.461  1.00  0.00    -0.187 N 
ATOM      3  H2  UNL     1      12.481   8.247  56.204  1.00  0.00     0.185 HD
HETATM    4  C2  UNL     1      12.855   9.693  54.786  1.00  0.00     0.215 A 
HETATM    5  N3  UNL     1      13.673  10.112  53.805  1.00  0.00    -0.185 N 
ATOM      6  H3  UNL     1      13.464  10.977  53.307  1.00  0.00     0.185 HD
HETATM    7  C3  UNL     1      14.760   9.405  53.478  1.00  0.00     0.712 A 
HETATM    8  N8  UNL     1      15.006   8.271  54.154  1.00  0.00    -0.021 N 
ATOM      9  H8  UNL     1      15.832   7.722  53.914  1.00  0.00     0.203 HD
ENDROOT
BRANCH   7  10
HETATM   10  N4  UNL     1      15.574   9.784  52.531  1.00  0.00    -0.134 N 
ATOM     11  H4  UNL     1      15.875  10.755  52.452  1.00  0.00     0.205 HD
BRANCH  10  12
HETATM   12  N5  UNL     1      16.019   8.817  51.630  1.00  0.00    -0.297 N 
ATOM     13  H5  UNL     1      15.392   8.085  51.296  1.00  0.00     0.183 HD
BRANCH  12  14
HETATM   14  C4  UNL     1      17.390   8.879  51.183  1.00  0.00     0.216 C 
HETATM   15  C5  UNL     1      18.291   8.859  52.398  1.00  0.00     0.168 C 
HETATM   16  N6  UNL     1      18.590   7.452  52.531  1.00  0.00    -0.383 N 
HETATM   17  C6  UNL     1      18.301   6.789  51.474  1.00  0.00     0.173 C 
ATOM     18  H6  UNL     1      18.986   7.033  53.372  1.00  0.00     0.160 HD
HETATM   19  N7  UNL     1      17.778   7.669  50.514  1.00  0.00    -0.363 N 
ATOM     20  H7  UNL     1      17.689   7.481  49.516  1.00  0.00     0.162 HD
ENDBRANCH  12  14
ENDBRANCH  10  12
ENDBRANCH   7  10
BRANCH   1  21
HETATM   21  N1  UNL     1      14.448   6.727  55.794  1.00  0.00    -0.234 N 
ATOM     22  H12 UNL     1      13.753   5.983  55.867  1.00  0.00     0.174 HD
ATOM     23  H11 UNL     1      15.358   6.597  56.236  1.00  0.00     0.174 HD
ENDBRANCH   1  21
TORSDOF 4
ENDMDL
MODEL 3
REMARK VINA RESULT: -4.156699906      1.416      5.011
REMARK  4 active torsions:
REMARK  status: ('A' for Active; 'I' for Inactive)
REMARK    1  A    between atoms: N1_1  and  C1_4 
REMARK    2  A    between atoms: C3_10  and  N4_11 
REMARK    3  A    between atoms: N4_11  and  N5_13 
REMARK    4  A    between atoms: N5_13  and  C4_15 
ROOT
HETATM    1  C1  UNL     1      17.075   8.600  51.096  1.00  0.00     0.691 A 
HETATM    2  N2  UNL     1      15.925   8.484  51.775  1.00  0.00    -0.187 N 
ATOM      3  H2  UNL     1      15.324   7.671  51.637  1.00  0.00     0.185 HD
HETATM    4  C2  UNL     1      15.570   9.452  52.642  1.00  0.00     0.215 A 
HETATM    5  N3  UNL     1      16.353  10.528  52.834  1.00  0.00    -0.185 N 
ATOM      6  H3  UNL     1      16.067  11.250  53.495  1.00  0.00     0.185 HD
HETATM    7  C3  UNL     1      17.504  10.660  52.166  1.00  0.00     0.712 A 
HETATM    8  N8  UNL     1      17.851   9.692  51.303  1.00  0.00    -0.021 N 
ATOM      9  H8  UNL     1      18.726   9.781  50.787  1.00  0.00     0.203 HD
ENDROOT
BRANCH   7  10
HETATM   10  N4  UNL     1      18.285  11.692  52.329  1.00  0.00    -0.134 N 
ATOM     11  H4  UNL     1      18.318  12.192  53.218  1.00  0.00     0.205 HD
BRANCH  10  12
HETATM   12  N5  UNL     1      19.072  12.090  51.250  1.00  0.00    -0.297 N 
ATOM     13  H5  UNL     1      20.010  11.711  51.118  1.00  0.00     0.183 HD
BRANCH  12  14
HETATM   14  C4  UNL     1      18.526  13.052  50.323  1.00  0.00     0.216 C 
HETATM   15  C5  UNL     1      19.474  14.227  50.238  1.00  0.00     0.168 C 
HETATM   16  N6  UNL     1      20.295  13.874  49.103  1.00  0.00    -0.383 N 
HETATM   17  C6  UNL     1      19.778  12.938  48.399  1.00  0.00     0.173 C 
ATOM     18  H6  UNL     1      21.187  14.319  48.888  1.00  0.00     0.160 HD
HETATM   19  N7  UNL     1      18.557  12.556  48.975  1.00  0.00    -0.363 N 
ATOM     20  H7  UNL     1      17.820  12.021  48.516  1.00  0.00     0.162 HD
ENDBRANCH  12  14
ENDBRANCH  10  12
ENDBRANCH   7  10
BRANCH   1  21
HETATM   21  N1  UNL     1      17.429   7.667  50.252  1.00  0.00    -0.234 N 
ATOM     22  H12 UNL     1      16.962   7.563  49.350  1.00  0.00     0.174 HD
ATOM     23  H11 UNL     1      18.185   7.026  50.492  1.00  0.00     0.174 HD
ENDBRANCH   1  21
TORSDOF 4
ENDMDL
MODEL 4
REMARK VINA RESULT: -4.080896200      3.688      5.838
REMARK  4 active torsions:
REMARK  status: ('A' for Active; 'I' for Inactive)
REMARK    1  A    between atoms: N1_1  and  C1_4 
REMARK    2  A    between atoms: C3_10  and  N4_11 
REMARK    3  A    between atoms: N4_11  and  N5_13 
REMARK    4  A    between atoms: N5_13  and  C4_15 
ROOT
HETATM    1  C1  UNL     1      12.733   9.816  54.677  1.00  0.00     0.691 A 
HETATM    2  N2  UNL     1      12.943   8.704  55.397  1.00  0.00    -0.187 N 
ATOM      3  H2  UNL     1      12.277   8.423  56.116  1.00  0.00     0.185 HD
HETATM    4  C2  UNL     1      14.042   7.963  55.161  1.00  0.00     0.215 A 
HETATM    5  N3  UNL     1      14.928   8.322  54.215  1.00  0.00    -0.185 N 
ATOM      6  H3  UNL     1      15.754   7.747  54.052  1.00  0.00     0.185 HD
HETATM    7  C3  UNL     1      14.735   9.427  53.487  1.00  0.00     0.712 A 
HETATM    8  N8  UNL     1      13.637  10.162  53.729  1.00  0.00    -0.021 N 
ATOM      9  H8  UNL     1      13.479  11.008  53.180  1.00  0.00     0.203 HD
ENDROOT
BRANCH   7  10
HETATM   10  N4  UNL     1      15.576   9.804  52.563  1.00  0.00    -0.134 N 
ATOM     11  H4  UNL     1      15.911  10.766  52.517  1.00  0.00     0.205 HD
BRANCH  10  12
HETATM   12  N5  UNL     1      16.001   8.848  51.642  1.00  0.00    -0.297 N 
ATOM     13  H5  UNL     1      15.361   8.131  51.298  1.00  0.00     0.183 HD
BRANCH  12  14
HETATM   14  C4  UNL     1      17.369   8.899  51.185  1.00  0.00     0.216 C 
HETATM   15  C5  UNL     1      18.278   8.882  52.394  1.00  0.00     0.168 C 
HETATM   16  N6  UNL     1      18.570   7.475  52.536  1.00  0.00    -0.383 N 
HETATM   17  C6  UNL     1      18.270   6.806  51.485  1.00  0.00     0.173 C 
ATOM     18  H6  UNL     1      18.969   7.060  53.377  1.00  0.00     0.160 HD
HETATM   19  N7  UNL     1      17.746   7.682  50.522  1.00  0.00    -0.363 N 
ATOM     20  H7  UNL     1      17.650   7.487  49.526  1.00  0.00     0.162 HD
ENDBRANCH  12  14
ENDBRANCH  10  12
ENDBRANCH   7  10
BRANCH   1  21
HETATM   21  N1  UNL     1      11.670  10.543  54.898  1.00  0.00    -0.234 N 
ATOM     22  H12 UNL     1      10.916  10.601  54.212  1.00  0.00     0.174 HD
ATOM     23  H11 UNL     1      11.584  11.064  55.770  1.00  0.00     0.174 HD
ENDBRANCH   1  21
TORSDOF 4
ENDMDL
MODEL 5
REMARK VINA RESULT: -4.034294507      4.009      5.105
REMARK  4 active torsions:
REMARK  status: ('A' for Active; 'I' for Inactive)
REMARK    1  A    between atoms: N1_1  and  C1_4 
REMARK    2  A    between atoms: C3_10  and  N4_11 
REMARK    3  A    between atoms: N4_11  and  N5_13 
REMARK    4  A    between atoms: N5_13  and  C4_15 
ROOT
HETATM    1  C1  UNL     1      16.769   7.960  50.754  1.00  0.00     0.691 A 
HETATM    2  N2  UNL     1      15.851   8.722  51.366  1.00  0.00    -0.187 N 
ATOM      3  H2  UNL     1      15.092   9.144  50.831  1.00  0.00     0.185 HD
HETATM    4  C2  UNL     1      15.940   8.924  52.694  1.00  0.00     0.215 A 
HETATM    5  N3  UNL     1      16.935   8.372  53.412  1.00  0.00    -0.185 N 
ATOM      6  H3  UNL     1      16.985   8.537  54.417  1.00  0.00     0.185 HD
HETATM    7  C3  UNL     1      17.859   7.609  52.818  1.00  0.00     0.712 A 
HETATM    8  N8  UNL     1      17.764   7.413  51.493  1.00  0.00    -0.021 N 
ATOM      9  H8  UNL     1      18.464   6.833  51.029  1.00  0.00     0.203 HD
ENDROOT
BRANCH   7  10
HETATM   10  N4  UNL     1      18.837   7.061  53.486  1.00  0.00    -0.134 N 
ATOM     11  H4  UNL     1      18.898   6.048  53.594  1.00  0.00     0.205 HD
BRANCH  10  12
HETATM   12  N5  UNL     1      19.796   7.904  54.046  1.00  0.00    -0.297 N 
ATOM     13  H5  UNL     1      19.523   8.765  54.519  1.00  0.00     0.183 HD
BRANCH  12  14
HETATM   14  C4  UNL     1      21.185   7.526  53.938  1.00  0.00     0.216 C 
HETATM   15  C5  UNL     1      21.607   7.660  52.492  1.00  0.00     0.168 C 
HETATM   16  N6  UNL     1      22.157   8.995  52.458  1.00  0.00    -0.383 N 
HETATM   17  C6  UNL     1      22.398   9.453  53.630  1.00  0.00     0.173 C 
ATOM     18  H6  UNL     1      22.333   9.515  51.598  1.00  0.00     0.160 HD
HETATM   19  N7  UNL     1      22.040   8.485  54.580  1.00  0.00    -0.363 N 
ATOM     20  H7  UNL     1      22.336   8.466  55.555  1.00  0.00     0.162 HD
ENDBRANCH  12  14
ENDBRANCH  10  12
ENDBRANCH   7  10
BRANCH   1  21
HETATM   21  N1  UNL     1      16.692   7.758  49.465  1.00  0.00    -0.234 N 
ATOM     22  H12 UNL     1      15.965   7.164  49.064  1.00  0.00     0.174 HD
ATOM     23  H11 UNL     1      17.367   8.200  48.841  1.00  0.00     0.174 HD
ENDBRANCH   1  21
TORSDOF 4
ENDMDL
