MODEL 1
REMARK VINA RESULT: -4.270724640      0.000      0.000
REMARK  7 active torsions:
REMARK  status: ('A' for Active; 'I' for Inactive)
REMARK    1  A    between atoms: C2_2  and  C3_3 
REMARK    2  A    between atoms: C3_3  and  N1_4 
REMARK    3  A    between atoms: N1_4  and  C4_6 
REMARK    4  A    between atoms: C5_9  and  C6_10 
REMARK    5  A    between atoms: C6_10  and  O1_11 
REMARK    6  A    between atoms: C8_14  and  N3_15 
REMARK    7  A    between atoms: C9_19  and  N4_20 
ROOT
HETATM    1  C4  UNL     1      19.218  16.317  55.057  1.00  0.00     0.206 C 
HETATM    2  N2  UNL     1      18.443  17.130  55.971  1.00  0.00    -0.394 N 
ATOM      3  H2  UNL     1      18.742  18.070  56.230  1.00  0.00     0.155 HD
HETATM    4  C5  UNL     1      17.256  16.569  56.491  1.00  0.00     0.104 C 
HETATM    5  C7  UNL     1      17.014  15.131  56.263  1.00  0.00     0.061 C 
HETATM    6  C8  UNL     1      17.432  14.582  54.934  1.00  0.00     0.219 C 
HETATM    7  C9  UNL     1      18.402  15.464  54.172  1.00  0.00     0.255 C 
ENDROOT
BRANCH   1   8
HETATM    8  N1  UNL     1      20.152  17.186  54.435  1.00  0.00    -0.397 N 
ATOM      9  H1  UNL     1      19.914  17.713  53.595  1.00  0.00     0.155 HD
BRANCH   8  10
HETATM   10  C3  UNL     1      21.437  17.289  55.039  1.00  0.00     0.142 C 
BRANCH  10  11
HETATM   11  C2  UNL     1      21.852  15.952  55.639  1.00  0.00    -0.018 C 
HETATM   12  C1  UNL     1      22.952  15.351  55.245  1.00  0.00     0.008 C 
ENDBRANCH  10  11
ENDBRANCH   8  10
ENDBRANCH   1   8
BRANCH   7  13
HETATM   13  N4  UNL     1      19.266  14.553  53.452  1.00  0.00    -0.069 N 
ATOM     14  H43 UNL     1      19.838  13.987  54.079  1.00  0.00     0.275 HD
ATOM     15  H42 UNL     1      18.745  13.797  53.008  1.00  0.00     0.275 HD
ATOM     16  H41 UNL     1      19.830  15.077  52.784  1.00  0.00     0.275 HD
ENDBRANCH   7  13
BRANCH   4  17
HETATM   17  C6  UNL     1      17.240  16.889  57.997  1.00  0.00     0.189 C 
BRANCH  17  18
HETATM   18  O1  UNL     1      16.817  15.821  58.761  1.00  0.00    -0.399 OA
ATOM     19  H1  UNL     1      16.247  15.232  58.281  1.00  0.00     0.209 HD
ENDBRANCH  17  18
ENDBRANCH   4  17
BRANCH   6  20
HETATM   20  N3  UNL     1      18.063  13.277  55.097  1.00  0.00    -0.073 N 
ATOM     21  H33 UNL     1      17.902  12.675  54.289  1.00  0.00     0.274 HD
ATOM     22  H32 UNL     1      19.080  13.338  55.041  1.00  0.00     0.274 HD
ATOM     23  H31 UNL     1      17.756  12.839  55.965  1.00  0.00     0.274 HD
ENDBRANCH   6  20
TORSDOF 7
ENDMDL
MODEL 2
REMARK VINA RESULT: -4.220665653      2.967      4.858
REMARK  7 active torsions:
REMARK  status: ('A' for Active; 'I' for Inactive)
REMARK    1  A    between atoms: C2_2  and  C3_3 
REMARK    2  A    between atoms: C3_3  and  N1_4 
REMARK    3  A    between atoms: N1_4  and  C4_6 
REMARK    4  A    between atoms: C5_9  and  C6_10 
REMARK    5  A    between atoms: C6_10  and  O1_11 
REMARK    6  A    between atoms: C8_14  and  N3_15 
REMARK    7  A    between atoms: C9_19  and  N4_20 
ROOT
HETATM    1  C4  UNL     1      17.595  17.129  57.533  1.00  0.00     0.206 C 
HETATM    2  N2  UNL     1      19.002  16.999  57.848  1.00  0.00    -0.394 N 
ATOM      3  H2  UNL     1      19.570  16.254  57.444  1.00  0.00     0.155 HD
HETATM    4  C5  UNL     1      19.558  17.945  58.737  1.00  0.00     0.104 C 
HETATM    5  C7  UNL     1      18.633  18.840  59.460  1.00  0.00     0.061 C 
HETATM    6  C8  UNL     1      17.438  19.326  58.701  1.00  0.00     0.219 C 
HETATM    7  C9  UNL     1      17.123  18.524  57.453  1.00  0.00     0.255 C 
ENDROOT
BRANCH   1   8
HETATM    8  N1  UNL     1      17.353  16.299  56.407  1.00  0.00    -0.397 N 
ATOM      9  H1  UNL     1      17.511  16.631  55.456  1.00  0.00     0.155 HD
BRANCH   8  10
HETATM   10  C3  UNL     1      16.880  14.982  56.666  1.00  0.00     0.142 C 
BRANCH  10  11
HETATM   11  C2  UNL     1      17.291  14.038  55.544  1.00  0.00    -0.018 C 
HETATM   12  C1  UNL     1      18.079  14.447  54.575  1.00  0.00     0.008 C 
ENDBRANCH  10  11
ENDBRANCH   8  10
ENDBRANCH   1   8
BRANCH   7  13
HETATM   13  N4  UNL     1      15.680  18.538  57.341  1.00  0.00    -0.069 N 
ATOM     14  H43 UNL     1      15.366  18.930  56.453  1.00  0.00     0.275 HD
ATOM     15  H42 UNL     1      15.292  17.601  57.232  1.00  0.00     0.275 HD
ATOM     16  H41 UNL     1      15.283  19.029  58.141  1.00  0.00     0.275 HD
ENDBRANCH   7  13
BRANCH   4  17
HETATM   17  C6  UNL     1      20.436  17.157  59.726  1.00  0.00     0.189 C 
BRANCH  17  18
HETATM   18  O1  UNL     1      19.695  16.530  60.708  1.00  0.00    -0.399 OA
ATOM     19  H1  UNL     1      20.232  16.230  61.432  1.00  0.00     0.209 HD
ENDBRANCH  17  18
ENDBRANCH   4  17
BRANCH   6  20
HETATM   20  N3  UNL     1      16.251  19.298  59.549  1.00  0.00    -0.073 N 
ATOM     21  H33 UNL     1      16.422  18.806  60.425  1.00  0.00     0.274 HD
ATOM     22  H32 UNL     1      16.036  20.220  59.931  1.00  0.00     0.274 HD
ATOM     23  H31 UNL     1      15.458  18.905  59.040  1.00  0.00     0.274 HD
ENDBRANCH   6  20
TORSDOF 7
ENDMDL
MODEL 3
REMARK VINA RESULT: -4.178686023      2.658      4.735
REMARK  7 active torsions:
REMARK  status: ('A' for Active; 'I' for Inactive)
REMARK    1  A    between atoms: C2_2  and  C3_3 
REMARK    2  A    between atoms: C3_3  and  N1_4 
REMARK    3  A    between atoms: N1_4  and  C4_6 
REMARK    4  A    between atoms: C5_9  and  C6_10 
REMARK    5  A    between atoms: C6_10  and  O1_11 
REMARK    6  A    between atoms: C8_14  and  N3_15 
REMARK    7  A    between atoms: C9_19  and  N4_20 
ROOT
HETATM    1  C4  UNL     1      18.151  16.965  57.408  1.00  0.00     0.206 C 
HETATM    2  N2  UNL     1      19.588  16.930  57.585  1.00  0.00    -0.394 N 
ATOM      3  H2  UNL     1      20.182  16.361  56.983  1.00  0.00     0.155 HD
HETATM    4  C5  UNL     1      20.132  17.715  58.625  1.00  0.00     0.104 C 
HETATM    5  C7  UNL     1      19.200  18.318  59.597  1.00  0.00     0.061 C 
HETATM    6  C8  UNL     1      17.897  18.819  59.055  1.00  0.00     0.219 C 
HETATM    7  C9  UNL     1      17.543  18.281  57.682  1.00  0.00     0.255 C 
ENDROOT
BRANCH   1   8
HETATM    8  N1  UNL     1      17.884  16.380  56.143  1.00  0.00    -0.397 N 
ATOM      9  H1  UNL     1      17.099  16.688  55.568  1.00  0.00     0.155 HD
BRANCH   8  10
HETATM   10  C3  UNL     1      18.761  15.347  55.712  1.00  0.00     0.142 C 
BRANCH  10  11
HETATM   11  C2  UNL     1      17.967  14.160  55.181  1.00  0.00    -0.018 C 
HETATM   12  C1  UNL     1      16.805  13.841  55.704  1.00  0.00     0.008 C 
ENDBRANCH  10  11
ENDBRANCH   8  10
ENDBRANCH   1   8
BRANCH   7  13
HETATM   13  N4  UNL     1      16.102  18.155  57.678  1.00  0.00    -0.069 N 
ATOM     14  H43 UNL     1      15.799  17.186  57.579  1.00  0.00     0.275 HD
ATOM     15  H42 UNL     1      15.696  18.341  58.596  1.00  0.00     0.275 HD
ATOM     16  H41 UNL     1      15.711  18.758  56.955  1.00  0.00     0.275 HD
ENDBRANCH   7  13
BRANCH   4  17
HETATM   17  C6  UNL     1      21.171  16.834  59.343  1.00  0.00     0.189 C 
BRANCH  17  18
HETATM   18  O1  UNL     1      20.629  16.134  60.402  1.00  0.00    -0.399 OA
ATOM     19  H1  UNL     1      19.780  16.471  60.665  1.00  0.00     0.209 HD
ENDBRANCH  17  18
ENDBRANCH   4  17
BRANCH   6  20
HETATM   20  N3  UNL     1      16.803  18.472  59.956  1.00  0.00    -0.073 N 
ATOM     21  H33 UNL     1      17.085  18.529  60.934  1.00  0.00     0.274 HD
ATOM     22  H32 UNL     1      16.077  19.189  59.965  1.00  0.00     0.274 HD
ATOM     23  H31 UNL     1      16.427  17.553  59.722  1.00  0.00     0.274 HD
ENDBRANCH   6  20
TORSDOF 7
ENDMDL
MODEL 4
REMARK VINA RESULT: -4.048945727      3.008      4.404
REMARK  7 active torsions:
REMARK  status: ('A' for Active; 'I' for Inactive)
REMARK    1  A    between atoms: C2_2  and  C3_3 
REMARK    2  A    between atoms: C3_3  and  N1_4 
REMARK    3  A    between atoms: N1_4  and  C4_6 
REMARK    4  A    between atoms: C5_9  and  C6_10 
REMARK    5  A    between atoms: C6_10  and  O1_11 
REMARK    6  A    between atoms: C8_14  and  N3_15 
REMARK    7  A    between atoms: C9_19  and  N4_20 
ROOT
HETATM    1  C4  UNL     1      17.103  16.714  56.859  1.00  0.00     0.206 C 
HETATM    2  N2  UNL     1      15.858  17.449  56.945  1.00  0.00    -0.394 N 
ATOM      3  H2  UNL     1      14.960  16.969  56.995  1.00  0.00     0.155 HD
HETATM    4  C5  UNL     1      15.938  18.859  56.959  1.00  0.00     0.104 C 
HETATM    5  C7  UNL     1      17.239  19.481  56.646  1.00  0.00     0.061 C 
HETATM    6  C8  UNL     1      18.458  18.783  57.165  1.00  0.00     0.219 C 
HETATM    7  C9  UNL     1      18.224  17.344  57.581  1.00  0.00     0.255 C 
ENDROOT
BRANCH   1   8
HETATM    8  N1  UNL     1      16.800  15.366  57.185  1.00  0.00    -0.397 N 
ATOM      9  H1  UNL     1      16.757  15.048  58.153  1.00  0.00     0.155 HD
BRANCH   8  10
HETATM   10  C3  UNL     1      16.559  14.479  56.099  1.00  0.00     0.142 C 
BRANCH  10  11
HETATM   11  C2  UNL     1      17.874  13.988  55.509  1.00  0.00    -0.018 C 
HETATM   12  C1  UNL     1      18.316  14.460  54.365  1.00  0.00     0.008 C 
ENDBRANCH  10  11
ENDBRANCH   8  10
ENDBRANCH   1   8
BRANCH   7  13
HETATM   13  N4  UNL     1      19.453  16.648  57.262  1.00  0.00    -0.069 N 
ATOM     14  H43 UNL     1      19.317  15.933  56.548  1.00  0.00     0.275 HD
ATOM     15  H42 UNL     1      20.110  17.238  56.753  1.00  0.00     0.275 HD
ATOM     16  H41 UNL     1      19.858  16.267  58.117  1.00  0.00     0.275 HD
ENDBRANCH   7  13
BRANCH   4  17
HETATM   17  C6  UNL     1      14.848  19.370  55.999  1.00  0.00     0.189 C 
BRANCH  17  18
HETATM   18  O1  UNL     1      13.735  18.554  55.980  1.00  0.00    -0.399 OA
ATOM     19  H1  UNL     1      12.970  18.990  55.621  1.00  0.00     0.209 HD
ENDBRANCH  17  18
ENDBRANCH   4  17
BRANCH   6  20
HETATM   20  N3  UNL     1      19.513  18.781  56.157  1.00  0.00    -0.073 N 
ATOM     21  H33 UNL     1      19.149  18.990  55.228  1.00  0.00     0.274 HD
ATOM     22  H32 UNL     1      20.137  19.582  56.259  1.00  0.00     0.274 HD
ATOM     23  H31 UNL     1      20.022  17.898  56.176  1.00  0.00     0.274 HD
ENDBRANCH   6  20
TORSDOF 7
ENDMDL
MODEL 5
REMARK VINA RESULT: -4.003222520      1.927      2.583
REMARK  7 active torsions:
REMARK  status: ('A' for Active; 'I' for Inactive)
REMARK    1  A    between atoms: C2_2  and  C3_3 
REMARK    2  A    between atoms: C3_3  and  N1_4 
REMARK    3  A    between atoms: N1_4  and  C4_6 
REMARK    4  A    between atoms: C5_9  and  C6_10 
REMARK    5  A    between atoms: C6_10  and  O1_11 
REMARK    6  A    between atoms: C8_14  and  N3_15 
REMARK    7  A    between atoms: C9_19  and  N4_20 
ROOT
HETATM    1  C4  UNL     1      20.290  15.777  55.513  1.00  0.00     0.206 C 
HETATM    2  N2  UNL     1      19.069  15.707  56.290  1.00  0.00    -0.394 N 
ATOM      3  H2  UNL     1      19.070  15.875  57.296  1.00  0.00     0.155 HD
HETATM    4  C5  UNL     1      17.878  15.394  55.599  1.00  0.00     0.104 C 
HETATM    5  C7  UNL     1      17.991  14.932  54.202  1.00  0.00     0.061 C 
HETATM    6  C8  UNL     1      19.045  15.584  53.362  1.00  0.00     0.219 C 
HETATM    7  C9  UNL     1      20.106  16.322  54.154  1.00  0.00     0.255 C 
ENDROOT
BRANCH   1   8
HETATM    8  N1  UNL     1      21.258  16.408  56.337  1.00  0.00    -0.397 N 
ATOM      9  H1  UNL     1      22.085  16.856  55.941  1.00  0.00     0.155 HD
BRANCH   8  10
HETATM   10  C3  UNL     1      21.023  16.387  57.740  1.00  0.00     0.142 C 
BRANCH  10  11
HETATM   11  C2  UNL     1      22.089  15.559  58.446  1.00  0.00    -0.018 C 
HETATM   12  C1  UNL     1      22.067  15.408  59.751  1.00  0.00     0.008 C 
ENDBRANCH  10  11
ENDBRANCH   8  10
ENDBRANCH   1   8
BRANCH   7  13
HETATM   13  N4  UNL     1      21.331  16.158  53.401  1.00  0.00    -0.069 N 
ATOM     14  H43 UNL     1      21.273  16.578  52.474  1.00  0.00     0.275 HD
ATOM     15  H42 UNL     1      22.091  16.728  53.773  1.00  0.00     0.275 HD
ATOM     16  H41 UNL     1      21.575  15.169  53.362  1.00  0.00     0.275 HD
ENDBRANCH   7  13
BRANCH   4  17
HETATM   17  C6  UNL     1      17.132  14.355  56.456  1.00  0.00     0.189 C 
BRANCH  17  18
HETATM   18  O1  UNL     1      16.716  14.869  57.668  1.00  0.00    -0.399 OA
ATOM     19  H1  UNL     1      15.941  14.434  58.001  1.00  0.00     0.209 HD
ENDBRANCH  17  18
ENDBRANCH   4  17
BRANCH   6  20
HETATM   20  N3  UNL     1      19.726  14.591  52.538  1.00  0.00    -0.073 N 
ATOM     21  H33 UNL     1      19.128  13.789  52.340  1.00  0.00     0.274 HD
ATOM     22  H32 UNL     1      19.860  14.920  51.581  1.00  0.00     0.274 HD
ATOM     23  H31 UNL     1      20.606  14.312  52.971  1.00  0.00     0.274 HD
ENDBRANCH   6  20
TORSDOF 7
ENDMDL
