MODEL 1
REMARK VINA RESULT: -4.023261542      0.000      0.000
REMARK  6 active torsions:
REMARK  status: ('A' for Active; 'I' for Inactive)
REMARK    1  A    between atoms: N1_1  and  C1_5 
REMARK    2  A    between atoms: C1_5  and  C2_6 
REMARK    3  A    between atoms: C2_6  and  C3_7 
REMARK    4  A    between atoms: C3_7  and  N2_8 
REMARK       I    between atoms: C4_10  and  N4_12 
REMARK    5  A    between atoms: N4_12  and  C5_14 
REMARK    6  A    between atoms: C7_18  and  N7_19 
ROOT
HETATM    1  N2  UNL     1      16.900  14.562  57.031  1.00  0.00    -0.365 N 
ATOM      2  H2  UNL     1      17.285  13.963  57.761  1.00  0.00     0.162 HD
HETATM    3  C4  UNL     1      16.751  15.791  57.320  1.00  0.00     0.185 C 
HETATM    4  N3  UNL     1      17.116  16.254  58.601  1.00  0.00    -0.064 NA
HETATM    5  N4  UNL     1      16.227  16.721  56.393  1.00  0.00    -0.343 N 
ATOM      6  H4  UNL     1      15.454  16.420  55.799  1.00  0.00     0.164 HD
ENDROOT
BRANCH   1   7
HETATM    7  C3  UNL     1      16.581  13.934  55.787  1.00  0.00     0.124 C 
BRANCH   7   8
HETATM    8  C2  UNL     1      17.876  13.595  55.087  1.00  0.00     0.047 C 
BRANCH   8   9
HETATM    9  C1  UNL     1      18.281  14.748  54.231  1.00  0.00     0.231 C 
BRANCH   9  10
HETATM   10  N1  UNL     1      19.523  15.294  54.718  1.00  0.00    -0.079 N 
ATOM     11  H13 UNL     1      20.286  15.168  54.054  1.00  0.00     0.274 HD
ATOM     12  H12 UNL     1      19.514  16.314  54.737  1.00  0.00     0.274 HD
ATOM     13  H11 UNL     1      19.735  14.892  55.631  1.00  0.00     0.274 HD
ENDBRANCH   9  10
ENDBRANCH   8   9
ENDBRANCH   7   8
ENDBRANCH   1   7
BRANCH   5  14
HETATM   14  C5  UNL     1      16.712  18.057  56.237  1.00  0.00     0.226 C 
HETATM   15  N5  UNL     1      16.810  18.475  54.861  1.00  0.00    -0.121 NA
HETATM   16  N6  UNL     1      16.260  19.732  54.736  1.00  0.00    -0.144 NA
HETATM   17  C6  UNL     1      16.184  20.312  56.066  1.00  0.00     0.166 C 
HETATM   18  C7  UNL     1      15.804  19.086  56.873  1.00  0.00     0.238 C 
BRANCH  18  19
HETATM   19  N7  UNL     1      16.051  19.242  58.279  1.00  0.00    -0.070 N 
ATOM     20  H73 UNL     1      16.556  18.439  58.655  1.00  0.00     0.274 HD
ATOM     21  H72 UNL     1      16.747  19.967  58.451  1.00  0.00     0.274 HD
ATOM     22  H71 UNL     1      15.197  19.420  58.808  1.00  0.00     0.274 HD
ENDBRANCH  18  19
ENDBRANCH   5  14
TORSDOF 6
ENDMDL
MODEL 2
REMARK VINA RESULT: -4.001130281      1.846      4.914
REMARK  6 active torsions:
REMARK  status: ('A' for Active; 'I' for Inactive)
REMARK    1  A    between atoms: N1_1  and  C1_5 
REMARK    2  A    between atoms: C1_5  and  C2_6 
REMARK    3  A    between atoms: C2_6  and  C3_7 
REMARK    4  A    between atoms: C3_7  and  N2_8 
REMARK       I    between atoms: C4_10  and  N4_12 
REMARK    5  A    between atoms: N4_12  and  C5_14 
REMARK    6  A    between atoms: C7_18  and  N7_19 
ROOT
HETATM    1  N2  UNL     1      16.646  17.812  57.832  1.00  0.00    -0.365 N 
ATOM      2  H2  UNL     1      15.879  17.730  58.499  1.00  0.00     0.162 HD
HETATM    3  C4  UNL     1      17.219  16.732  57.486  1.00  0.00     0.185 C 
HETATM    4  N3  UNL     1      16.779  15.506  58.025  1.00  0.00    -0.064 NA
HETATM    5  N4  UNL     1      18.295  16.715  56.568  1.00  0.00    -0.343 N 
ATOM      6  H4  UNL     1      18.990  17.459  56.633  1.00  0.00     0.164 HD
ENDROOT
BRANCH   1   7
HETATM    7  C3  UNL     1      16.967  19.131  57.382  1.00  0.00     0.124 C 
BRANCH   7   8
HETATM    8  C2  UNL     1      15.674  19.856  57.092  1.00  0.00     0.047 C 
BRANCH   8   9
HETATM    9  C1  UNL     1      15.028  19.236  55.898  1.00  0.00     0.231 C 
BRANCH   9  10
HETATM   10  N1  UNL     1      13.595  19.303  56.039  1.00  0.00    -0.079 N 
ATOM     11  H13 UNL     1      13.313  19.604  56.972  1.00  0.00     0.274 HD
ATOM     12  H12 UNL     1      13.191  20.075  55.509  1.00  0.00     0.274 HD
ATOM     13  H11 UNL     1      13.187  18.404  55.785  1.00  0.00     0.274 HD
ENDBRANCH   9  10
ENDBRANCH   8   9
ENDBRANCH   7   8
ENDBRANCH   1   7
BRANCH   5  14
HETATM   14  C5  UNL     1      18.469  15.721  55.555  1.00  0.00     0.226 C 
HETATM   15  N5  UNL     1      17.317  15.561  54.704  1.00  0.00    -0.121 NA
HETATM   16  N6  UNL     1      17.734  15.531  53.391  1.00  0.00    -0.144 NA
HETATM   17  C6  UNL     1      19.159  15.249  53.389  1.00  0.00     0.166 C 
HETATM   18  C7  UNL     1      19.594  16.051  54.600  1.00  0.00     0.238 C 
BRANCH  18  19
HETATM   19  N7  UNL     1      20.878  15.652  55.105  1.00  0.00    -0.070 N 
ATOM     20  H73 UNL     1      21.000  15.948  56.073  1.00  0.00     0.274 HD
ATOM     21  H72 UNL     1      20.923  14.642  55.236  1.00  0.00     0.274 HD
ATOM     22  H71 UNL     1      21.646  15.982  54.520  1.00  0.00     0.274 HD
ENDBRANCH  18  19
ENDBRANCH   5  14
TORSDOF 6
ENDMDL
MODEL 3
REMARK VINA RESULT: -3.986733755      2.446      3.341
REMARK  6 active torsions:
REMARK  status: ('A' for Active; 'I' for Inactive)
REMARK    1  A    between atoms: N1_1  and  C1_5 
REMARK    2  A    between atoms: C1_5  and  C2_6 
REMARK    3  A    between atoms: C2_6  and  C3_7 
REMARK    4  A    between atoms: C3_7  and  N2_8 
REMARK       I    between atoms: C4_10  and  N4_12 
REMARK    5  A    between atoms: N4_12  and  C5_14 
REMARK    6  A    between atoms: C7_18  and  N7_19 
ROOT
HETATM    1  N2  UNL     1      16.475  15.583  56.797  1.00  0.00    -0.365 N 
ATOM      2  H2  UNL     1      15.507  15.546  56.477  1.00  0.00     0.162 HD
HETATM    3  C4  UNL     1      16.890  16.705  57.227  1.00  0.00     0.185 C 
HETATM    4  N3  UNL     1      16.018  17.812  57.242  1.00  0.00    -0.064 NA
HETATM    5  N4  UNL     1      18.212  16.884  57.697  1.00  0.00    -0.343 N 
ATOM      6  H4  UNL     1      18.966  16.417  57.194  1.00  0.00     0.164 HD
ENDROOT
BRANCH   1   7
HETATM    7  C3  UNL     1      17.226  14.369  56.715  1.00  0.00     0.124 C 
BRANCH   7   8
HETATM    8  C2  UNL     1      17.232  13.917  55.273  1.00  0.00     0.047 C 
BRANCH   8   9
HETATM    9  C1  UNL     1      17.983  14.914  54.456  1.00  0.00     0.231 C 
BRANCH   9  10
HETATM   10  N1  UNL     1      19.362  14.938  54.877  1.00  0.00    -0.079 N 
ATOM     11  H13 UNL     1      19.529  14.337  55.683  1.00  0.00     0.274 HD
ATOM     12  H12 UNL     1      19.975  14.465  54.213  1.00  0.00     0.274 HD
ATOM     13  H11 UNL     1      19.647  15.902  55.048  1.00  0.00     0.274 HD
ENDBRANCH   9  10
ENDBRANCH   8   9
ENDBRANCH   7   8
ENDBRANCH   1   7
BRANCH   5  14
HETATM   14  C5  UNL     1      18.557  17.679  58.835  1.00  0.00     0.226 C 
HETATM   15  N5  UNL     1      19.514  17.048  59.707  1.00  0.00    -0.121 NA
HETATM   16  N6  UNL     1      20.494  17.961  60.030  1.00  0.00    -0.144 NA
HETATM   17  C6  UNL     1      19.976  19.285  59.728  1.00  0.00     0.166 C 
HETATM   18  C7  UNL     1      19.209  18.990  58.454  1.00  0.00     0.238 C 
BRANCH  18  19
HETATM   19  N7  UNL     1      18.249  20.007  58.130  1.00  0.00    -0.070 N 
ATOM     20  H73 UNL     1      18.693  20.797  57.661  1.00  0.00     0.274 HD
ATOM     21  H72 UNL     1      17.628  19.701  57.381  1.00  0.00     0.274 HD
ATOM     22  H71 UNL     1      17.717  20.315  58.945  1.00  0.00     0.274 HD
ENDBRANCH  18  19
ENDBRANCH   5  14
TORSDOF 6
ENDMDL
MODEL 4
REMARK VINA RESULT: -3.982657002      3.427      5.597
REMARK  6 active torsions:
REMARK  status: ('A' for Active; 'I' for Inactive)
REMARK    1  A    between atoms: N1_1  and  C1_5 
REMARK    2  A    between atoms: C1_5  and  C2_6 
REMARK    3  A    between atoms: C2_6  and  C3_7 
REMARK    4  A    between atoms: C3_7  and  N2_8 
REMARK       I    between atoms: C4_10  and  N4_12 
REMARK    5  A    between atoms: N4_12  and  C5_14 
REMARK    6  A    between atoms: C7_18  and  N7_19 
ROOT
HETATM    1  N2  UNL     1      19.674  15.609  54.487  1.00  0.00    -0.365 N 
ATOM      2  H2  UNL     1      19.910  15.672  53.496  1.00  0.00     0.162 HD
HETATM    3  C4  UNL     1      20.647  15.570  55.303  1.00  0.00     0.185 C 
HETATM    4  N3  UNL     1      21.969  15.615  54.816  1.00  0.00    -0.064 NA
HETATM    5  N4  UNL     1      20.449  15.482  56.701  1.00  0.00    -0.343 N 
ATOM      6  H4  UNL     1      19.700  14.878  57.041  1.00  0.00     0.164 HD
ENDROOT
BRANCH   1   7
HETATM    7  C3  UNL     1      18.283  15.573  54.814  1.00  0.00     0.124 C 
BRANCH   7   8
HETATM    8  C2  UNL     1      17.841  14.128  54.832  1.00  0.00     0.047 C 
BRANCH   8   9
HETATM    9  C1  UNL     1      16.737  13.971  55.823  1.00  0.00     0.231 C 
BRANCH   9  10
HETATM   10  N1  UNL     1      16.671  15.144  56.658  1.00  0.00    -0.079 N 
ATOM     11  H13 UNL     1      17.077  15.963  56.205  1.00  0.00     0.274 HD
ATOM     12  H12 UNL     1      15.717  15.492  56.759  1.00  0.00     0.274 HD
ATOM     13  H11 UNL     1      17.106  14.945  57.558  1.00  0.00     0.274 HD
ENDBRANCH   9  10
ENDBRANCH   8   9
ENDBRANCH   7   8
ENDBRANCH   1   7
BRANCH   5  14
HETATM   14  C5  UNL     1      21.233  16.187  57.667  1.00  0.00     0.226 C 
HETATM   15  N5  UNL     1      20.468  16.654  58.796  1.00  0.00    -0.121 NA
HETATM   16  N6  UNL     1      21.148  16.343  59.954  1.00  0.00    -0.144 NA
HETATM   17  C6  UNL     1      22.526  16.059  59.592  1.00  0.00     0.166 C 
HETATM   18  C7  UNL     1      22.314  15.326  58.282  1.00  0.00     0.238 C 
BRANCH  18  19
HETATM   19  N7  UNL     1      23.499  15.272  57.472  1.00  0.00    -0.070 N 
ATOM     20  H73 UNL     1      23.999  14.394  57.609  1.00  0.00     0.274 HD
ATOM     21  H72 UNL     1      23.265  15.175  56.484  1.00  0.00     0.274 HD
ATOM     22  H71 UNL     1      24.113  16.072  57.627  1.00  0.00     0.274 HD
ENDBRANCH  18  19
ENDBRANCH   5  14
TORSDOF 6
ENDMDL
MODEL 5
REMARK VINA RESULT: -3.977897135      2.930      4.889
REMARK  6 active torsions:
REMARK  status: ('A' for Active; 'I' for Inactive)
REMARK    1  A    between atoms: N1_1  and  C1_5 
REMARK    2  A    between atoms: C1_5  and  C2_6 
REMARK    3  A    between atoms: C2_6  and  C3_7 
REMARK    4  A    between atoms: C3_7  and  N2_8 
REMARK       I    between atoms: C4_10  and  N4_12 
REMARK    5  A    between atoms: N4_12  and  C5_14 
REMARK    6  A    between atoms: C7_18  and  N7_19 
ROOT
HETATM    1  N2  UNL     1      18.406  14.270  54.488  1.00  0.00    -0.365 N 
ATOM      2  H2  UNL     1      19.014  13.472  54.675  1.00  0.00     0.162 HD
HETATM    3  C4  UNL     1      18.718  15.006  53.500  1.00  0.00     0.185 C 
HETATM    4  N3  UNL     1      19.858  14.693  52.730  1.00  0.00    -0.064 NA
HETATM    5  N4  UNL     1      17.955  16.140  53.140  1.00  0.00    -0.343 N 
ATOM      6  H4  UNL     1      17.584  16.725  53.889  1.00  0.00     0.164 HD
ENDROOT
BRANCH   1   7
HETATM    7  C3  UNL     1      17.291  14.447  55.365  1.00  0.00     0.124 C 
BRANCH   7   8
HETATM    8  C2  UNL     1      17.740  15.296  56.531  1.00  0.00     0.047 C 
BRANCH   8   9
HETATM    9  C1  UNL     1      16.585  16.112  57.009  1.00  0.00     0.231 C 
BRANCH   9  10
HETATM   10  N1  UNL     1      16.828  16.539  58.364  1.00  0.00    -0.079 N 
ATOM     11  H13 UNL     1      16.109  16.209  59.007  1.00  0.00     0.274 HD
ATOM     12  H12 UNL     1      17.627  16.061  58.781  1.00  0.00     0.274 HD
ATOM     13  H11 UNL     1      16.930  17.553  58.387  1.00  0.00     0.274 HD
ENDBRANCH   9  10
ENDBRANCH   8   9
ENDBRANCH   7   8
ENDBRANCH   1   7
BRANCH   5  14
HETATM   14  C5  UNL     1      17.672  16.521  51.791  1.00  0.00     0.226 C 
HETATM   15  N5  UNL     1      16.316  16.967  51.593  1.00  0.00    -0.121 NA
HETATM   16  N6  UNL     1      16.332  18.131  50.856  1.00  0.00    -0.144 NA
HETATM   17  C6  UNL     1      17.634  18.227  50.217  1.00  0.00     0.166 C 
HETATM   18  C7  UNL     1      18.518  17.684  51.322  1.00  0.00     0.238 C 
BRANCH  18  19
HETATM   19  N7  UNL     1      19.810  17.269  50.853  1.00  0.00    -0.070 N 
ATOM     20  H73 UNL     1      19.803  17.113  49.845  1.00  0.00     0.274 HD
ATOM     21  H72 UNL     1      20.480  18.036  50.895  1.00  0.00     0.274 HD
ATOM     22  H71 UNL     1      20.160  16.449  51.350  1.00  0.00     0.274 HD
ENDBRANCH  18  19
ENDBRANCH   5  14
TORSDOF 6
ENDMDL
