MODEL 1
REMARK VINA RESULT: -4.621100729      0.000      0.000
REMARK  7 active torsions:
REMARK  status: ('A' for Active; 'I' for Inactive)
REMARK    1  A    between atoms: C2_7  and  C3_8 
REMARK    2  A    between atoms: C3_8  and  C4_9 
REMARK    3  A    between atoms: C4_9  and  O1_10 
REMARK    4  A    between atoms: C5_14  and  N4_15 
REMARK    5  A    between atoms: N4_15  and  C6_17 
REMARK    6  A    between atoms: C6_17  and  C7_18 
REMARK    7  A    between atoms: C7_18  and  N5_19 
ROOT
HETATM    1  N1  UNL     1      17.830  18.833  60.444  1.00  0.00    -0.234 N 
ATOM      2  H11 UNL     1      18.292  18.120  61.008  1.00  0.00     0.174 HD
ATOM      3  H12 UNL     1      17.833  19.806  60.750  1.00  0.00     0.174 HD
HETATM    4  C1  UNL     1      17.242  18.520  59.342  1.00  0.00     0.691 A 
HETATM    5  N2  UNL     1      16.624  19.477  58.584  1.00  0.00    -0.180 N 
ATOM      6  H2  UNL     1      16.637  20.444  58.908  1.00  0.00     0.185 HD
HETATM    7  C2  UNL     1      16.000  19.191  57.428  1.00  0.00     0.115 A 
HETATM    8  N3  UNL     1      16.017  17.897  57.056  1.00  0.00    -0.180 N 
ATOM      9  H3  UNL     1      15.557  17.630  56.186  1.00  0.00     0.185 HD
HETATM   10  C5  UNL     1      16.620  16.940  57.789  1.00  0.00     0.694 A 
HETATM   11  N6  UNL     1      17.238  17.241  58.939  1.00  0.00    -0.023 N 
ATOM     12  H6  UNL     1      17.694  16.516  59.493  1.00  0.00     0.203 HD
ENDROOT
BRANCH  10  13
HETATM   13  N4  UNL     1      16.626  15.688  57.411  1.00  0.00    -0.224 N 
ATOM     14  H4  UNL     1      16.050  15.006  57.906  1.00  0.00     0.177 HD
BRANCH  13  15
HETATM   15  C6  UNL     1      17.443  15.265  56.298  1.00  0.00     0.165 C 
BRANCH  15  16
HETATM   16  C7  UNL     1      16.971  13.947  55.725  1.00  0.00     0.249 C 
BRANCH  16  17
HETATM   17  N5  UNL     1      18.027  13.262  55.006  1.00  0.00    -0.078 N 
ATOM     18  H53 UNL     1      18.250  13.737  54.132  1.00  0.00     0.274 HD
ATOM     19  H52 UNL     1      18.925  13.367  55.478  1.00  0.00     0.274 HD
ATOM     20  H51 UNL     1      17.803  12.279  54.849  1.00  0.00     0.274 HD
ENDBRANCH  16  17
ENDBRANCH  15  16
ENDBRANCH  13  15
ENDBRANCH  10  13
BRANCH   7  21
HETATM   21  C3  UNL     1      15.328  20.219  56.600  1.00  0.00     0.103 C 
BRANCH  21  22
HETATM   22  C4  UNL     1      14.342  19.673  55.621  1.00  0.00     0.171 C 
BRANCH  22  23
HETATM   23  O1  UNL     1      13.466  18.753  56.133  1.00  0.00    -0.400 OA
ATOM     24  H1  UNL     1      12.764  18.496  55.546  1.00  0.00     0.209 HD
ENDBRANCH  22  23
ENDBRANCH  21  22
ENDBRANCH   7  21
TORSDOF 7
ENDMDL
MODEL 2
REMARK VINA RESULT: -4.552959742      1.473      4.440
REMARK  7 active torsions:
REMARK  status: ('A' for Active; 'I' for Inactive)
REMARK    1  A    between atoms: C2_7  and  C3_8 
REMARK    2  A    between atoms: C3_8  and  C4_9 
REMARK    3  A    between atoms: C4_9  and  O1_10 
REMARK    4  A    between atoms: C5_14  and  N4_15 
REMARK    5  A    between atoms: N4_15  and  C6_17 
REMARK    6  A    between atoms: C6_17  and  C7_18 
REMARK    7  A    between atoms: C7_18  and  N5_19 
ROOT
HETATM    1  N1  UNL     1      16.655  14.976  57.433  1.00  0.00    -0.234 N 
ATOM      2  H11 UNL     1      16.934  14.360  58.196  1.00  0.00     0.174 HD
ATOM      3  H12 UNL     1      16.337  14.580  56.548  1.00  0.00     0.174 HD
HETATM    4  C1  UNL     1      16.697  16.255  57.572  1.00  0.00     0.691 A 
HETATM    5  N2  UNL     1      16.322  17.082  56.549  1.00  0.00    -0.180 N 
ATOM      6  H2  UNL     1      16.008  16.666  55.672  1.00  0.00     0.185 HD
HETATM    7  C2  UNL     1      16.351  18.422  56.654  1.00  0.00     0.115 A 
HETATM    8  N3  UNL     1      16.775  18.908  57.837  1.00  0.00    -0.180 N 
ATOM      9  H3  UNL     1      16.814  19.918  57.966  1.00  0.00     0.185 HD
HETATM   10  C5  UNL     1      17.148  18.111  58.856  1.00  0.00     0.694 A 
HETATM   11  N6  UNL     1      17.114  16.777  58.736  1.00  0.00    -0.023 N 
ATOM     12  H6  UNL     1      17.397  16.173  59.508  1.00  0.00     0.203 HD
ENDROOT
BRANCH  10  13
HETATM   13  N4  UNL     1      17.558  18.601  59.997  1.00  0.00    -0.224 N 
ATOM     14  H4  UNL     1      18.392  18.218  60.444  1.00  0.00     0.177 HD
BRANCH  13  15
HETATM   15  C6  UNL     1      16.837  19.683  60.628  1.00  0.00     0.165 C 
BRANCH  15  16
HETATM   16  C7  UNL     1      16.929  19.613  62.136  1.00  0.00     0.249 C 
BRANCH  16  17
HETATM   17  N5  UNL     1      15.841  18.844  62.708  1.00  0.00    -0.078 N 
ATOM     18  H53 UNL     1      15.411  18.234  62.012  1.00  0.00     0.274 HD
ATOM     19  H52 UNL     1      16.188  18.133  63.352  1.00  0.00     0.274 HD
ATOM     20  H51 UNL     1      15.147  19.444  63.156  1.00  0.00     0.274 HD
ENDBRANCH  16  17
ENDBRANCH  15  16
ENDBRANCH  13  15
ENDBRANCH  10  13
BRANCH   7  21
HETATM   21  C3  UNL     1      15.947  19.325  55.553  1.00  0.00     0.103 C 
BRANCH  21  22
HETATM   22  C4  UNL     1      14.481  19.604  55.492  1.00  0.00     0.171 C 
BRANCH  22  23
HETATM   23  O1  UNL     1      13.679  18.595  55.958  1.00  0.00    -0.400 OA
ATOM     24  H1  UNL     1      14.131  17.915  56.445  1.00  0.00     0.209 HD
ENDBRANCH  22  23
ENDBRANCH  21  22
ENDBRANCH   7  21
TORSDOF 7
ENDMDL
MODEL 3
REMARK VINA RESULT: -4.363787846      3.705      5.845
REMARK  7 active torsions:
REMARK  status: ('A' for Active; 'I' for Inactive)
REMARK    1  A    between atoms: C2_7  and  C3_8 
REMARK    2  A    between atoms: C3_8  and  C4_9 
REMARK    3  A    between atoms: C4_9  and  O1_10 
REMARK    4  A    between atoms: C5_14  and  N4_15 
REMARK    5  A    between atoms: N4_15  and  C6_17 
REMARK    6  A    between atoms: C6_17  and  C7_18 
REMARK    7  A    between atoms: C7_18  and  N5_19 
ROOT
HETATM    1  N1  UNL     1      19.597  14.924  52.412  1.00  0.00    -0.234 N 
ATOM      2  H11 UNL     1      20.486  15.072  51.934  1.00  0.00     0.174 HD
ATOM      3  H12 UNL     1      18.778  14.621  51.885  1.00  0.00     0.174 HD
HETATM    4  C1  UNL     1      19.495  15.115  53.682  1.00  0.00     0.691 A 
HETATM    5  N2  UNL     1      18.303  14.916  54.324  1.00  0.00    -0.180 N 
ATOM      6  H2  UNL     1      17.496  14.614  53.778  1.00  0.00     0.185 HD
HETATM    7  C2  UNL     1      18.155  15.104  55.646  1.00  0.00     0.115 A 
HETATM    8  N3  UNL     1      19.258  15.503  56.309  1.00  0.00    -0.180 N 
ATOM      9  H3  UNL     1      19.196  15.659  57.315  1.00  0.00     0.185 HD
HETATM   10  C5  UNL     1      20.440  15.705  55.695  1.00  0.00     0.694 A 
HETATM   11  N6  UNL     1      20.571  15.513  54.376  1.00  0.00    -0.023 N 
ATOM     12  H6  UNL     1      21.466  15.666  53.911  1.00  0.00     0.203 HD
ENDROOT
BRANCH  10  13
HETATM   13  N4  UNL     1      21.500  16.093  56.356  1.00  0.00    -0.224 N 
ATOM     14  H4  UNL     1      22.363  16.301  55.853  1.00  0.00     0.177 HD
BRANCH  13  15
HETATM   15  C6  UNL     1      21.454  16.230  57.793  1.00  0.00     0.165 C 
BRANCH  15  16
HETATM   16  C7  UNL     1      22.598  15.499  58.461  1.00  0.00     0.249 C 
BRANCH  16  17
HETATM   17  N5  UNL     1      22.253  15.069  59.802  1.00  0.00    -0.078 N 
ATOM     18  H53 UNL     1      21.254  14.879  59.886  1.00  0.00     0.274 HD
ATOM     19  H52 UNL     1      22.610  14.133  59.995  1.00  0.00     0.274 HD
ATOM     20  H51 UNL     1      22.564  15.738  60.507  1.00  0.00     0.274 HD
ENDBRANCH  16  17
ENDBRANCH  15  16
ENDBRANCH  13  15
ENDBRANCH  10  13
BRANCH   7  21
HETATM   21  C3  UNL     1      16.871  14.891  56.351  1.00  0.00     0.103 C 
BRANCH  21  22
HETATM   22  C4  UNL     1      16.496  15.988  57.293  1.00  0.00     0.171 C 
BRANCH  22  23
HETATM   23  O1  UNL     1      16.844  15.773  58.601  1.00  0.00    -0.400 OA
ATOM     24  H1  UNL     1      17.725  16.044  58.832  1.00  0.00     0.209 HD
ENDBRANCH  22  23
ENDBRANCH  21  22
ENDBRANCH   7  21
TORSDOF 7
ENDMDL
MODEL 4
REMARK VINA RESULT: -4.362659016      4.269      6.067
REMARK  7 active torsions:
REMARK  status: ('A' for Active; 'I' for Inactive)
REMARK    1  A    between atoms: C2_7  and  C3_8 
REMARK    2  A    between atoms: C3_8  and  C4_9 
REMARK    3  A    between atoms: C4_9  and  O1_10 
REMARK    4  A    between atoms: C5_14  and  N4_15 
REMARK    5  A    between atoms: N4_15  and  C6_17 
REMARK    6  A    between atoms: C6_17  and  C7_18 
REMARK    7  A    between atoms: C7_18  and  N5_19 
ROOT
HETATM    1  N1  UNL     1      21.514  15.683  54.002  1.00  0.00    -0.234 N 
ATOM      2  H11 UNL     1      22.074  16.000  53.210  1.00  0.00     0.174 HD
ATOM      3  H12 UNL     1      21.967  15.451  54.886  1.00  0.00     0.174 HD
HETATM    4  C1  UNL     1      20.235  15.573  53.901  1.00  0.00     0.691 A 
HETATM    5  N2  UNL     1      19.484  15.150  54.963  1.00  0.00    -0.180 N 
ATOM      6  H2  UNL     1      19.956  14.922  55.838  1.00  0.00     0.185 HD
HETATM    7  C2  UNL     1      18.148  15.022  54.898  1.00  0.00     0.115 A 
HETATM    8  N3  UNL     1      17.585  15.338  53.715  1.00  0.00    -0.180 N 
ATOM      9  H3  UNL     1      16.574  15.257  53.617  1.00  0.00     0.185 HD
HETATM   10  C5  UNL     1      18.307  15.756  52.658  1.00  0.00     0.694 A 
HETATM   11  N6  UNL     1      19.639  15.879  52.739  1.00  0.00    -0.023 N 
ATOM     12  H6  UNL     1      20.185  16.195  51.938  1.00  0.00     0.203 HD
ENDROOT
BRANCH  10  13
HETATM   13  N4  UNL     1      17.743  16.058  51.517  1.00  0.00    -0.224 N 
ATOM     14  H4  UNL     1      17.793  15.402  50.737  1.00  0.00     0.177 HD
BRANCH  13  15
HETATM   15  C6  UNL     1      17.050  17.315  51.356  1.00  0.00     0.165 C 
BRANCH  15  16
HETATM   16  C7  UNL     1      16.246  17.350  50.075  1.00  0.00     0.249 C 
BRANCH  16  17
HETATM   17  N5  UNL     1      14.990  16.637  50.206  1.00  0.00    -0.078 N 
ATOM     18  H53 UNL     1      14.447  16.984  50.996  1.00  0.00     0.274 HD
ATOM     19  H52 UNL     1      14.347  16.877  49.452  1.00  0.00     0.274 HD
ATOM     20  H51 UNL     1      15.131  15.628  50.266  1.00  0.00     0.274 HD
ENDBRANCH  16  17
ENDBRANCH  15  16
ENDBRANCH  13  15
ENDBRANCH  10  13
BRANCH   7  21
HETATM   21  C3  UNL     1      17.326  14.565  56.042  1.00  0.00     0.103 C 
BRANCH  21  22
HETATM   22  C4  UNL     1      16.792  15.668  56.895  1.00  0.00     0.171 C 
BRANCH  22  23
HETATM   23  O1  UNL     1      16.511  15.315  58.189  1.00  0.00    -0.400 OA
ATOM     24  H1  UNL     1      17.265  15.068  58.711  1.00  0.00     0.209 HD
ENDBRANCH  22  23
ENDBRANCH  21  22
ENDBRANCH   7  21
TORSDOF 7
ENDMDL
MODEL 5
REMARK VINA RESULT: -4.310816042      2.594      3.748
REMARK  7 active torsions:
REMARK  status: ('A' for Active; 'I' for Inactive)
REMARK    1  A    between atoms: C2_7  and  C3_8 
REMARK    2  A    between atoms: C3_8  and  C4_9 
REMARK    3  A    between atoms: C4_9  and  O1_10 
REMARK    4  A    between atoms: C5_14  and  N4_15 
REMARK    5  A    between atoms: N4_15  and  C6_17 
REMARK    6  A    between atoms: C6_17  and  C7_18 
REMARK    7  A    between atoms: C7_18  and  N5_19 
ROOT
HETATM    1  N1  UNL     1      15.619  20.316  58.270  1.00  0.00    -0.234 N 
ATOM      2  H11 UNL     1      14.705  20.256  57.822  1.00  0.00     0.174 HD
ATOM      3  H12 UNL     1      15.915  21.188  58.711  1.00  0.00     0.174 HD
HETATM    4  C1  UNL     1      16.411  19.300  58.289  1.00  0.00     0.691 A 
HETATM    5  N2  UNL     1      17.637  19.381  58.890  1.00  0.00    -0.180 N 
ATOM      6  H2  UNL     1      17.913  20.261  59.325  1.00  0.00     0.185 HD
HETATM    7  C2  UNL     1      18.491  18.344  58.931  1.00  0.00     0.115 A 
HETATM    8  N3  UNL     1      18.066  17.211  58.339  1.00  0.00    -0.180 N 
ATOM      9  H3  UNL     1      18.679  16.396  58.344  1.00  0.00     0.185 HD
HETATM   10  C5  UNL     1      16.863  17.112  57.741  1.00  0.00     0.694 A 
HETATM   11  N6  UNL     1      16.023  18.154  57.709  1.00  0.00    -0.023 N 
ATOM     12  H6  UNL     1      15.112  18.079  57.256  1.00  0.00     0.203 HD
ENDROOT
BRANCH  10  13
HETATM   13  N4  UNL     1      16.469  16.003  57.171  1.00  0.00    -0.224 N 
ATOM     14  H4  UNL     1      15.657  15.505  57.537  1.00  0.00     0.177 HD
BRANCH  13  15
HETATM   15  C6  UNL     1      17.177  15.479  56.026  1.00  0.00     0.165 C 
BRANCH  15  16
HETATM   16  C7  UNL     1      16.901  14.005  55.823  1.00  0.00     0.249 C 
BRANCH  16  17
HETATM   17  N5  UNL     1      17.970  13.352  55.094  1.00  0.00    -0.078 N 
ATOM     18  H53 UNL     1      17.812  13.395  54.087  1.00  0.00     0.274 HD
ATOM     19  H52 UNL     1      18.835  13.889  55.143  1.00  0.00     0.274 HD
ATOM     20  H51 UNL     1      18.111  12.391  55.407  1.00  0.00     0.274 HD
ENDBRANCH  16  17
ENDBRANCH  15  16
ENDBRANCH  13  15
ENDBRANCH  10  13
BRANCH   7  21
HETATM   21  C3  UNL     1      19.819  18.420  59.580  1.00  0.00     0.103 C 
BRANCH  21  22
HETATM   22  C4  UNL     1      20.436  17.093  59.878  1.00  0.00     0.171 C 
BRANCH  22  23
HETATM   23  O1  UNL     1      19.764  16.336  60.801  1.00  0.00    -0.400 OA
ATOM     24  H1  UNL     1      20.273  15.635  61.192  1.00  0.00     0.209 HD
ENDBRANCH  22  23
ENDBRANCH  21  22
ENDBRANCH   7  21
TORSDOF 7
ENDMDL
