MODEL 1
REMARK VINA RESULT: -4.053993782      0.000      0.000
REMARK  4 active torsions:
REMARK  status: ('A' for Active; 'I' for Inactive)
REMARK       I    between atoms: C1_4  and  N2_5 
REMARK       I    between atoms: C1_4  and  N4_10 
REMARK    1  A    between atoms: N2_5  and  N3_7 
REMARK    2  A    between atoms: N4_10  and  C2_12 
REMARK    3  A    between atoms: C2_12  and  C3_13 
REMARK    4  A    between atoms: C3_13  and  N5_14 
ROOT
HETATM    1  N1  UNL     1      17.935  15.698  52.985  1.00  0.00    -0.234 N 
ATOM      2  H11 UNL     1      16.932  15.514  52.986  1.00  0.00     0.174 HD
ATOM      3  H12 UNL     1      18.363  16.411  52.394  1.00  0.00     0.174 HD
HETATM    4  C1  UNL     1      18.712  15.012  53.747  1.00  0.00     0.685 C 
HETATM    5  N2  UNL     1      20.084  15.263  53.746  1.00  0.00    -0.139 N 
ATOM      6  H2  UNL     1      20.626  15.125  52.893  1.00  0.00     0.205 HD
HETATM    7  N4  UNL     1      18.113  14.015  54.574  1.00  0.00    -0.224 N 
ATOM      8  H4  UNL     1      17.800  13.142  54.148  1.00  0.00     0.177 HD
ENDROOT
BRANCH   7   9
HETATM    9  C2  UNL     1      17.936  14.203  55.987  1.00  0.00     0.168 C 
BRANCH   9  10
HETATM   10  C3  UNL     1      17.032  15.282  56.434  1.00  0.00     0.292 C 
BRANCH  10  11
HETATM   11  N5  UNL     1      17.576  16.527  56.807  1.00  0.00     0.093 N 
HETATM   12  C4  UNL     1      17.351  16.770  58.239  1.00  0.00     0.300 C 
HETATM   13  C5  UNL     1      17.189  18.220  58.547  1.00  0.00     0.262 C 
HETATM   14  N6  UNL     1      16.063  18.817  57.854  1.00  0.00    -0.072 N 
HETATM   15  C6  UNL     1      15.863  18.159  56.567  1.00  0.00     0.262 C 
ATOM     16  H62 UNL     1      15.216  18.810  58.422  1.00  0.00     0.277 HD
ATOM     17  H61 UNL     1      16.166  19.827  57.755  1.00  0.00     0.277 HD
HETATM   18  C7  UNL     1      17.239  17.709  56.098  1.00  0.00     0.300 C 
ENDBRANCH  10  11
ENDBRANCH   9  10
ENDBRANCH   7   9
BRANCH   5  19
HETATM   19  N3  UNL     1      20.717  15.704  54.909  1.00  0.00    -0.331 N 
ATOM     20  H32 UNL     1      21.685  16.022  54.855  1.00  0.00     0.177 HD
ATOM     21  H31 UNL     1      20.214  15.706  55.796  1.00  0.00     0.177 HD
ENDBRANCH   5  19
TORSDOF 4
ENDMDL
MODEL 2
REMARK VINA RESULT: -4.021344200      1.202      1.840
REMARK  4 active torsions:
REMARK  status: ('A' for Active; 'I' for Inactive)
REMARK       I    between atoms: C1_4  and  N2_5 
REMARK       I    between atoms: C1_4  and  N4_10 
REMARK    1  A    between atoms: N2_5  and  N3_7 
REMARK    2  A    between atoms: N4_10  and  C2_12 
REMARK    3  A    between atoms: C2_12  and  C3_13 
REMARK    4  A    between atoms: C3_13  and  N5_14 
ROOT
HETATM    1  N1  UNL     1      18.049  15.801  52.288  1.00  0.00    -0.234 N 
ATOM      2  H11 UNL     1      17.238  16.161  52.791  1.00  0.00     0.174 HD
ATOM      3  H12 UNL     1      18.215  15.997  51.301  1.00  0.00     0.174 HD
HETATM    4  C1  UNL     1      18.906  15.063  52.901  1.00  0.00     0.685 C 
HETATM    5  N2  UNL     1      20.015  14.571  52.212  1.00  0.00    -0.139 N 
ATOM      6  H2  UNL     1      19.884  13.942  51.420  1.00  0.00     0.205 HD
HETATM    7  N4  UNL     1      18.674  14.789  54.282  1.00  0.00    -0.224 N 
ATOM      8  H4  UNL     1      17.950  14.117  54.538  1.00  0.00     0.177 HD
ENDROOT
BRANCH   7   9
HETATM    9  C2  UNL     1      19.427  15.431  55.323  1.00  0.00     0.168 C 
BRANCH   9  10
HETATM   10  C3  UNL     1      18.872  16.662  55.921  1.00  0.00     0.292 C 
BRANCH  10  11
HETATM   11  N5  UNL     1      17.482  16.762  56.128  1.00  0.00     0.093 N 
HETATM   12  C4  UNL     1      17.009  18.103  55.755  1.00  0.00     0.300 C 
HETATM   13  C5  UNL     1      15.845  18.540  56.578  1.00  0.00     0.262 C 
HETATM   14  N6  UNL     1      16.152  18.599  57.996  1.00  0.00    -0.072 N 
HETATM   15  C6  UNL     1      17.142  17.582  58.334  1.00  0.00     0.262 C 
ATOM     16  H62 UNL     1      16.447  19.532  58.284  1.00  0.00     0.277 HD
ATOM     17  H61 UNL     1      15.314  18.524  58.571  1.00  0.00     0.277 HD
HETATM   18  C7  UNL     1      16.907  16.420  57.380  1.00  0.00     0.300 C 
ENDBRANCH  10  11
ENDBRANCH   9  10
ENDBRANCH   7   9
BRANCH   5  19
HETATM   19  N3  UNL     1      21.303  14.937  52.606  1.00  0.00    -0.331 N 
ATOM     20  H32 UNL     1      21.416  15.638  53.338  1.00  0.00     0.177 HD
ATOM     21  H31 UNL     1      22.116  14.506  52.164  1.00  0.00     0.177 HD
ENDBRANCH   5  19
TORSDOF 4
ENDMDL
MODEL 3
REMARK VINA RESULT: -3.998385343      1.639      1.961
REMARK  4 active torsions:
REMARK  status: ('A' for Active; 'I' for Inactive)
REMARK       I    between atoms: C1_4  and  N2_5 
REMARK       I    between atoms: C1_4  and  N4_10 
REMARK    1  A    between atoms: N2_5  and  N3_7 
REMARK    2  A    between atoms: N4_10  and  C2_12 
REMARK    3  A    between atoms: C2_12  and  C3_13 
REMARK    4  A    between atoms: C3_13  and  N5_14 
ROOT
HETATM    1  N1  UNL     1      18.154  15.731  52.246  1.00  0.00    -0.234 N 
ATOM      2  H11 UNL     1      17.457  16.225  52.803  1.00  0.00     0.174 HD
ATOM      3  H12 UNL     1      18.144  15.732  51.227  1.00  0.00     0.174 HD
HETATM    4  C1  UNL     1      19.088  15.070  52.832  1.00  0.00     0.685 C 
HETATM    5  N2  UNL     1      20.042  14.395  52.070  1.00  0.00    -0.139 N 
ATOM      6  H2  UNL     1      19.754  13.639  51.448  1.00  0.00     0.205 HD
HETATM    7  N4  UNL     1      19.103  15.069  54.259  1.00  0.00    -0.224 N 
ATOM      8  H4  UNL     1      18.421  14.500  54.760  1.00  0.00     0.177 HD
ENDROOT
BRANCH   7   9
HETATM    9  C2  UNL     1      20.048  15.846  55.012  1.00  0.00     0.168 C 
BRANCH   9  10
HETATM   10  C3  UNL     1      19.774  16.068  56.446  1.00  0.00     0.292 C 
BRANCH  10  11
HETATM   11  N5  UNL     1      19.012  17.187  56.838  1.00  0.00     0.093 N 
HETATM   12  C4  UNL     1      19.220  17.466  58.266  1.00  0.00     0.300 C 
HETATM   13  C5  UNL     1      18.010  18.055  58.908  1.00  0.00     0.262 C 
HETATM   14  N6  UNL     1      16.854  17.180  58.831  1.00  0.00    -0.072 N 
HETATM   15  C6  UNL     1      16.908  16.388  57.607  1.00  0.00     0.262 C 
ATOM     16  H62 UNL     1      16.760  16.596  59.661  1.00  0.00     0.277 HD
ATOM     17  H61 UNL     1      15.978  17.697  58.914  1.00  0.00     0.277 HD
HETATM   18  C7  UNL     1      17.620  17.247  56.572  1.00  0.00     0.300 C 
ENDBRANCH  10  11
ENDBRANCH   9  10
ENDBRANCH   7   9
BRANCH   5  19
HETATM   19  N3  UNL     1      21.389  14.750  52.157  1.00  0.00    -0.331 N 
ATOM     20  H32 UNL     1      21.702  15.613  51.712  1.00  0.00     0.177 HD
ATOM     21  H31 UNL     1      22.045  14.153  52.660  1.00  0.00     0.177 HD
ENDBRANCH   5  19
TORSDOF 4
ENDMDL
MODEL 4
REMARK VINA RESULT: -3.943354421      1.073      1.815
REMARK  4 active torsions:
REMARK  status: ('A' for Active; 'I' for Inactive)
REMARK       I    between atoms: C1_4  and  N2_5 
REMARK       I    between atoms: C1_4  and  N4_10 
REMARK    1  A    between atoms: N2_5  and  N3_7 
REMARK    2  A    between atoms: N4_10  and  C2_12 
REMARK    3  A    between atoms: C2_12  and  C3_13 
REMARK    4  A    between atoms: C3_13  and  N5_14 
ROOT
HETATM    1  N1  UNL     1      20.255  14.347  52.205  1.00  0.00    -0.234 N 
ATOM      2  H11 UNL     1      20.706  13.639  52.784  1.00  0.00     0.174 HD
ATOM      3  H12 UNL     1      20.439  14.441  51.207  1.00  0.00     0.174 HD
HETATM    4  C1  UNL     1      19.422  15.171  52.738  1.00  0.00     0.685 C 
HETATM    5  N2  UNL     1      18.805  16.141  51.947  1.00  0.00    -0.139 N 
ATOM      6  H2  UNL     1      19.370  16.850  51.480  1.00  0.00     0.205 HD
HETATM    7  N4  UNL     1      19.165  15.039  54.135  1.00  0.00    -0.224 N 
ATOM      8  H4  UNL     1      19.868  15.360  54.800  1.00  0.00     0.177 HD
ENDROOT
BRANCH   7   9
HETATM    9  C2  UNL     1      17.945  14.467  54.635  1.00  0.00     0.168 C 
BRANCH   9  10
HETATM   10  C3  UNL     1      17.087  15.308  55.493  1.00  0.00     0.292 C 
BRANCH  10  11
HETATM   11  N5  UNL     1      17.663  16.376  56.209  1.00  0.00     0.093 N 
HETATM   12  C4  UNL     1      17.386  16.231  57.645  1.00  0.00     0.300 C 
HETATM   13  C5  UNL     1      17.269  17.548  58.334  1.00  0.00     0.262 C 
HETATM   14  N6  UNL     1      16.198  18.367  57.796  1.00  0.00    -0.072 N 
HETATM   15  C6  UNL     1      16.029  18.096  56.373  1.00  0.00     0.262 C 
ATOM     16  H62 UNL     1      15.328  18.248  58.315  1.00  0.00     0.277 HD
ATOM     17  H61 UNL     1      16.346  19.359  57.982  1.00  0.00     0.277 HD
HETATM   18  C7  UNL     1      17.405  17.722  55.841  1.00  0.00     0.300 C 
ENDBRANCH  10  11
ENDBRANCH   9  10
ENDBRANCH   7   9
BRANCH   5  19
HETATM   19  N3  UNL     1      17.418  16.142  51.794  1.00  0.00    -0.331 N 
ATOM     20  H32 UNL     1      16.962  15.310  51.419  1.00  0.00     0.177 HD
ATOM     21  H31 UNL     1      16.874  16.964  52.055  1.00  0.00     0.177 HD
ENDBRANCH   5  19
TORSDOF 4
ENDMDL
MODEL 5
REMARK VINA RESULT: -3.891276342      3.348      5.288
REMARK  4 active torsions:
REMARK  status: ('A' for Active; 'I' for Inactive)
REMARK       I    between atoms: C1_4  and  N2_5 
REMARK       I    between atoms: C1_4  and  N4_10 
REMARK    1  A    between atoms: N2_5  and  N3_7 
REMARK    2  A    between atoms: N4_10  and  C2_12 
REMARK    3  A    between atoms: C2_12  and  C3_13 
REMARK    4  A    between atoms: C3_13  and  N5_14 
ROOT
HETATM    1  N1  UNL     1      16.828  14.275  56.685  1.00  0.00    -0.234 N 
ATOM      2  H11 UNL     1      17.345  13.783  55.957  1.00  0.00     0.174 HD
ATOM      3  H12 UNL     1      16.244  13.791  57.367  1.00  0.00     0.174 HD
HETATM    4  C1  UNL     1      16.894  15.557  56.760  1.00  0.00     0.685 C 
HETATM    5  N2  UNL     1      16.186  16.230  57.756  1.00  0.00    -0.139 N 
ATOM      6  H2  UNL     1      15.168  16.177  57.780  1.00  0.00     0.205 HD
HETATM    7  N4  UNL     1      17.712  16.233  55.807  1.00  0.00    -0.224 N 
ATOM      8  H4  UNL     1      17.375  16.333  54.849  1.00  0.00     0.177 HD
ENDROOT
BRANCH   7   9
HETATM    9  C2  UNL     1      18.995  16.778  56.153  1.00  0.00     0.168 C 
BRANCH   9  10
HETATM   10  C3  UNL     1      20.150  15.858  56.192  1.00  0.00     0.292 C 
BRANCH  10  11
HETATM   11  N5  UNL     1      21.430  16.370  56.480  1.00  0.00     0.093 N 
HETATM   12  C4  UNL     1      22.466  15.485  55.927  1.00  0.00     0.300 C 
HETATM   13  C5  UNL     1      23.710  15.489  56.749  1.00  0.00     0.262 C 
HETATM   14  N6  UNL     1      23.483  15.043  58.111  1.00  0.00    -0.072 N 
HETATM   15  C6  UNL     1      22.139  15.415  58.540  1.00  0.00     0.262 C 
ATOM     16  H62 UNL     1      23.656  14.044  58.221  1.00  0.00     0.277 HD
ATOM     17  H61 UNL     1      24.198  15.389  58.751  1.00  0.00     0.277 HD
HETATM   18  C7  UNL     1      21.797  16.706  57.809  1.00  0.00     0.300 C 
ENDBRANCH  10  11
ENDBRANCH   9  10
ENDBRANCH   7   9
BRANCH   5  19
HETATM   19  N3  UNL     1      16.868  16.976  58.719  1.00  0.00    -0.331 N 
ATOM     20  H32 UNL     1      17.120  17.942  58.508  1.00  0.00     0.177 HD
ATOM     21  H31 UNL     1      17.108  16.556  59.617  1.00  0.00     0.177 HD
ENDBRANCH   5  19
TORSDOF 4
ENDMDL
