MODEL 1
REMARK VINA RESULT: -4.855080858      0.000      0.000
REMARK  5 active torsions:
REMARK  status: ('A' for Active; 'I' for Inactive)
REMARK    1  A    between atoms: C2_2  and  C3_3 
REMARK    2  A    between atoms: C3_3  and  N1_4 
REMARK    3  A    between atoms: N1_4  and  C4_6 
REMARK    4  A    between atoms: C4_6  and  C5_7 
REMARK    5  A    between atoms: C8_18  and  O1_19 
ROOT
HETATM    1  C5  UNL     1      18.520  16.842  57.269  1.00  0.00     0.138 C 
HETATM    2  N2  UNL     1      19.615  17.003  58.145  1.00  0.00    -0.355 N 
ATOM      3  H2  UNL     1      20.472  16.497  57.922  1.00  0.00     0.162 HD
HETATM    4  C6  UNL     1      19.617  17.820  59.324  1.00  0.00     0.190 C 
HETATM    5  N3  UNL     1      20.846  17.982  60.031  1.00  0.00    -0.063 NA
HETATM    6  N4  UNL     1      18.557  18.392  59.751  1.00  0.00    -0.318 N 
ATOM      7  H4  UNL     1      18.575  18.966  60.594  1.00  0.00     0.169 HD
HETATM    8  C7  UNL     1      17.356  18.207  59.021  1.00  0.00     0.108 C 
HETATM    9  N5  UNL     1      16.340  19.000  59.271  1.00  0.00    -0.387 N 
ATOM     10  H51 UNL     1      15.476  18.866  58.746  1.00  0.00     0.157 HD
ATOM     11  H52 UNL     1      16.419  19.742  59.967  1.00  0.00     0.157 HD
HETATM   12  C8  UNL     1      17.241  17.131  58.013  1.00  0.00     0.209 C 
ENDROOT
BRANCH   1  13
HETATM   13  C4  UNL     1      18.658  17.723  56.033  1.00  0.00     0.147 C 
BRANCH  13  14
HETATM   14  N1  UNL     1      18.315  16.959  54.891  1.00  0.00    -0.397 N 
ATOM     15  H1  UNL     1      17.650  17.337  54.215  1.00  0.00     0.158 HD
BRANCH  14  16
HETATM   16  C3  UNL     1      18.869  15.707  54.678  1.00  0.00     0.082 C 
BRANCH  16  17
HETATM   17  C2  UNL     1      18.035  14.520  54.506  1.00  0.00     0.006 C 
HETATM   18  C1  UNL     1      17.680  13.648  55.402  1.00  0.00     0.012 C 
ENDBRANCH  16  17
ENDBRANCH  14  16
ENDBRANCH  13  14
ENDBRANCH   1  13
BRANCH  12  19
HETATM   19  O1  UNL     1      16.869  15.932  58.666  1.00  0.00    -0.386 OA
ATOM     20  H1  UNL     1      16.969  16.085  59.598  1.00  0.00     0.210 HD
ENDBRANCH  12  19
TORSDOF 5
ENDMDL
MODEL 2
REMARK VINA RESULT: -4.725317839      1.320      1.799
REMARK  5 active torsions:
REMARK  status: ('A' for Active; 'I' for Inactive)
REMARK    1  A    between atoms: C2_2  and  C3_3 
REMARK    2  A    between atoms: C3_3  and  N1_4 
REMARK    3  A    between atoms: N1_4  and  C4_6 
REMARK    4  A    between atoms: C4_6  and  C5_7 
REMARK    5  A    between atoms: C8_18  and  O1_19 
ROOT
HETATM    1  C5  UNL     1      18.048  16.870  57.611  1.00  0.00     0.138 C 
HETATM    2  N2  UNL     1      18.164  17.540  58.848  1.00  0.00    -0.355 N 
ATOM      3  H2  UNL     1      18.881  17.210  59.494  1.00  0.00     0.162 HD
HETATM    4  C6  UNL     1      17.355  18.647  59.268  1.00  0.00     0.190 C 
HETATM    5  N3  UNL     1      17.687  19.300  60.493  1.00  0.00    -0.063 NA
HETATM    6  N4  UNL     1      16.355  19.051  58.582  1.00  0.00    -0.318 N 
ATOM      7  H4  UNL     1      15.788  19.837  58.897  1.00  0.00     0.169 HD
HETATM    8  C7  UNL     1      16.058  18.377  57.371  1.00  0.00     0.108 C 
HETATM    9  N5  UNL     1      15.230  18.942  56.523  1.00  0.00    -0.387 N 
ATOM     10  H51 UNL     1      15.016  18.457  55.652  1.00  0.00     0.157 HD
ATOM     11  H52 UNL     1      14.821  19.854  56.727  1.00  0.00     0.157 HD
HETATM   12  C8  UNL     1      16.651  17.054  57.075  1.00  0.00     0.209 C 
ENDROOT
BRANCH   1  13
HETATM   13  C4  UNL     1      19.096  17.348  56.614  1.00  0.00     0.147 C 
BRANCH  13  14
HETATM   14  N1  UNL     1      18.751  16.868  55.328  1.00  0.00    -0.397 N 
ATOM     15  H1  UNL     1      18.228  17.469  54.690  1.00  0.00     0.158 HD
BRANCH  14  16
HETATM   16  C3  UNL     1      19.112  15.593  54.922  1.00  0.00     0.082 C 
BRANCH  16  17
HETATM   17  C2  UNL     1      18.111  14.581  54.594  1.00  0.00     0.006 C 
HETATM   18  C1  UNL     1      17.670  13.613  55.339  1.00  0.00     0.012 C 
ENDBRANCH  16  17
ENDBRANCH  14  16
ENDBRANCH  13  14
ENDBRANCH   1  13
BRANCH  12  19
HETATM   19  O1  UNL     1      15.849  16.052  57.671  1.00  0.00    -0.386 OA
ATOM     20  H1  UNL     1      15.253  16.494  58.264  1.00  0.00     0.210 HD
ENDBRANCH  12  19
TORSDOF 5
ENDMDL
MODEL 3
REMARK VINA RESULT: -4.357534123      2.767      3.574
REMARK  5 active torsions:
REMARK  status: ('A' for Active; 'I' for Inactive)
REMARK    1  A    between atoms: C2_2  and  C3_3 
REMARK    2  A    between atoms: C3_3  and  N1_4 
REMARK    3  A    between atoms: N1_4  and  C4_6 
REMARK    4  A    between atoms: C4_6  and  C5_7 
REMARK    5  A    between atoms: C8_18  and  O1_19 
ROOT
HETATM    1  C5  UNL     1      16.037  17.962  56.702  1.00  0.00     0.138 C 
HETATM    2  N2  UNL     1      16.155  18.561  57.974  1.00  0.00    -0.355 N 
ATOM      3  H2  UNL     1      16.295  17.942  58.773  1.00  0.00     0.162 HD
HETATM    4  C6  UNL     1      16.092  19.970  58.234  1.00  0.00     0.190 C 
HETATM    5  N3  UNL     1      16.362  20.426  59.559  1.00  0.00    -0.063 NA
HETATM    6  N4  UNL     1      15.797  20.813  57.319  1.00  0.00    -0.318 N 
ATOM      7  H4  UNL     1      15.752  21.811  57.521  1.00  0.00     0.169 HD
HETATM    8  C7  UNL     1      15.534  20.321  56.015  1.00  0.00     0.108 C 
HETATM    9  N5  UNL     1      15.513  21.171  55.016  1.00  0.00    -0.387 N 
ATOM     10  H51 UNL     1      15.323  20.817  54.078  1.00  0.00     0.157 HD
ATOM     11  H52 UNL     1      15.694  22.163  55.173  1.00  0.00     0.157 HD
HETATM   12  C8  UNL     1      15.271  18.883  55.787  1.00  0.00     0.209 C 
ENDROOT
BRANCH   1  13
HETATM   13  C4  UNL     1      17.401  17.607  56.121  1.00  0.00     0.147 C 
BRANCH  13  14
HETATM   14  N1  UNL     1      17.762  16.313  56.568  1.00  0.00    -0.397 N 
ATOM     15  H1  UNL     1      18.737  16.111  56.789  1.00  0.00     0.158 HD
BRANCH  14  16
HETATM   16  C3  UNL     1      16.810  15.316  56.710  1.00  0.00     0.082 C 
BRANCH  16  17
HETATM   17  C2  UNL     1      16.880  14.075  55.943  1.00  0.00     0.006 C 
HETATM   18  C1  UNL     1      17.830  13.666  55.158  1.00  0.00     0.012 C 
ENDBRANCH  16  17
ENDBRANCH  14  16
ENDBRANCH  13  14
ENDBRANCH   1  13
BRANCH  12  19
HETATM   19  O1  UNL     1      13.896  18.631  56.011  1.00  0.00    -0.386 OA
ATOM     20  H1  UNL     1      13.624  17.996  55.359  1.00  0.00     0.210 HD
ENDBRANCH  12  19
TORSDOF 5
ENDMDL
MODEL 4
REMARK VINA RESULT: -4.329467868      2.138      3.286
REMARK  5 active torsions:
REMARK  status: ('A' for Active; 'I' for Inactive)
REMARK    1  A    between atoms: C2_2  and  C3_3 
REMARK    2  A    between atoms: C3_3  and  N1_4 
REMARK    3  A    between atoms: N1_4  and  C4_6 
REMARK    4  A    between atoms: C4_6  and  C5_7 
REMARK    5  A    between atoms: C8_18  and  O1_19 
ROOT
HETATM    1  C5  UNL     1      17.760  17.032  57.002  1.00  0.00     0.138 C 
HETATM    2  N2  UNL     1      16.727  17.588  56.218  1.00  0.00    -0.355 N 
ATOM      3  H2  UNL     1      16.682  17.312  55.237  1.00  0.00     0.162 HD
HETATM    4  C6  UNL     1      15.734  18.509  56.691  1.00  0.00     0.190 C 
HETATM    5  N3  UNL     1      14.676  18.876  55.806  1.00  0.00    -0.063 NA
HETATM    6  N4  UNL     1      15.781  19.007  57.867  1.00  0.00    -0.318 N 
ATOM      7  H4  UNL     1      15.070  19.664  58.186  1.00  0.00     0.169 HD
HETATM    8  C7  UNL     1      16.847  18.618  58.717  1.00  0.00     0.108 C 
HETATM    9  N5  UNL     1      16.759  18.886  59.999  1.00  0.00    -0.387 N 
ATOM     10  H51 UNL     1      17.527  18.607  60.610  1.00  0.00     0.157 HD
ATOM     11  H52 UNL     1      15.934  19.352  60.377  1.00  0.00     0.157 HD
HETATM   12  C8  UNL     1      18.044  17.943  58.169  1.00  0.00     0.209 C 
ENDROOT
BRANCH   1  13
HETATM   13  C4  UNL     1      17.414  15.622  57.467  1.00  0.00     0.147 C 
BRANCH  13  14
HETATM   14  N1  UNL     1      16.485  15.060  56.559  1.00  0.00    -0.397 N 
ATOM     15  H1  UNL     1      15.552  15.466  56.479  1.00  0.00     0.158 HD
BRANCH  14  16
HETATM   16  C3  UNL     1      16.822  13.966  55.779  1.00  0.00     0.082 C 
BRANCH  16  17
HETATM   17  C2  UNL     1      17.993  13.980  54.905  1.00  0.00     0.006 C 
HETATM   18  C1  UNL     1      18.321  14.865  54.012  1.00  0.00     0.012 C 
ENDBRANCH  16  17
ENDBRANCH  14  16
ENDBRANCH  13  14
ENDBRANCH   1  13
BRANCH  12  19
HETATM   19  O1  UNL     1      18.951  18.927  57.707  1.00  0.00    -0.386 OA
ATOM     20  H1  UNL     1      19.774  18.774  58.155  1.00  0.00     0.210 HD
ENDBRANCH  12  19
TORSDOF 5
ENDMDL
MODEL 5
REMARK VINA RESULT: -4.256260266      2.088      2.787
REMARK  5 active torsions:
REMARK  status: ('A' for Active; 'I' for Inactive)
REMARK    1  A    between atoms: C2_2  and  C3_3 
REMARK    2  A    between atoms: C3_3  and  N1_4 
REMARK    3  A    between atoms: N1_4  and  C4_6 
REMARK    4  A    between atoms: C4_6  and  C5_7 
REMARK    5  A    between atoms: C8_18  and  O1_19 
ROOT
HETATM    1  C5  UNL     1      17.729  14.901  56.425  1.00  0.00     0.138 C 
HETATM    2  N2  UNL     1      18.979  15.546  56.538  1.00  0.00    -0.355 N 
ATOM      3  H2  UNL     1      19.810  14.956  56.568  1.00  0.00     0.162 HD
HETATM    4  C6  UNL     1      19.175  16.965  56.613  1.00  0.00     0.190 C 
HETATM    5  N3  UNL     1      20.511  17.467  56.590  1.00  0.00    -0.063 NA
HETATM    6  N4  UNL     1      18.192  17.778  56.706  1.00  0.00    -0.318 N 
ATOM      7  H4  UNL     1      18.348  18.784  56.764  1.00  0.00     0.169 HD
HETATM    8  C7  UNL     1      16.879  17.242  56.727  1.00  0.00     0.108 C 
HETATM    9  N5  UNL     1      15.866  18.053  56.536  1.00  0.00    -0.387 N 
ATOM     10  H51 UNL     1      14.922  17.668  56.551  1.00  0.00     0.157 HD
ATOM     11  H52 UNL     1      16.021  19.047  56.362  1.00  0.00     0.157 HD
HETATM   12  C8  UNL     1      16.654  15.801  56.979  1.00  0.00     0.209 C 
ENDROOT
BRANCH   1  13
HETATM   13  C4  UNL     1      17.434  14.500  54.985  1.00  0.00     0.147 C 
BRANCH  13  14
HETATM   14  N1  UNL     1      18.657  14.413  54.278  1.00  0.00    -0.397 N 
ATOM     15  H1  UNL     1      19.384  13.778  54.607  1.00  0.00     0.158 HD
BRANCH  14  16
HETATM   16  C3  UNL     1      18.881  15.178  53.144  1.00  0.00     0.082 C 
BRANCH  16  17
HETATM   17  C2  UNL     1      18.010  16.296  52.790  1.00  0.00     0.006 C 
HETATM   18  C1  UNL     1      18.177  17.560  53.041  1.00  0.00     0.012 C 
ENDBRANCH  16  17
ENDBRANCH  14  16
ENDBRANCH  13  14
ENDBRANCH   1  13
BRANCH  12  19
HETATM   19  O1  UNL     1      16.618  15.583  58.377  1.00  0.00    -0.386 OA
ATOM     20  H1  UNL     1      17.490  15.305  58.633  1.00  0.00     0.210 HD
ENDBRANCH  12  19
TORSDOF 5
ENDMDL
