MODEL 1
REMARK VINA RESULT: -6.280517344      0.000      0.000
REMARK  7 active torsions:
REMARK  status: ('A' for Active; 'I' for Inactive)
REMARK       I    between atoms: C1_4  and  N2_5 
REMARK       I    between atoms: C1_4  and  N12_35 
REMARK       I    between atoms: C2_7  and  N4_9 
REMARK    1  A    between atoms: N5_11  and  N6_13 
REMARK    2  A    between atoms: C4_15  and  C5_16 
REMARK    3  A    between atoms: C5_16  and  C6_17 
REMARK    4  A    between atoms: C6_17  and  N7_18 
REMARK    5  A    between atoms: C7_24  and  N9_25 
REMARK    6  A    between atoms: C9_32  and  O2_33 
REMARK    7  A    between atoms: N12_35  and  N13_37 
ROOT
HETATM    1  N6  UNL     1      -0.346  13.442   7.258  1.00  0.00    -0.276 N 
HETATM    2  C3  UNL     1       0.235  13.488   8.590  1.00  0.00     0.172 C 
HETATM    3  C4  UNL     1       0.881  14.876   8.705  1.00  0.00     0.104 C 
HETATM    4  N8  UNL     1      -0.161  15.837   8.406  1.00  0.00    -0.368 N 
ATOM      5  H8  UNL     1      -0.068  16.769   8.808  1.00  0.00     0.161 HD
HETATM    6  C7  UNL     1      -1.186  15.611   7.680  1.00  0.00     0.157 C 
HETATM    7  C9  UNL     1      -1.480  14.312   7.014  1.00  0.00     0.307 C 
ENDROOT
BRANCH   1   8
HETATM    8  N5  UNL     1       0.123  12.629   6.249  1.00  0.00    -0.240 N 
HETATM    9  N4  UNL     1       1.322  12.286   6.225  1.00  0.00    -0.259 N 
HETATM   10  C2  UNL     1       1.939  11.463   5.263  1.00  0.00     0.222 C 
ATOM     11  H4  UNL     1       1.915  12.637   6.977  1.00  0.00     0.191 HD
HETATM   12  N2  UNL     1       1.916  11.794   4.033  1.00  0.00    -0.161 N 
HETATM   13  N3  UNL     1       2.586  10.270   5.650  1.00  0.00    -0.061 NA
HETATM   14  C1  UNL     1       1.272  12.983   3.635  1.00  0.00     0.697 C 
ATOM     15  H2  UNL     1       2.362  11.198   3.336  1.00  0.00     0.187 HD
HETATM   16  N1  UNL     1       1.673  14.169   3.977  1.00  0.00    -0.233 N 
HETATM   17  N12 UNL     1       0.096  12.958   2.800  1.00  0.00    -0.072 N 
ATOM     18  H12 UNL     1       2.504  14.187   4.567  1.00  0.00     0.174 HD
ATOM     19  H11 UNL     1       1.207  15.030   3.689  1.00  0.00     0.174 HD
ATOM     20  H12 UNL     1      -0.842  12.974   3.200  1.00  0.00     0.212 HD
ATOM     21  H5  UNL     1      -0.512  12.306   5.520  1.00  0.00     0.208 HD
BRANCH  17  22
HETATM   22  N13 UNL     1       0.297  12.911   1.431  1.00  0.00    -0.024 N 
HETATM   23  O3  UNL     1       0.518  13.951   0.803  1.00  0.00    -0.516 OA
HETATM   24  O4  UNL     1       0.252  11.717   0.778  1.00  0.00    -0.516 OA
ENDBRANCH  17  22
ENDBRANCH   1   8
BRANCH   7  25
HETATM   25  O2  UNL     1      -2.645  13.758   7.549  1.00  0.00    -0.368 OA
ATOM     26  H2  UNL     1      -3.275  14.440   7.751  1.00  0.00     0.212 HD
ENDBRANCH   7  25
BRANCH   3  27
HETATM   27  C5  UNL     1       1.374  15.015  10.118  1.00  0.00     0.054 C 
BRANCH  27  28
HETATM   28  C6  UNL     1       0.226  15.344  11.040  1.00  0.00     0.231 C 
BRANCH  28  29
HETATM   29  N7  UNL     1       0.703  15.392  12.409  1.00  0.00    -0.079 N 
ATOM     30  H73 UNL     1       1.473  16.051  12.526  1.00  0.00     0.274 HD
ATOM     31  H72 UNL     1       0.032  15.839  13.035  1.00  0.00     0.274 HD
ATOM     32  H71 UNL     1       0.949  14.452  12.717  1.00  0.00     0.274 HD
ENDBRANCH  28  29
ENDBRANCH  27  28
ENDBRANCH   3  27
BRANCH   6  33
HETATM   33  N9  UNL     1      -2.160  16.650   7.454  1.00  0.00    -0.173 N 
HETATM   34  N10 UNL     1      -3.366  16.745   6.919  1.00  0.00    -0.226 N 
HETATM   35  N11 UNL     1      -3.435  18.034   7.162  1.00  0.00    -0.234 N 
ATOM     36  H10 UNL     1      -4.000  16.074   6.484  1.00  0.00     0.209 HD
HETATM   37  C8  UNL     1      -2.213  17.968   7.710  1.00  0.00     0.364 A 
ATOM     38  H11 UNL     1      -4.124  18.770   7.003  1.00  0.00     0.193 HD
HETATM   39  O1  UNL     1      -1.373  18.743   8.261  1.00  0.00    -0.243 OA
ENDBRANCH   6  33
TORSDOF 7
ENDMDL
MODEL 2
REMARK VINA RESULT: -6.212166664      2.610      7.608
REMARK  7 active torsions:
REMARK  status: ('A' for Active; 'I' for Inactive)
REMARK       I    between atoms: C1_4  and  N2_5 
REMARK       I    between atoms: C1_4  and  N12_35 
REMARK       I    between atoms: C2_7  and  N4_9 
REMARK    1  A    between atoms: N5_11  and  N6_13 
REMARK    2  A    between atoms: C4_15  and  C5_16 
REMARK    3  A    between atoms: C5_16  and  C6_17 
REMARK    4  A    between atoms: C6_17  and  N7_18 
REMARK    5  A    between atoms: C7_24  and  N9_25 
REMARK    6  A    between atoms: C9_32  and  O2_33 
REMARK    7  A    between atoms: N12_35  and  N13_37 
ROOT
HETATM    1  N6  UNL     1       0.420  13.392   5.640  1.00  0.00    -0.276 N 
HETATM    2  C3  UNL     1      -0.069  13.199   4.284  1.00  0.00     0.172 C 
HETATM    3  C4  UNL     1       1.184  12.952   3.432  1.00  0.00     0.104 C 
HETATM    4  N8  UNL     1       1.882  11.842   4.045  1.00  0.00    -0.368 N 
ATOM      5  H8  UNL     1       2.480  11.274   3.444  1.00  0.00     0.161 HD
HETATM    6  C7  UNL     1       1.812  11.516   5.277  1.00  0.00     0.157 C 
HETATM    7  C9  UNL     1       0.994  12.232   6.294  1.00  0.00     0.307 C 
ENDROOT
BRANCH   1   8
HETATM    8  N5  UNL     1       0.361  14.596   6.308  1.00  0.00    -0.240 N 
HETATM    9  N4  UNL     1       1.209  14.873   7.179  1.00  0.00    -0.259 N 
HETATM   10  C2  UNL     1       1.274  16.059   7.938  1.00  0.00     0.222 C 
ATOM     11  H4  UNL     1       1.928  14.173   7.360  1.00  0.00     0.191 HD
HETATM   12  N2  UNL     1       0.285  16.405   8.662  1.00  0.00    -0.161 N 
HETATM   13  N3  UNL     1       2.430  16.869   7.904  1.00  0.00    -0.061 NA
HETATM   14  C1  UNL     1      -0.874  15.604   8.703  1.00  0.00     0.697 C 
ATOM     15  H2  UNL     1       0.331  17.264   9.212  1.00  0.00     0.187 HD
HETATM   16  N1  UNL     1      -0.902  14.401   9.190  1.00  0.00    -0.233 N 
HETATM   17  N12 UNL     1      -2.137  16.082   8.195  1.00  0.00    -0.072 N 
ATOM     18  H12 UNL     1      -0.010  14.063   9.550  1.00  0.00     0.174 HD
ATOM     19  H11 UNL     1      -1.740  13.821   9.220  1.00  0.00     0.174 HD
ATOM     20  H12 UNL     1      -2.435  15.886   7.240  1.00  0.00     0.212 HD
ATOM     21  H5  UNL     1      -0.379  15.262   6.090  1.00  0.00     0.208 HD
BRANCH  17  22
HETATM   22  N13 UNL     1      -2.926  16.820   9.062  1.00  0.00    -0.024 N 
HETATM   23  O3  UNL     1      -2.471  17.185  10.149  1.00  0.00    -0.516 OA
HETATM   24  O4  UNL     1      -4.202  17.141   8.713  1.00  0.00    -0.516 OA
ENDBRANCH  17  22
ENDBRANCH   1   8
BRANCH   7  25
HETATM   25  O2  UNL     1      -0.014  11.391   6.769  1.00  0.00    -0.368 OA
ATOM     26  H2  UNL     1       0.339  10.770   7.396  1.00  0.00     0.212 HD
ENDBRANCH   7  25
BRANCH   3  27
HETATM   27  C5  UNL     1       0.711  12.612   2.046  1.00  0.00     0.054 C 
BRANCH  27  28
HETATM   28  C6  UNL     1       0.131  13.834   1.379  1.00  0.00     0.231 C 
BRANCH  28  29
HETATM   29  N7  UNL     1       1.067  14.936   1.488  1.00  0.00    -0.079 N 
ATOM     30  H73 UNL     1       0.726  15.673   2.106  1.00  0.00     0.274 HD
ATOM     31  H72 UNL     1       1.903  14.681   2.014  1.00  0.00     0.274 HD
ATOM     32  H71 UNL     1       1.290  15.287   0.557  1.00  0.00     0.274 HD
ENDBRANCH  28  29
ENDBRANCH  27  28
ENDBRANCH   3  27
BRANCH   6  33
HETATM   33  N9  UNL     1       2.556  10.385   5.774  1.00  0.00    -0.173 N 
HETATM   34  N10 UNL     1       2.484   9.557   6.804  1.00  0.00    -0.226 N 
HETATM   35  N11 UNL     1       3.549   8.893   6.416  1.00  0.00    -0.234 N 
ATOM     36  H10 UNL     1       1.846   9.469   7.595  1.00  0.00     0.209 HD
HETATM   37  C8  UNL     1       3.646   9.717   5.363  1.00  0.00     0.364 A 
ATOM     38  H11 UNL     1       4.076   8.092   6.767  1.00  0.00     0.193 HD
HETATM   39  O1  UNL     1       4.397   9.889   4.355  1.00  0.00    -0.243 OA
ENDBRANCH   6  33
TORSDOF 7
ENDMDL
MODEL 3
REMARK VINA RESULT: -6.205956057      2.809      7.918
REMARK  7 active torsions:
REMARK  status: ('A' for Active; 'I' for Inactive)
REMARK       I    between atoms: C1_4  and  N2_5 
REMARK       I    between atoms: C1_4  and  N12_35 
REMARK       I    between atoms: C2_7  and  N4_9 
REMARK    1  A    between atoms: N5_11  and  N6_13 
REMARK    2  A    between atoms: C4_15  and  C5_16 
REMARK    3  A    between atoms: C5_16  and  C6_17 
REMARK    4  A    between atoms: C6_17  and  N7_18 
REMARK    5  A    between atoms: C7_24  and  N9_25 
REMARK    6  A    between atoms: C9_32  and  O2_33 
REMARK    7  A    between atoms: N12_35  and  N13_37 
ROOT
HETATM    1  N6  UNL     1       1.509  11.618   5.215  1.00  0.00    -0.276 N 
HETATM    2  C3  UNL     1       0.491  11.772   4.189  1.00  0.00     0.172 C 
HETATM    3  C4  UNL     1       1.209  12.420   2.997  1.00  0.00     0.104 C 
HETATM    4  N8  UNL     1       2.336  11.565   2.685  1.00  0.00    -0.368 N 
ATOM      5  H8  UNL     1       2.683  11.578   1.726  1.00  0.00     0.161 HD
HETATM    6  C7  UNL     1       2.930  10.797   3.514  1.00  0.00     0.157 C 
HETATM    7  C9  UNL     1       2.559  10.654   4.948  1.00  0.00     0.307 C 
ENDROOT
BRANCH   1   8
HETATM    8  N5  UNL     1       1.515  12.329   6.395  1.00  0.00    -0.240 N 
HETATM    9  N4  UNL     1       0.685  12.070   7.289  1.00  0.00    -0.259 N 
HETATM   10  C2  UNL     1       0.574  12.709   8.540  1.00  0.00     0.222 C 
ATOM     11  H4  UNL     1       0.021  11.320   7.096  1.00  0.00     0.191 HD
HETATM   12  N2  UNL     1       0.377  13.966   8.597  1.00  0.00    -0.161 N 
HETATM   13  N3  UNL     1       0.677  11.966   9.736  1.00  0.00    -0.061 NA
HETATM   14  C1  UNL     1       0.272  14.718   7.409  1.00  0.00     0.697 C 
ATOM     15  H2  UNL     1       0.296  14.429   9.502  1.00  0.00     0.187 HD
HETATM   16  N1  UNL     1      -0.690  14.577   6.549  1.00  0.00    -0.233 N 
HETATM   17  N12 UNL     1       1.252  15.720   7.064  1.00  0.00    -0.072 N 
ATOM     18  H12 UNL     1      -1.383  13.870   6.793  1.00  0.00     0.174 HD
ATOM     19  H11 UNL     1      -0.766  15.121   5.689  1.00  0.00     0.174 HD
ATOM     20  H12 UNL     1       2.048  15.501   6.465  1.00  0.00     0.212 HD
ATOM     21  H5  UNL     1       2.201  13.070   6.538  1.00  0.00     0.208 HD
BRANCH  17  22
HETATM   22  N13 UNL     1       1.063  16.989   7.582  1.00  0.00    -0.024 N 
HETATM   23  O3  UNL     1       0.075  17.230   8.282  1.00  0.00    -0.516 OA
HETATM   24  O4  UNL     1       1.968  17.972   7.320  1.00  0.00    -0.516 OA
ENDBRANCH  17  22
ENDBRANCH   1   8
BRANCH   7  25
HETATM   25  O2  UNL     1       2.105   9.357   5.194  1.00  0.00    -0.368 OA
ATOM     26  H2  UNL     1       2.636   8.940   5.862  1.00  0.00     0.212 HD
ENDBRANCH   7  25
BRANCH   3  27
HETATM   27  C5  UNL     1       0.222  12.471   1.864  1.00  0.00     0.054 C 
BRANCH  27  28
HETATM   28  C6  UNL     1       0.318  13.794   1.147  1.00  0.00     0.231 C 
BRANCH  28  29
HETATM   29  N7  UNL     1       1.058  14.736   1.966  1.00  0.00    -0.079 N 
ATOM     30  H73 UNL     1       0.444  15.301   2.553  1.00  0.00     0.274 HD
ATOM     31  H72 UNL     1       1.583  14.272   2.708  1.00  0.00     0.274 HD
ATOM     32  H71 UNL     1       1.657  15.308   1.371  1.00  0.00     0.274 HD
ENDBRANCH  28  29
ENDBRANCH  27  28
ENDBRANCH   3  27
BRANCH   6  33
HETATM   33  N9  UNL     1       4.044   9.989   3.085  1.00  0.00    -0.173 N 
HETATM   34  N10 UNL     1       5.132   9.473   3.634  1.00  0.00    -0.226 N 
HETATM   35  N11 UNL     1       5.509   8.920   2.503  1.00  0.00    -0.234 N 
ATOM     36  H10 UNL     1       5.527   9.497   4.574  1.00  0.00     0.209 HD
HETATM   37  C8  UNL     1       4.415   9.430   1.921  1.00  0.00     0.364 A 
ATOM     38  H11 UNL     1       6.298   8.348   2.199  1.00  0.00     0.193 HD
HETATM   39  O1  UNL     1       3.864   9.447   0.778  1.00  0.00    -0.243 OA
ENDBRANCH   6  33
TORSDOF 7
ENDMDL
MODEL 4
REMARK VINA RESULT: -6.115037126      1.755      3.761
REMARK  7 active torsions:
REMARK  status: ('A' for Active; 'I' for Inactive)
REMARK       I    between atoms: C1_4  and  N2_5 
REMARK       I    between atoms: C1_4  and  N12_35 
REMARK       I    between atoms: C2_7  and  N4_9 
REMARK    1  A    between atoms: N5_11  and  N6_13 
REMARK    2  A    between atoms: C4_15  and  C5_16 
REMARK    3  A    between atoms: C5_16  and  C6_17 
REMARK    4  A    between atoms: C6_17  and  N7_18 
REMARK    5  A    between atoms: C7_24  and  N9_25 
REMARK    6  A    between atoms: C9_32  and  O2_33 
REMARK    7  A    between atoms: N12_35  and  N13_37 
ROOT
HETATM    1  N6  UNL     1      -0.143  14.400   7.258  1.00  0.00    -0.276 N 
HETATM    2  C3  UNL     1      -1.269  15.321   7.249  1.00  0.00     0.172 C 
HETATM    3  C4  UNL     1      -2.089  14.974   8.500  1.00  0.00     0.104 C 
HETATM    4  N8  UNL     1      -1.176  15.057   9.622  1.00  0.00    -0.368 N 
ATOM      5  H8  UNL     1      -1.576  15.264  10.537  1.00  0.00     0.161 HD
HETATM    6  C7  UNL     1       0.088  14.893   9.558  1.00  0.00     0.157 C 
HETATM    7  C9  UNL     1       0.838  14.584   8.310  1.00  0.00     0.307 C 
ENDROOT
BRANCH   1   8
HETATM    8  N5  UNL     1       0.023  13.391   6.334  1.00  0.00    -0.240 N 
HETATM    9  N4  UNL     1       1.111  12.787   6.253  1.00  0.00    -0.259 N 
HETATM   10  C2  UNL     1       1.424  11.741   5.364  1.00  0.00     0.222 C 
ATOM     11  H4  UNL     1       1.848  13.080   6.895  1.00  0.00     0.191 HD
HETATM   12  N2  UNL     1       1.330  11.924   4.107  1.00  0.00    -0.161 N 
HETATM   13  N3  UNL     1       1.844  10.485   5.854  1.00  0.00    -0.061 NA
HETATM   14  C1  UNL     1       0.911  13.174   3.606  1.00  0.00     0.697 C 
ATOM     15  H2  UNL     1       1.556  11.167   3.462  1.00  0.00     0.187 HD
HETATM   16  N1  UNL     1       1.591  14.271   3.745  1.00  0.00    -0.233 N 
HETATM   17  N12 UNL     1      -0.332  13.318   2.888  1.00  0.00    -0.072 N 
ATOM     18  H12 UNL     1       2.470  14.169   4.252  1.00  0.00     0.174 HD
ATOM     19  H11 UNL     1       1.288  15.175   3.383  1.00  0.00     0.174 HD
ATOM     20  H12 UNL     1      -1.193  13.591   3.363  1.00  0.00     0.212 HD
ATOM     21  H5  UNL     1      -0.746  13.138   5.715  1.00  0.00     0.208 HD
BRANCH  17  22
HETATM   22  N13 UNL     1      -0.305  13.069   1.527  1.00  0.00    -0.024 N 
HETATM   23  O3  UNL     1       0.398  13.763   0.787  1.00  0.00    -0.516 OA
HETATM   24  O4  UNL     1      -1.053  12.058   1.005  1.00  0.00    -0.516 OA
ENDBRANCH  17  22
ENDBRANCH   1   8
BRANCH   7  25
HETATM   25  O2  UNL     1       1.695  15.641   7.998  1.00  0.00    -0.368 OA
ATOM     26  H2  UNL     1       2.285  15.815   8.723  1.00  0.00     0.212 HD
ENDBRANCH   7  25
BRANCH   3  27
HETATM   27  C5  UNL     1      -3.187  15.995   8.602  1.00  0.00     0.054 C 
BRANCH  27  28
HETATM   28  C6  UNL     1      -3.563  16.493   7.229  1.00  0.00     0.231 C 
BRANCH  28  29
HETATM   29  N7  UNL     1      -3.587  17.944   7.230  1.00  0.00    -0.079 N 
ATOM     30  H73 UNL     1      -4.468  18.315   6.873  1.00  0.00     0.274 HD
ATOM     31  H72 UNL     1      -3.638  18.327   8.174  1.00  0.00     0.274 HD
ATOM     32  H71 UNL     1      -2.782  18.298   6.714  1.00  0.00     0.274 HD
ENDBRANCH  28  29
ENDBRANCH  27  28
ENDBRANCH   3  27
BRANCH   6  33
HETATM   33  N9  UNL     1       0.896  15.002  10.748  1.00  0.00    -0.173 N 
HETATM   34  N10 UNL     1       2.161  14.800  11.079  1.00  0.00    -0.226 N 
HETATM   35  N11 UNL     1       1.949  15.151  12.328  1.00  0.00    -0.234 N 
ATOM     36  H10 UNL     1       2.985  14.490  10.564  1.00  0.00     0.209 HD
HETATM   37  C8  UNL     1       0.661  15.364  12.020  1.00  0.00     0.364 A 
ATOM     38  H11 UNL     1       2.520  15.228  13.170  1.00  0.00     0.193 HD
HETATM   39  O1  UNL     1      -0.405  15.741  12.595  1.00  0.00    -0.243 OA
ENDBRANCH   6  33
TORSDOF 7
ENDMDL
MODEL 5
REMARK VINA RESULT: -6.103407498      2.509      4.745
REMARK  7 active torsions:
REMARK  status: ('A' for Active; 'I' for Inactive)
REMARK       I    between atoms: C1_4  and  N2_5 
REMARK       I    between atoms: C1_4  and  N12_35 
REMARK       I    between atoms: C2_7  and  N4_9 
REMARK    1  A    between atoms: N5_11  and  N6_13 
REMARK    2  A    between atoms: C4_15  and  C5_16 
REMARK    3  A    between atoms: C5_16  and  C6_17 
REMARK    4  A    between atoms: C6_17  and  N7_18 
REMARK    5  A    between atoms: C7_24  and  N9_25 
REMARK    6  A    between atoms: C9_32  and  O2_33 
REMARK    7  A    between atoms: N12_35  and  N13_37 
ROOT
HETATM    1  N6  UNL     1       0.348  15.602   7.422  1.00  0.00    -0.276 N 
HETATM    2  C3  UNL     1      -0.495  16.764   7.653  1.00  0.00     0.172 C 
HETATM    3  C4  UNL     1      -1.395  16.385   8.838  1.00  0.00     0.104 C 
HETATM    4  N8  UNL     1      -0.508  15.989   9.912  1.00  0.00    -0.368 N 
ATOM      5  H8  UNL     1      -0.852  16.094  10.867  1.00  0.00     0.161 HD
HETATM    6  C7  UNL     1       0.670  15.520   9.762  1.00  0.00     0.157 C 
HETATM    7  C9  UNL     1       1.329  15.298   8.446  1.00  0.00     0.307 C 
ENDROOT
BRANCH   1   8
HETATM    8  N5  UNL     1       0.256  14.803   6.302  1.00  0.00    -0.240 N 
HETATM    9  N4  UNL     1      -0.817  14.232   6.025  1.00  0.00    -0.259 N 
HETATM   10  C2  UNL     1      -1.058  13.392   4.920  1.00  0.00     0.222 C 
ATOM     11  H4  UNL     1      -1.598  14.388   6.662  1.00  0.00     0.191 HD
HETATM   12  N2  UNL     1      -0.352  12.345   4.751  1.00  0.00    -0.161 N 
HETATM   13  N3  UNL     1      -2.078  13.700   3.995  1.00  0.00    -0.061 NA
HETATM   14  C1  UNL     1       0.671  12.028   5.669  1.00  0.00     0.697 C 
ATOM     15  H2  UNL     1      -0.526  11.736   3.951  1.00  0.00     0.187 HD
HETATM   16  N1  UNL     1       0.454  11.717   6.910  1.00  0.00    -0.233 N 
HETATM   17  N12 UNL     1       2.059  12.028   5.277  1.00  0.00    -0.072 N 
ATOM     18  H12 UNL     1      -0.527  11.716   7.187  1.00  0.00     0.174 HD
ATOM     19  H11 UNL     1       1.194  11.488   7.574  1.00  0.00     0.174 HD
ATOM     20  H12 UNL     1       2.649  12.849   5.408  1.00  0.00     0.212 HD
ATOM     21  H5  UNL     1       1.068  14.680   5.699  1.00  0.00     0.208 HD
BRANCH  17  22
HETATM   22  N13 UNL     1       2.554  10.864   4.714  1.00  0.00    -0.024 N 
HETATM   23  O3  UNL     1       2.204   9.767   5.158  1.00  0.00    -0.516 OA
HETATM   24  O4  UNL     1       3.426  10.930   3.671  1.00  0.00    -0.516 OA
ENDBRANCH  17  22
ENDBRANCH   1   8
BRANCH   7  25
HETATM   25  O2  UNL     1       2.438  16.137   8.324  1.00  0.00    -0.368 OA
ATOM     26  H2  UNL     1       3.230  15.681   8.586  1.00  0.00     0.212 HD
ENDBRANCH   7  25
BRANCH   3  27
HETATM   27  C5  UNL     1      -2.187  17.611   9.196  1.00  0.00     0.054 C 
BRANCH  27  28
HETATM   28  C6  UNL     1      -3.642  17.410   8.851  1.00  0.00     0.231 C 
BRANCH  28  29
HETATM   29  N7  UNL     1      -3.855  17.719   7.450  1.00  0.00    -0.079 N 
ATOM     30  H73 UNL     1      -3.092  18.273   7.058  1.00  0.00     0.274 HD
ATOM     31  H72 UNL     1      -3.759  16.896   6.855  1.00  0.00     0.274 HD
ATOM     32  H71 UNL     1      -4.760  18.174   7.336  1.00  0.00     0.274 HD
ENDBRANCH  28  29
ENDBRANCH  27  28
ENDBRANCH   3  27
BRANCH   6  33
HETATM   33  N9  UNL     1       1.461  15.161  10.912  1.00  0.00    -0.173 N 
HETATM   34  N10 UNL     1       2.618  14.561  11.141  1.00  0.00    -0.226 N 
HETATM   35  N11 UNL     1       2.495  14.693  12.442  1.00  0.00    -0.234 N 
ATOM     36  H10 UNL     1       3.332  14.151  10.538  1.00  0.00     0.209 HD
HETATM   37  C8  UNL     1       1.319  15.305  12.241  1.00  0.00     0.364 A 
ATOM     38  H11 UNL     1       3.055  14.440  13.257  1.00  0.00     0.193 HD
HETATM   39  O1  UNL     1       0.389  15.831  12.925  1.00  0.00    -0.243 OA
ENDBRANCH   6  33
TORSDOF 7
ENDMDL
