MODEL 1
REMARK VINA RESULT: -6.893443003      0.000      0.000
REMARK  7 active torsions:
REMARK  status: ('A' for Active; 'I' for Inactive)
REMARK    1  A    between atoms: C4_9  and  N3_10 
REMARK    2  A    between atoms: N7_20  and  C6_21 
REMARK    3  A    between atoms: C6_21  and  C7_22 
REMARK    4  A    between atoms: C7_22  and  N8_23 
REMARK    5  A    between atoms: C9_27  and  C10_28 
REMARK    6  A    between atoms: C10_28  and  O1_29 
REMARK    7  A    between atoms: C11_31  and  O2_32 
ROOT
HETATM    1  N1  UNL     1       1.326  14.268   2.986  1.00  0.00    -0.234 N 
ATOM      2  H11 UNL     1       1.423  14.498   1.997  1.00  0.00     0.174 HD
ATOM      3  H12 UNL     1       0.985  14.991   3.619  1.00  0.00     0.174 HD
HETATM    4  C1  UNL     1       1.625  13.097   3.429  1.00  0.00     0.679 A 
HETATM    5  N2  UNL     1       1.497  12.792   4.740  1.00  0.00    -0.173 N 
ATOM      6  H2  UNL     1       1.154  13.526   5.359  1.00  0.00     0.186 HD
HETATM    7  C2  UNL     1       1.779  11.620   5.288  1.00  0.00     0.168 A 
HETATM    8  C3  UNL     1       2.244  10.618   4.452  1.00  0.00     0.124 A 
HETATM    9  C4  UNL     1       2.375  10.934   3.105  1.00  0.00     0.145 A 
HETATM   10  N4  UNL     1       2.076  12.141   2.594  1.00  0.00    -0.175 N 
ATOM     11  H4  UNL     1       2.188  12.329   1.598  1.00  0.00     0.186 HD
HETATM   12  N5  UNL     1       2.557   9.335   4.967  1.00  0.00    -0.345 N 
ATOM     13  H5  UNL     1       2.896   8.620   4.323  1.00  0.00     0.167 HD
HETATM   14  C5  UNL     1       2.430   9.034   6.211  1.00  0.00     0.198 A 
HETATM   15  N6  UNL     1       1.951  10.053   7.104  1.00  0.00    -0.292 N 
ATOM     16  H6  UNL     1       1.847   9.824   8.092  1.00  0.00     0.188 HD
HETATM   17  N7  UNL     1       1.619  11.345   6.680  1.00  0.00    -0.272 N 
ENDROOT
BRANCH  17  18
HETATM   18  C6  UNL     1       1.173  12.371   7.593  1.00  0.00     0.172 C 
BRANCH  18  19
HETATM   19  C7  UNL     1      -0.239  12.804   7.401  1.00  0.00     0.172 C 
BRANCH  19  20
HETATM   20  N8  UNL     1      -0.274  14.252   7.545  1.00  0.00    -0.284 N 
HETATM   21  C8  UNL     1      -1.456  14.949   7.155  1.00  0.00     0.196 C 
HETATM   22  N9  UNL     1      -1.782  16.133   7.541  1.00  0.00    -0.375 N 
HETATM   23  C9  UNL     1      -1.075  17.006   8.418  1.00  0.00     0.143 C 
ATOM     24  H9  UNL     1      -2.662  16.494   7.171  1.00  0.00     0.160 HD
HETATM   25  C11 UNL     1       0.322  17.365   8.000  1.00  0.00     0.236 C 
HETATM   26  C12 UNL     1       1.243  16.199   8.024  1.00  0.00     0.267 C 
HETATM   27  O3  UNL     1       2.451  16.517   7.996  1.00  0.00    -0.269 OA
HETATM   28  N10 UNL     1       0.930  14.792   8.074  1.00  0.00    -0.265 N 
ATOM     29  H10 UNL     1       1.600  14.158   8.507  1.00  0.00     0.190 HD
BRANCH  23  30
HETATM   30  C10 UNL     1      -1.867  18.286   8.551  1.00  0.00     0.192 C 
BRANCH  30  31
HETATM   31  O1  UNL     1      -2.257  18.666   7.250  1.00  0.00    -0.399 OA
ATOM     32  H1  UNL     1      -2.386  19.607   7.264  1.00  0.00     0.209 HD
ENDBRANCH  30  31
ENDBRANCH  23  30
BRANCH  25  33
HETATM   33  O2  UNL     1       0.341  18.018   6.777  1.00  0.00    -0.384 OA
ATOM     34  H2  UNL     1       1.097  17.770   6.258  1.00  0.00     0.210 HD
ENDBRANCH  25  33
ENDBRANCH  19  20
ENDBRANCH  18  19
ENDBRANCH  17  18
BRANCH   9  35
HETATM   35  N3  UNL     1       2.804  10.034   2.302  1.00  0.00    -0.383 N 
ATOM     36  H32 UNL     1       2.158   9.295   2.026  1.00  0.00     0.157 HD
ATOM     37  H31 UNL     1       3.767  10.093   1.971  1.00  0.00     0.157 HD
ENDBRANCH   9  35
TORSDOF 7
ENDMDL
MODEL 2
REMARK VINA RESULT: -6.853490345      1.286      2.503
REMARK  7 active torsions:
REMARK  status: ('A' for Active; 'I' for Inactive)
REMARK    1  A    between atoms: C4_9  and  N3_10 
REMARK    2  A    between atoms: N7_20  and  C6_21 
REMARK    3  A    between atoms: C6_21  and  C7_22 
REMARK    4  A    between atoms: C7_22  and  N8_23 
REMARK    5  A    between atoms: C9_27  and  C10_28 
REMARK    6  A    between atoms: C10_28  and  O1_29 
REMARK    7  A    between atoms: C11_31  and  O2_32 
ROOT
HETATM    1  N1  UNL     1       4.654   9.447   4.582  1.00  0.00    -0.234 N 
ATOM      2  H11 UNL     1       5.304   8.827   4.099  1.00  0.00     0.174 HD
ATOM      3  H12 UNL     1       4.795   9.611   5.579  1.00  0.00     0.174 HD
HETATM    4  C1  UNL     1       3.681  10.011   3.955  1.00  0.00     0.679 A 
HETATM    5  N2  UNL     1       2.821  10.833   4.596  1.00  0.00    -0.173 N 
ATOM      6  H2  UNL     1       2.975  10.987   5.592  1.00  0.00     0.186 HD
HETATM    7  C2  UNL     1       1.794  11.455   4.038  1.00  0.00     0.168 A 
HETATM    8  C3  UNL     1       1.579  11.252   2.686  1.00  0.00     0.124 A 
HETATM    9  C4  UNL     1       2.466  10.406   2.029  1.00  0.00     0.145 A 
HETATM   10  N4  UNL     1       3.496   9.794   2.639  1.00  0.00    -0.175 N 
ATOM     11  H4  UNL     1       4.123   9.181   2.118  1.00  0.00     0.186 HD
HETATM   12  N5  UNL     1       0.506  11.894   2.019  1.00  0.00    -0.345 N 
ATOM     13  H5  UNL     1       0.377  11.722   1.022  1.00  0.00     0.167 HD
HETATM   14  C5  UNL     1      -0.314  12.684   2.619  1.00  0.00     0.198 A 
HETATM   15  N6  UNL     1      -0.118  12.914   4.025  1.00  0.00    -0.292 N 
ATOM     16  H6  UNL     1      -0.762  13.538   4.509  1.00  0.00     0.188 HD
HETATM   17  N7  UNL     1       0.915  12.322   4.758  1.00  0.00    -0.272 N 
ENDROOT
BRANCH  17  18
HETATM   18  C6  UNL     1       1.080  12.533   6.177  1.00  0.00     0.172 C 
BRANCH  18  19
HETATM   19  C7  UNL     1      -0.184  12.798   6.919  1.00  0.00     0.172 C 
BRANCH  19  20
HETATM   20  N8  UNL     1      -0.235  14.225   7.198  1.00  0.00    -0.284 N 
HETATM   21  C8  UNL     1      -1.425  14.942   6.877  1.00  0.00     0.196 C 
HETATM   22  N9  UNL     1      -1.763  16.082   7.374  1.00  0.00    -0.375 N 
HETATM   23  C9  UNL     1      -1.063  16.876   8.327  1.00  0.00     0.143 C 
ATOM     24  H9  UNL     1      -2.648  16.465   7.041  1.00  0.00     0.160 HD
HETATM   25  C11 UNL     1       0.328  17.289   7.942  1.00  0.00     0.236 C 
HETATM   26  C12 UNL     1       1.262  16.137   7.854  1.00  0.00     0.267 C 
HETATM   27  O3  UNL     1       2.467  16.470   7.853  1.00  0.00    -0.269 OA
HETATM   28  N10 UNL     1       0.965  14.727   7.773  1.00  0.00    -0.265 N 
ATOM     29  H10 UNL     1       1.644  14.063   8.143  1.00  0.00     0.190 HD
BRANCH  23  30
HETATM   30  C10 UNL     1      -1.869  18.129   8.582  1.00  0.00     0.192 C 
BRANCH  30  31
HETATM   31  O1  UNL     1      -2.287  18.612   7.324  1.00  0.00    -0.399 OA
ATOM     32  H1  UNL     1      -2.067  19.536   7.296  1.00  0.00     0.209 HD
ENDBRANCH  30  31
ENDBRANCH  23  30
BRANCH  25  33
HETATM   33  O2  UNL     1       0.336  18.053   6.786  1.00  0.00    -0.384 OA
ATOM     34  H2  UNL     1       1.192  18.060   6.373  1.00  0.00     0.210 HD
ENDBRANCH  25  33
ENDBRANCH  19  20
ENDBRANCH  18  19
ENDBRANCH  17  18
BRANCH   9  35
HETATM   35  N3  UNL     1       2.298  10.192   0.778  1.00  0.00    -0.383 N 
ATOM     36  H32 UNL     1       1.382   9.870   0.469  1.00  0.00     0.157 HD
ATOM     37  H31 UNL     1       3.082  10.352   0.145  1.00  0.00     0.157 HD
ENDBRANCH   9  35
TORSDOF 7
ENDMDL
MODEL 3
REMARK VINA RESULT: -6.645414350      1.124      2.647
REMARK  7 active torsions:
REMARK  status: ('A' for Active; 'I' for Inactive)
REMARK    1  A    between atoms: C4_9  and  N3_10 
REMARK    2  A    between atoms: N7_20  and  C6_21 
REMARK    3  A    between atoms: C6_21  and  C7_22 
REMARK    4  A    between atoms: C7_22  and  N8_23 
REMARK    5  A    between atoms: C9_27  and  C10_28 
REMARK    6  A    between atoms: C10_28  and  O1_29 
REMARK    7  A    between atoms: C11_31  and  O2_32 
ROOT
HETATM    1  N1  UNL     1       1.707   7.897   4.564  1.00  0.00    -0.234 N 
ATOM      2  H11 UNL     1       1.806   7.035   4.028  1.00  0.00     0.174 HD
ATOM      3  H12 UNL     1       1.697   7.833   5.582  1.00  0.00     0.174 HD
HETATM    4  C1  UNL     1       1.597   9.038   3.978  1.00  0.00     0.679 A 
HETATM    5  N2  UNL     1       1.466  10.180   4.689  1.00  0.00    -0.173 N 
ATOM      6  H2  UNL     1       1.458  10.098   5.706  1.00  0.00     0.186 HD
HETATM    7  C2  UNL     1       1.347  11.394   4.177  1.00  0.00     0.168 A 
HETATM    8  C3  UNL     1       1.358  11.511   2.797  1.00  0.00     0.124 A 
HETATM    9  C4  UNL     1       1.493  10.336   2.067  1.00  0.00     0.145 A 
HETATM   10  N4  UNL     1       1.611   9.122   2.634  1.00  0.00    -0.175 N 
ATOM     11  H4  UNL     1       1.707   8.284   2.059  1.00  0.00     0.186 HD
HETATM   12  N5  UNL     1       1.245  12.781   2.178  1.00  0.00    -0.345 N 
ATOM     13  H5  UNL     1       1.257  12.832   1.160  1.00  0.00     0.167 HD
HETATM   14  C5  UNL     1       1.128  13.874   2.848  1.00  0.00     0.198 A 
HETATM   15  N6  UNL     1       1.111  13.785   4.282  1.00  0.00    -0.292 N 
ATOM     16  H6  UNL     1       1.019  14.646   4.821  1.00  0.00     0.188 HD
HETATM   17  N7  UNL     1       1.218  12.574   4.973  1.00  0.00    -0.272 N 
ENDROOT
BRANCH  17  18
HETATM   18  C6  UNL     1       1.164  12.494   6.414  1.00  0.00     0.172 C 
BRANCH  18  19
HETATM   19  C7  UNL     1      -0.169  12.789   7.005  1.00  0.00     0.172 C 
BRANCH  19  20
HETATM   20  N8  UNL     1      -0.224  14.220   7.266  1.00  0.00    -0.284 N 
HETATM   21  C8  UNL     1      -1.414  14.931   6.930  1.00  0.00     0.196 C 
HETATM   22  N9  UNL     1      -1.757  16.076   7.410  1.00  0.00    -0.375 N 
HETATM   23  C9  UNL     1      -1.063  16.884   8.356  1.00  0.00     0.143 C 
ATOM     24  H9  UNL     1      -2.641  16.453   7.068  1.00  0.00     0.160 HD
HETATM   25  C11 UNL     1       0.330  17.294   7.972  1.00  0.00     0.236 C 
HETATM   26  C12 UNL     1       1.266  16.142   7.904  1.00  0.00     0.267 C 
HETATM   27  O3  UNL     1       2.470  16.477   7.904  1.00  0.00    -0.269 OA
HETATM   28  N10 UNL     1       0.972  14.731   7.839  1.00  0.00    -0.265 N 
ATOM     29  H10 UNL     1       1.650  14.073   8.221  1.00  0.00     0.190 HD
BRANCH  23  30
HETATM   30  C10 UNL     1      -1.872  18.138   8.591  1.00  0.00     0.192 C 
BRANCH  30  31
HETATM   31  O1  UNL     1      -2.304  18.591   7.328  1.00  0.00    -0.399 OA
ATOM     32  H1  UNL     1      -3.237  18.421   7.277  1.00  0.00     0.209 HD
ENDBRANCH  30  31
ENDBRANCH  23  30
BRANCH  25  33
HETATM   33  O2  UNL     1       0.342  18.043   6.806  1.00  0.00    -0.384 OA
ATOM     34  H2  UNL     1       1.223  18.306   6.565  1.00  0.00     0.210 HD
ENDBRANCH  25  33
ENDBRANCH  19  20
ENDBRANCH  18  19
ENDBRANCH  17  18
BRANCH   9  35
HETATM   35  N3  UNL     1       1.505  10.404   0.789  1.00  0.00    -0.383 N 
ATOM     36  H32 UNL     1       1.871  11.253   0.361  1.00  0.00     0.157 HD
ATOM     37  H31 UNL     1       1.152   9.611   0.254  1.00  0.00     0.157 HD
ENDBRANCH   9  35
TORSDOF 7
ENDMDL
MODEL 4
REMARK VINA RESULT: -6.614361783      3.048      6.727
REMARK  7 active torsions:
REMARK  status: ('A' for Active; 'I' for Inactive)
REMARK    1  A    between atoms: C4_9  and  N3_10 
REMARK    2  A    between atoms: N7_20  and  C6_21 
REMARK    3  A    between atoms: C6_21  and  C7_22 
REMARK    4  A    between atoms: C7_22  and  N8_23 
REMARK    5  A    between atoms: C9_27  and  C10_28 
REMARK    6  A    between atoms: C10_28  and  O1_29 
REMARK    7  A    between atoms: C11_31  and  O2_32 
ROOT
HETATM    1  N1  UNL     1       1.285  18.058   7.123  1.00  0.00    -0.234 N 
ATOM      2  H11 UNL     1       1.283  19.076   7.061  1.00  0.00     0.174 HD
ATOM      3  H12 UNL     1       2.069  17.551   6.714  1.00  0.00     0.174 HD
HETATM    4  C1  UNL     1       0.324  17.425   7.701  1.00  0.00     0.679 A 
HETATM    5  N2  UNL     1       0.327  16.075   7.783  1.00  0.00    -0.173 N 
ATOM      6  H2  UNL     1       1.119  15.584   7.369  1.00  0.00     0.186 HD
HETATM    7  C2  UNL     1      -0.613  15.339   8.355  1.00  0.00     0.168 A 
HETATM    8  C3  UNL     1      -1.690  16.000   8.919  1.00  0.00     0.124 A 
HETATM    9  C4  UNL     1      -1.691  17.388   8.834  1.00  0.00     0.145 A 
HETATM   10  N4  UNL     1      -0.712  18.094   8.241  1.00  0.00    -0.175 N 
ATOM     11  H4  UNL     1      -0.753  19.112   8.201  1.00  0.00     0.186 HD
HETATM   12  N5  UNL     1      -2.728  15.277   9.558  1.00  0.00    -0.345 N 
ATOM     13  H5  UNL     1      -3.507  15.796   9.964  1.00  0.00     0.167 HD
HETATM   14  C5  UNL     1      -2.730  13.993   9.648  1.00  0.00     0.198 A 
HETATM   15  N6  UNL     1      -1.625  13.278   9.070  1.00  0.00    -0.292 N 
ATOM     16  H6  UNL     1      -1.618  12.261   9.136  1.00  0.00     0.188 HD
HETATM   17  N7  UNL     1      -0.560  13.912   8.422  1.00  0.00    -0.272 N 
ENDROOT
BRANCH  17  18
HETATM   18  C6  UNL     1       0.526  13.180   7.815  1.00  0.00     0.172 C 
BRANCH  18  19
HETATM   19  C7  UNL     1       0.116  11.951   7.082  1.00  0.00     0.172 C 
BRANCH  19  20
HETATM   20  N8  UNL     1       0.404  12.167   5.672  1.00  0.00    -0.284 N 
HETATM   21  C8  UNL     1      -0.661  12.557   4.808  1.00  0.00     0.196 C 
HETATM   22  N9  UNL     1      -0.519  13.124   3.660  1.00  0.00    -0.375 N 
HETATM   23  C9  UNL     1       0.687  13.486   2.995  1.00  0.00     0.143 C 
ATOM     24  H9  UNL     1      -1.383  13.341   3.163  1.00  0.00     0.160 HD
HETATM   25  C11 UNL     1       1.652  12.367   2.729  1.00  0.00     0.236 C 
HETATM   26  C12 UNL     1       2.226  11.799   3.977  1.00  0.00     0.267 C 
HETATM   27  O3  UNL     1       3.247  11.104   3.786  1.00  0.00    -0.269 OA
HETATM   28  N10 UNL     1       1.768  11.943   5.338  1.00  0.00    -0.265 N 
ATOM     29  H10 UNL     1       2.451  11.881   6.092  1.00  0.00     0.190 HD
BRANCH  23  30
HETATM   30  C10 UNL     1       0.325  14.116   1.669  1.00  0.00     0.192 C 
BRANCH  30  31
HETATM   31  O1  UNL     1       1.392  14.967   1.314  1.00  0.00    -0.399 OA
ATOM     32  H1  UNL     1       1.007  15.758   0.954  1.00  0.00     0.209 HD
ENDBRANCH  30  31
ENDBRANCH  23  30
BRANCH  25  33
HETATM   33  O2  UNL     1       1.095  11.389   1.921  1.00  0.00    -0.384 OA
ATOM     34  H2  UNL     1       1.675  11.147   1.209  1.00  0.00     0.210 HD
ENDBRANCH  25  33
ENDBRANCH  19  20
ENDBRANCH  18  19
ENDBRANCH  17  18
BRANCH   9  35
HETATM   35  N3  UNL     1      -2.671  18.034   9.342  1.00  0.00    -0.383 N 
ATOM     36  H32 UNL     1      -3.442  17.497   9.739  1.00  0.00     0.157 HD
ATOM     37  H31 UNL     1      -2.643  19.054   9.333  1.00  0.00     0.157 HD
ENDBRANCH   9  35
TORSDOF 7
ENDMDL
MODEL 5
REMARK VINA RESULT: -6.534065263      2.224      3.244
REMARK  7 active torsions:
REMARK  status: ('A' for Active; 'I' for Inactive)
REMARK    1  A    between atoms: C4_9  and  N3_10 
REMARK    2  A    between atoms: N7_20  and  C6_21 
REMARK    3  A    between atoms: C6_21  and  C7_22 
REMARK    4  A    between atoms: C7_22  and  N8_23 
REMARK    5  A    between atoms: C9_27  and  C10_28 
REMARK    6  A    between atoms: C10_28  and  O1_29 
REMARK    7  A    between atoms: C11_31  and  O2_32 
ROOT
HETATM    1  N1  UNL     1      -2.502   9.446   4.512  1.00  0.00    -0.234 N 
ATOM      2  H11 UNL     1      -3.222   8.893   4.047  1.00  0.00     0.174 HD
ATOM      3  H12 UNL     1      -2.275   9.224   5.481  1.00  0.00     0.174 HD
HETATM    4  C1  UNL     1      -1.893  10.399   3.897  1.00  0.00     0.679 A 
HETATM    5  N2  UNL     1      -0.939  11.131   4.514  1.00  0.00    -0.173 N 
ATOM      6  H2  UNL     1      -0.723  10.896   5.483  1.00  0.00     0.186 HD
HETATM    7  C2  UNL     1      -0.261  12.128   3.967  1.00  0.00     0.168 A 
HETATM    8  C3  UNL     1      -0.548  12.451   2.651  1.00  0.00     0.124 A 
HETATM    9  C4  UNL     1      -1.530  11.696   2.019  1.00  0.00     0.145 A 
HETATM   10  N4  UNL     1      -2.193  10.692   2.618  1.00  0.00    -0.175 N 
ATOM     11  H4  UNL     1      -2.907  10.164   2.115  1.00  0.00     0.186 HD
HETATM   12  N5  UNL     1       0.145  13.499   1.996  1.00  0.00    -0.345 N 
ATOM     13  H5  UNL     1      -0.091  13.710   1.027  1.00  0.00     0.167 HD
HETATM   14  C5  UNL     1       1.060  14.196   2.573  1.00  0.00     0.198 A 
HETATM   15  N6  UNL     1       1.380  13.885   3.940  1.00  0.00    -0.292 N 
ATOM     16  H6  UNL     1       2.104  14.432   4.406  1.00  0.00     0.188 HD
HETATM   17  N7  UNL     1       0.745  12.868   4.660  1.00  0.00    -0.272 N 
ENDROOT
BRANCH  17  18
HETATM   18  C6  UNL     1       1.051  12.589   6.043  1.00  0.00     0.172 C 
BRANCH  18  19
HETATM   19  C7  UNL     1      -0.077  12.818   6.989  1.00  0.00     0.172 C 
BRANCH  19  20
HETATM   20  N8  UNL     1      -0.152  14.249   7.240  1.00  0.00    -0.284 N 
HETATM   21  C8  UNL     1      -1.350  14.942   6.894  1.00  0.00     0.196 C 
HETATM   22  N9  UNL     1      -1.710  16.085   7.365  1.00  0.00    -0.375 N 
HETATM   23  C9  UNL     1      -1.031  16.909   8.309  1.00  0.00     0.143 C 
ATOM     24  H9  UNL     1      -2.597  16.449   7.017  1.00  0.00     0.160 HD
HETATM   25  C11 UNL     1       0.358  17.335   7.929  1.00  0.00     0.236 C 
HETATM   26  C12 UNL     1       1.310  16.195   7.872  1.00  0.00     0.267 C 
HETATM   27  O3  UNL     1       2.509  16.547   7.876  1.00  0.00    -0.269 OA
HETATM   28  N10 UNL     1       1.035  14.781   7.815  1.00  0.00    -0.265 N 
ATOM     29  H10 UNL     1       1.720  14.134   8.204  1.00  0.00     0.190 HD
BRANCH  23  30
HETATM   30  C10 UNL     1      -1.858  18.154   8.532  1.00  0.00     0.192 C 
BRANCH  30  31
HETATM   31  O1  UNL     1      -2.329  18.566   7.269  1.00  0.00    -0.399 OA
ATOM     32  H1  UNL     1      -3.271  18.440   7.271  1.00  0.00     0.209 HD
ENDBRANCH  30  31
ENDBRANCH  23  30
BRANCH  25  33
HETATM   33  O2  UNL     1       0.365  18.077   6.758  1.00  0.00    -0.384 OA
ATOM     34  H2  UNL     1      -0.220  17.710   6.105  1.00  0.00     0.210 HD
ENDBRANCH  25  33
ENDBRANCH  19  20
ENDBRANCH  18  19
ENDBRANCH  17  18
BRANCH   9  35
HETATM   35  N3  UNL     1      -1.824  11.967   0.803  1.00  0.00    -0.383 N 
ATOM     36  H32 UNL     1      -1.809  11.203   0.127  1.00  0.00     0.157 HD
ATOM     37  H31 UNL     1      -2.064  12.928   0.560  1.00  0.00     0.157 HD
ENDBRANCH   9  35
TORSDOF 7
ENDMDL
