MODEL 1
REMARK VINA RESULT: -6.468313420      0.000      0.000
REMARK  6 active torsions:
REMARK  status: ('A' for Active; 'I' for Inactive)
REMARK    1  A    between atoms: C5_7  and  O1_8 
REMARK    2  A    between atoms: C5_7  and  N3_10 
REMARK    3  A    between atoms: N3_10  and  C6_12 
REMARK    4  A    between atoms: C6_12  and  C8_15 
REMARK       I    between atoms: C8_15  and  N5_17 
REMARK       I    between atoms: N5_17  and  C9_18 
REMARK    5  A    between atoms: C10_21  and  N8_22 
REMARK    6  A    between atoms: N8_22  and  N9_23 
ROOT
HETATM    1  N1  UNL     1       2.251  14.672  15.683  1.00  0.00    -0.191 NA
HETATM    2  C1  UNL     1       2.033  14.745  14.533  1.00  0.00     0.105 C 
HETATM    3  C2  UNL     1       1.790  14.821  13.119  1.00  0.00     0.113 A 
HETATM    4  C3  UNL     1       0.573  15.233  12.629  1.00  0.00     0.089 A 
HETATM    5  N2  UNL     1      -0.456  15.585  13.539  1.00  0.00    -0.100 NA
HETATM    6  C4  UNL     1       0.295  15.323  11.245  1.00  0.00     0.087 A 
HETATM    7  C5  UNL     1      -0.980  15.754  10.817  1.00  0.00     0.153 C 
HETATM    8  C10 UNL     1       1.321  14.974  10.442  1.00  0.00     0.155 A 
HETATM    9  N11 UNL     1       2.541  14.560  10.946  1.00  0.00    -0.325 N 
ATOM     10  H11 UNL     1       3.280  14.307  10.290  1.00  0.00     0.169 HD
HETATM   11  C12 UNL     1       2.791  14.479  12.248  1.00  0.00     0.123 A 
HETATM   12  N12 UNL     1       3.963  14.083  12.672  1.00  0.00    -0.384 N 
ATOM     13 1H12 UNL     1       4.708  13.829  12.024  1.00  0.00     0.157 HD
ATOM     14 2H12 UNL     1       4.155  14.021  13.672  1.00  0.00     0.157 HD
ENDROOT
BRANCH   7  15
HETATM   15  O1  UNL     1      -1.807  16.028  11.819  1.00  0.00    -0.346 OA
ATOM     16  H1  UNL     1      -2.438  16.706  11.612  1.00  0.00     0.219 HD
ENDBRANCH   7  15
BRANCH   7  17
HETATM   17  N3  UNL     1      -1.600  15.966   9.604  1.00  0.00    -0.345 N 
ATOM     18  H3  UNL     1      -1.685  15.202   8.935  1.00  0.00     0.163 HD
BRANCH  17  19
HETATM   19  C6  UNL     1      -2.144  17.303   9.275  1.00  0.00     0.299 C 
HETATM   20  C7  UNL     1      -1.620  17.730   7.996  1.00  0.00     0.095 C 
HETATM   21  N4  UNL     1      -1.192  18.053   6.971  1.00  0.00    -0.195 NA
BRANCH  19  22
HETATM   22  C8  UNL     1      -3.646  17.243   9.169  1.00  0.00     0.331 C 
HETATM   23  O2  UNL     1      -4.145  17.354   7.992  1.00  0.00    -0.253 OA
HETATM   24  N5  UNL     1      -4.405  17.085  10.230  1.00  0.00    -0.338 NA
HETATM   25  C9  UNL     1      -5.061  17.219  11.227  1.00  0.00     0.278 C 
HETATM   26  N6  UNL     1      -5.765  16.172  11.946  1.00  0.00    -0.052 NA
HETATM   27  N7  UNL     1      -5.215  18.523  11.841  1.00  0.00    -0.052 NA
ENDBRANCH  19  22
ENDBRANCH  17  19
ENDBRANCH   7  17
BRANCH   8  28
HETATM   28  N8  UNL     1       1.252  14.987   9.040  1.00  0.00    -0.179 N 
HETATM   29  C11 UNL     1       1.735  16.093   8.342  1.00  0.00     0.206 C 
HETATM   30  N10 UNL     1       2.145  17.038   7.770  1.00  0.00    -0.170 NA
BRANCH  28  31
HETATM   31  N9  UNL     1       0.648  13.923   8.379  1.00  0.00    -0.328 N 
ATOM     32  H92 UNL     1       0.545  13.012   8.825  1.00  0.00     0.178 HD
ATOM     33  H91 UNL     1       0.344  14.044   7.413  1.00  0.00     0.178 HD
ENDBRANCH  28  31
ENDBRANCH   8  28
TORSDOF 6
ENDMDL
MODEL 2
REMARK VINA RESULT: -6.353905153      2.314      6.857
REMARK  6 active torsions:
REMARK  status: ('A' for Active; 'I' for Inactive)
REMARK    1  A    between atoms: C5_7  and  O1_8 
REMARK    2  A    between atoms: C5_7  and  N3_10 
REMARK    3  A    between atoms: N3_10  and  C6_12 
REMARK    4  A    between atoms: C6_12  and  C8_15 
REMARK       I    between atoms: C8_15  and  N5_17 
REMARK       I    between atoms: N5_17  and  C9_18 
REMARK    5  A    between atoms: C10_21  and  N8_22 
REMARK    6  A    between atoms: N8_22  and  N9_23 
ROOT
HETATM    1  N1  UNL     1      -5.679  17.676  10.226  1.00  0.00    -0.191 NA
HETATM    2  C1  UNL     1      -4.622  17.353   9.836  1.00  0.00     0.105 C 
HETATM    3  C2  UNL     1      -3.333  16.967   9.332  1.00  0.00     0.113 A 
HETATM    4  C3  UNL     1      -2.369  16.454  10.167  1.00  0.00     0.089 A 
HETATM    5  N2  UNL     1      -2.655  16.308  11.547  1.00  0.00    -0.100 NA
HETATM    6  C4  UNL     1      -1.089  16.061   9.710  1.00  0.00     0.087 A 
HETATM    7  C5  UNL     1      -0.149  15.544  10.627  1.00  0.00     0.153 C 
HETATM    8  C10 UNL     1      -0.890  16.228   8.386  1.00  0.00     0.155 A 
HETATM    9  N11 UNL     1      -1.867  16.746   7.555  1.00  0.00    -0.325 N 
ATOM     10  H11 UNL     1      -1.659  16.851   6.562  1.00  0.00     0.169 HD
HETATM   11  C12 UNL     1      -3.066  17.112   7.995  1.00  0.00     0.123 A 
HETATM   12  N12 UNL     1      -3.955  17.594   7.167  1.00  0.00    -0.384 N 
ATOM     13 1H12 UNL     1      -3.756  17.701   6.173  1.00  0.00     0.157 HD
ATOM     14 2H12 UNL     1      -4.875  17.875   7.505  1.00  0.00     0.157 HD
ENDROOT
BRANCH   7  15
HETATM   15  O1  UNL     1      -0.604  15.494  11.874  1.00  0.00    -0.346 OA
ATOM     16  H1  UNL     1      -0.190  16.125  12.451  1.00  0.00     0.219 HD
ENDBRANCH   7  15
BRANCH   7  17
HETATM   17  N3  UNL     1       1.143  15.069  10.563  1.00  0.00    -0.345 N 
ATOM     18  H3  UNL     1       1.896  15.680  10.248  1.00  0.00     0.163 HD
BRANCH  17  19
HETATM   19  C6  UNL     1       1.439  13.671  10.952  1.00  0.00     0.299 C 
HETATM   20  C7  UNL     1       0.988  12.778   9.907  1.00  0.00     0.095 C 
HETATM   21  N4  UNL     1       0.623  12.081   9.059  1.00  0.00    -0.195 NA
BRANCH  19  22
HETATM   22  C8  UNL     1       2.923  13.480  11.123  1.00  0.00     0.331 C 
HETATM   23  O2  UNL     1       3.625  14.542  11.289  1.00  0.00    -0.253 OA
HETATM   24  N5  UNL     1       3.470  12.286  11.103  1.00  0.00    -0.338 NA
HETATM   25  C9  UNL     1       3.956  11.228  10.805  1.00  0.00     0.278 C 
HETATM   26  N6  UNL     1       4.421  10.202  11.721  1.00  0.00    -0.052 NA
HETATM   27  N7  UNL     1       4.129  10.860   9.414  1.00  0.00    -0.052 NA
ENDBRANCH  19  22
ENDBRANCH  17  19
ENDBRANCH   7  17
BRANCH   8  28
HETATM   28  N8  UNL     1       0.310  15.907   7.732  1.00  0.00    -0.179 N 
HETATM   29  C11 UNL     1       1.295  16.883   7.592  1.00  0.00     0.206 C 
HETATM   30  N10 UNL     1       2.114  17.723   7.479  1.00  0.00    -0.170 NA
BRANCH  28  31
HETATM   31  N9  UNL     1       0.468  14.638   7.185  1.00  0.00    -0.328 N 
ATOM     32  H92 UNL     1       0.057  14.395   6.284  1.00  0.00     0.178 HD
ATOM     33  H91 UNL     1       0.967  13.924   7.717  1.00  0.00     0.178 HD
ENDBRANCH  28  31
ENDBRANCH   8  28
TORSDOF 6
ENDMDL
MODEL 3
REMARK VINA RESULT: -6.282969148      4.301      6.828
REMARK  6 active torsions:
REMARK  status: ('A' for Active; 'I' for Inactive)
REMARK    1  A    between atoms: C5_7  and  O1_8 
REMARK    2  A    between atoms: C5_7  and  N3_10 
REMARK    3  A    between atoms: N3_10  and  C6_12 
REMARK    4  A    between atoms: C6_12  and  C8_15 
REMARK       I    between atoms: C8_15  and  N5_17 
REMARK       I    between atoms: N5_17  and  C9_18 
REMARK    5  A    between atoms: C10_21  and  N8_22 
REMARK    6  A    between atoms: N8_22  and  N9_23 
ROOT
HETATM    1  N1  UNL     1       3.284  10.086   2.286  1.00  0.00    -0.191 NA
HETATM    2  C1  UNL     1       2.794  10.430   3.294  1.00  0.00     0.105 C 
HETATM    3  C2  UNL     1       2.201  10.828   4.540  1.00  0.00     0.113 A 
HETATM    4  C3  UNL     1       1.743  12.111   4.732  1.00  0.00     0.089 A 
HETATM    5  N2  UNL     1       1.864  13.053   3.680  1.00  0.00    -0.100 NA
HETATM    6  C4  UNL     1       1.151  12.541   5.943  1.00  0.00     0.087 A 
HETATM    7  C5  UNL     1       0.706  13.874   6.066  1.00  0.00     0.153 C 
HETATM    8  C10 UNL     1       1.070  11.590   6.896  1.00  0.00     0.155 A 
HETATM    9  N11 UNL     1       1.533  10.302   6.693  1.00  0.00    -0.325 N 
ATOM     10  H11 UNL     1       1.446   9.626   7.452  1.00  0.00     0.169 HD
HETATM   11  C12 UNL     1       2.087   9.910   5.552  1.00  0.00     0.123 A 
HETATM   12  N12 UNL     1       2.509   8.680   5.411  1.00  0.00    -0.384 N 
ATOM     13 1H12 UNL     1       2.424   7.997   6.163  1.00  0.00     0.157 HD
ATOM     14 2H12 UNL     1       2.934   8.378   4.534  1.00  0.00     0.157 HD
ENDROOT
BRANCH   7  15
HETATM   15  O1  UNL     1       0.916  14.602   4.975  1.00  0.00    -0.346 OA
ATOM     16  H1  UNL     1       0.151  15.090   4.694  1.00  0.00     0.219 HD
ENDBRANCH   7  15
BRANCH   7  17
HETATM   17  N3  UNL     1       0.100  14.632   7.045  1.00  0.00    -0.345 N 
ATOM     18  H3  UNL     1      -0.813  14.359   7.408  1.00  0.00     0.163 HD
BRANCH  17  19
HETATM   19  C6  UNL     1       0.773  15.842   7.569  1.00  0.00     0.299 C 
HETATM   20  C7  UNL     1      -0.069  16.996   7.337  1.00  0.00     0.095 C 
HETATM   21  N4  UNL     1      -0.757  17.906   7.145  1.00  0.00    -0.195 NA
BRANCH  19  22
HETATM   22  C8  UNL     1       0.993  15.714   9.054  1.00  0.00     0.331 C 
HETATM   23  O2  UNL     1       2.211  15.731   9.458  1.00  0.00    -0.253 OA
HETATM   24  N5  UNL     1      -0.012  15.593   9.891  1.00  0.00    -0.338 NA
HETATM   25  C9  UNL     1      -0.919  15.210  10.580  1.00  0.00     0.278 C 
HETATM   26  N6  UNL     1      -1.728  16.021  11.473  1.00  0.00    -0.052 NA
HETATM   27  N7  UNL     1      -1.311  13.815  10.579  1.00  0.00    -0.052 NA
ENDBRANCH  19  22
ENDBRANCH  17  19
ENDBRANCH   7  17
BRANCH   8  28
HETATM   28  N8  UNL     1       0.523  11.810   8.170  1.00  0.00    -0.179 N 
HETATM   29  C11 UNL     1       1.371  12.093   9.239  1.00  0.00     0.206 C 
HETATM   30  N10 UNL     1       2.105  12.326  10.132  1.00  0.00    -0.170 NA
BRANCH  28  31
HETATM   31  N9  UNL     1      -0.850  11.683   8.352  1.00  0.00    -0.328 N 
ATOM     32  H92 UNL     1      -1.403  11.046   7.779  1.00  0.00     0.178 HD
ATOM     33  H91 UNL     1      -1.319  12.270   9.042  1.00  0.00     0.178 HD
ENDBRANCH  28  31
ENDBRANCH   8  28
TORSDOF 6
ENDMDL
MODEL 4
REMARK VINA RESULT: -6.279407717      1.461      2.013
REMARK  6 active torsions:
REMARK  status: ('A' for Active; 'I' for Inactive)
REMARK    1  A    between atoms: C5_7  and  O1_8 
REMARK    2  A    between atoms: C5_7  and  N3_10 
REMARK    3  A    between atoms: N3_10  and  C6_12 
REMARK    4  A    between atoms: C6_12  and  C8_15 
REMARK       I    between atoms: C8_15  and  N5_17 
REMARK       I    between atoms: N5_17  and  C9_18 
REMARK    5  A    between atoms: C10_21  and  N8_22 
REMARK    6  A    between atoms: N8_22  and  N9_23 
ROOT
HETATM    1  N1  UNL     1       2.261  14.773  15.720  1.00  0.00    -0.191 NA
HETATM    2  C1  UNL     1       2.020  14.825  14.574  1.00  0.00     0.105 C 
HETATM    3  C2  UNL     1       1.750  14.876  13.164  1.00  0.00     0.113 A 
HETATM    4  C3  UNL     1       0.521  15.272  12.691  1.00  0.00     0.089 A 
HETATM    5  N2  UNL     1      -0.493  15.632  13.613  1.00  0.00    -0.100 NA
HETATM    6  C4  UNL     1       0.216  15.338  11.310  1.00  0.00     0.087 A 
HETATM    7  C5  UNL     1      -1.069  15.753  10.899  1.00  0.00     0.153 C 
HETATM    8  C10 UNL     1       1.230  14.983  10.494  1.00  0.00     0.155 A 
HETATM    9  N11 UNL     1       2.462  14.586  10.981  1.00  0.00    -0.325 N 
ATOM     10  H11 UNL     1       3.190  14.326  10.316  1.00  0.00     0.169 HD
HETATM   11  C12 UNL     1       2.737  14.527  12.279  1.00  0.00     0.123 A 
HETATM   12  N12 UNL     1       3.919  14.146  12.688  1.00  0.00    -0.384 N 
ATOM     13 1H12 UNL     1       4.654  13.887  12.029  1.00  0.00     0.157 HD
ATOM     14 2H12 UNL     1       4.131  14.102  13.684  1.00  0.00     0.157 HD
ENDROOT
BRANCH   7  15
HETATM   15  O1  UNL     1      -1.879  16.038  11.913  1.00  0.00    -0.346 OA
ATOM     16  H1  UNL     1      -2.647  16.532  11.653  1.00  0.00     0.219 HD
ENDBRANCH   7  15
BRANCH   7  17
HETATM   17  N3  UNL     1      -1.713  15.942   9.696  1.00  0.00    -0.345 N 
ATOM     18  H3  UNL     1      -1.749  15.186   9.013  1.00  0.00     0.163 HD
BRANCH  17  19
HETATM   19  C6  UNL     1      -2.355  17.241   9.395  1.00  0.00     0.299 C 
HETATM   20  C7  UNL     1      -1.675  17.863   8.279  1.00  0.00     0.095 C 
HETATM   21  N4  UNL     1      -1.120  18.343   7.385  1.00  0.00    -0.195 NA
BRANCH  19  22
HETATM   22  C8  UNL     1      -3.796  17.034   9.008  1.00  0.00     0.331 C 
HETATM   23  O2  UNL     1      -4.674  17.660   9.703  1.00  0.00    -0.253 OA
HETATM   24  N5  UNL     1      -4.135  16.252   8.008  1.00  0.00    -0.338 NA
HETATM   25  C9  UNL     1      -4.415  15.333   7.287  1.00  0.00     0.278 C 
HETATM   26  N6  UNL     1      -4.774  15.415   5.882  1.00  0.00    -0.052 NA
HETATM   27  N7  UNL     1      -4.416  13.973   7.788  1.00  0.00    -0.052 NA
ENDBRANCH  19  22
ENDBRANCH  17  19
ENDBRANCH   7  17
BRANCH   8  28
HETATM   28  N8  UNL     1       1.134  14.973   9.094  1.00  0.00    -0.179 N 
HETATM   29  C11 UNL     1       1.647  16.045   8.366  1.00  0.00     0.206 C 
HETATM   30  N10 UNL     1       2.081  16.963   7.768  1.00  0.00    -0.170 NA
BRANCH  28  31
HETATM   31  N9  UNL     1       0.477  13.921   8.464  1.00  0.00    -0.328 N 
ATOM     32  H92 UNL     1      -0.375  13.520   8.854  1.00  0.00     0.178 HD
ATOM     33  H91 UNL     1       0.881  13.514   7.620  1.00  0.00     0.178 HD
ENDBRANCH  28  31
ENDBRANCH   8  28
TORSDOF 6
ENDMDL
MODEL 5
REMARK VINA RESULT: -6.192513350      3.603      6.018
REMARK  6 active torsions:
REMARK  status: ('A' for Active; 'I' for Inactive)
REMARK    1  A    between atoms: C5_7  and  O1_8 
REMARK    2  A    between atoms: C5_7  and  N3_10 
REMARK    3  A    between atoms: N3_10  and  C6_12 
REMARK    4  A    between atoms: C6_12  and  C8_15 
REMARK       I    between atoms: C8_15  and  N5_17 
REMARK       I    between atoms: N5_17  and  C9_18 
REMARK    5  A    between atoms: C10_21  and  N8_22 
REMARK    6  A    between atoms: N8_22  and  N9_23 
ROOT
HETATM    1  N1  UNL     1       2.273  11.427   2.582  1.00  0.00    -0.191 NA
HETATM    2  C1  UNL     1       1.991  11.599   3.706  1.00  0.00     0.105 C 
HETATM    3  C2  UNL     1       1.662  11.788   5.092  1.00  0.00     0.113 A 
HETATM    4  C3  UNL     1       0.953  12.890   5.509  1.00  0.00     0.089 A 
HETATM    5  N2  UNL     1       0.545  13.853   4.553  1.00  0.00    -0.100 NA
HETATM    6  C4  UNL     1       0.607  13.111   6.864  1.00  0.00     0.087 A 
HETATM    7  C5  UNL     1      -0.121  14.267   7.217  1.00  0.00     0.153 C 
HETATM    8  C10 UNL     1       1.028  12.152   7.714  1.00  0.00     0.155 A 
HETATM    9  N11 UNL     1       1.740  11.048   7.283  1.00  0.00    -0.325 N 
ATOM     10  H11 UNL     1       2.033  10.356   7.973  1.00  0.00     0.169 HD
HETATM   11  C12 UNL     1       2.060  10.850   6.009  1.00  0.00     0.123 A 
HETATM   12  N12 UNL     1       2.734   9.788   5.654  1.00  0.00    -0.384 N 
ATOM     13 1H12 UNL     1       3.030   9.090   6.337  1.00  0.00     0.157 HD
ATOM     14 2H12 UNL     1       2.979   9.636   4.676  1.00  0.00     0.157 HD
ENDROOT
BRANCH   7  15
HETATM   15  O1  UNL     1      -0.400  15.051   6.181  1.00  0.00    -0.346 OA
ATOM     16  H1  UNL     1       0.365  15.284   5.668  1.00  0.00     0.219 HD
ENDBRANCH   7  15
BRANCH   7  17
HETATM   17  N3  UNL     1      -0.626  14.805   8.381  1.00  0.00    -0.345 N 
ATOM     18  H3  UNL     1      -1.305  14.281   8.932  1.00  0.00     0.163 HD
BRANCH  17  19
HETATM   19  C6  UNL     1      -0.184  16.144   8.832  1.00  0.00     0.299 C 
HETATM   20  C7  UNL     1       1.198  16.344   8.452  1.00  0.00     0.095 C 
HETATM   21  N4  UNL     1       2.302  16.486   8.138  1.00  0.00    -0.195 NA
BRANCH  19  22
HETATM   22  C8  UNL     1      -1.011  17.216   8.172  1.00  0.00     0.331 C 
HETATM   23  O2  UNL     1      -0.444  18.354   7.998  1.00  0.00    -0.253 OA
HETATM   24  N5  UNL     1      -2.249  16.995   7.793  1.00  0.00    -0.338 NA
HETATM   25  C9  UNL     1      -3.439  16.845   7.718  1.00  0.00     0.278 C 
HETATM   26  N6  UNL     1      -4.194  16.502   6.526  1.00  0.00    -0.052 NA
HETATM   27  N7  UNL     1      -4.279  17.002   8.889  1.00  0.00    -0.052 NA
ENDBRANCH  19  22
ENDBRANCH  17  19
ENDBRANCH   7  17
BRANCH   8  28
HETATM   28  N8  UNL     1       0.795  12.183   9.098  1.00  0.00    -0.179 N 
HETATM   29  C11 UNL     1       1.718  12.810   9.933  1.00  0.00     0.206 C 
HETATM   30  N10 UNL     1       2.512  13.341  10.623  1.00  0.00    -0.170 NA
BRANCH  28  31
HETATM   31  N9  UNL     1      -0.322  11.535   9.614  1.00  0.00    -0.328 N 
ATOM     32  H92 UNL     1      -0.240  10.638  10.092  1.00  0.00     0.178 HD
ATOM     33  H91 UNL     1      -1.246  11.943   9.473  1.00  0.00     0.178 HD
ENDBRANCH  28  31
ENDBRANCH   8  28
TORSDOF 6
ENDMDL
