MODEL 1
REMARK VINA RESULT: -6.897220789      0.000      0.000
REMARK  5 active torsions:
REMARK  status: ('A' for Active; 'I' for Inactive)
REMARK    1  A    between atoms: C2_3  and  O1_4 
REMARK    2  A    between atoms: O1_4  and  C3_5 
REMARK    3  A    between atoms: C3_5  and  N2_6 
REMARK    4  A    between atoms: C4_9  and  O2_10 
REMARK    5  A    between atoms: C8_19  and  N5_20 
ROOT
HETATM    1  N1  UNL     1     -11.248 -11.846   5.425  1.00  0.00    -0.195 NA
HETATM    2  C1  UNL     1     -10.578 -12.472   6.134  1.00  0.00     0.085 C 
HETATM    3  C2  UNL     1      -9.733 -13.275   7.023  1.00  0.00     0.293 C 
ENDROOT
BRANCH   3   4
HETATM    4  O1  UNL     1      -8.771 -12.420   7.561  1.00  0.00    -0.357 OA
BRANCH   4   5
HETATM    5  C3  UNL     1      -8.927 -12.456   8.943  1.00  0.00     0.319 C 
BRANCH   5   6
HETATM    6  N2  UNL     1      -8.299 -11.373   9.630  1.00  0.00    -0.249 N 
HETATM    7  N3  UNL     1      -9.011 -10.532  10.400  1.00  0.00    -0.271 N 
HETATM    8  C4  UNL     1      -8.456  -9.511  11.071  1.00  0.00     0.207 A 
ATOM      9  H3  UNL     1     -10.018 -10.677  10.478  1.00  0.00     0.189 HD
HETATM   10  C5  UNL     1      -7.102  -9.319  10.964  1.00  0.00     0.243 A 
HETATM   11  O3  UNL     1      -6.565  -8.368  11.585  1.00  0.00    -0.282 OA
HETATM   12  C6  UNL     1      -6.324 -10.146  10.192  1.00  0.00     0.133 A 
HETATM   13  C7  UNL     1      -4.955  -9.961  10.072  1.00  0.00     0.277 A 
HETATM   14  C9  UNL     1      -6.968 -11.188   9.523  1.00  0.00     0.159 A 
HETATM   15  O4  UNL     1      -4.413  -9.013  10.690  1.00  0.00    -0.266 OA
HETATM   16  N4  UNL     1      -4.292 -10.825   9.287  1.00  0.00    -0.155 N 
HETATM   17  C8  UNL     1      -4.914 -11.829   8.642  1.00  0.00     0.680 A 
ATOM     18  H4  UNL     1      -3.284 -10.716   9.176  1.00  0.00     0.187 HD
HETATM   19  N6  UNL     1      -6.256 -12.017   8.755  1.00  0.00    -0.174 N 
ATOM     20  H6  UNL     1      -6.714 -12.782   8.259  1.00  0.00     0.186 HD
BRANCH   8  21
HETATM   21  O2  UNL     1      -9.267  -8.673  11.857  1.00  0.00    -0.342 OA
ATOM     22  H2  UNL     1      -9.985  -9.047  12.354  1.00  0.00     0.219 HD
ENDBRANCH   8  21
BRANCH  17  23
HETATM   23  N5  UNL     1      -4.283 -12.670   7.881  1.00  0.00    -0.234 N 
ATOM     24  H52 UNL     1      -3.291 -12.796   8.081  1.00  0.00     0.174 HD
ATOM     25  H51 UNL     1      -4.741 -13.180   7.126  1.00  0.00     0.174 HD
ENDBRANCH  17  23
ENDBRANCH   5   6
ENDBRANCH   4   5
ENDBRANCH   3   4
TORSDOF 5
ENDMDL
MODEL 2
REMARK VINA RESULT: -6.804991410      3.641      5.710
REMARK  5 active torsions:
REMARK  status: ('A' for Active; 'I' for Inactive)
REMARK    1  A    between atoms: C2_3  and  O1_4 
REMARK    2  A    between atoms: O1_4  and  C3_5 
REMARK    3  A    between atoms: C3_5  and  N2_6 
REMARK    4  A    between atoms: C4_9  and  O2_10 
REMARK    5  A    between atoms: C8_19  and  N5_20 
ROOT
HETATM    1  N1  UNL     1      -9.737 -19.288   8.953  1.00  0.00    -0.195 NA
HETATM    2  C1  UNL     1      -9.397 -18.466   9.696  1.00  0.00     0.085 C 
HETATM    3  C2  UNL     1      -8.953 -17.430  10.633  1.00  0.00     0.293 C 
ENDROOT
BRANCH   3   4
HETATM    4  O1  UNL     1      -9.921 -16.426  10.628  1.00  0.00    -0.357 OA
BRANCH   4   5
HETATM    5  C3  UNL     1      -9.242 -15.211  10.611  1.00  0.00     0.319 C 
BRANCH   5   6
HETATM    6  N2  UNL     1      -9.545 -14.388   9.483  1.00  0.00    -0.249 N 
HETATM    7  N3  UNL     1      -9.942 -14.927   8.317  1.00  0.00    -0.271 N 
HETATM    8  C4  UNL     1     -10.247 -14.188   7.239  1.00  0.00     0.207 A 
ATOM      9  H3  UNL     1     -10.014 -15.942   8.249  1.00  0.00     0.189 HD
HETATM   10  C5  UNL     1     -10.147 -12.823   7.335  1.00  0.00     0.243 A 
HETATM   11  O3  UNL     1     -10.429 -12.115   6.335  1.00  0.00    -0.282 OA
HETATM   12  C6  UNL     1      -9.747 -12.218   8.500  1.00  0.00     0.133 A 
HETATM   13  C7  UNL     1      -9.639 -10.840   8.609  1.00  0.00     0.277 A 
HETATM   14  C9  UNL     1      -9.446 -13.048   9.580  1.00  0.00     0.159 A 
HETATM   15  O4  UNL     1      -9.919 -10.126   7.614  1.00  0.00    -0.266 OA
HETATM   16  N4  UNL     1      -9.234 -10.353   9.792  1.00  0.00    -0.155 N 
HETATM   17  C8  UNL     1      -8.943 -11.154  10.834  1.00  0.00     0.680 A 
ATOM     18  H4  UNL     1      -9.142  -9.344   9.906  1.00  0.00     0.187 HD
HETATM   19  N6  UNL     1      -9.047 -12.507  10.735  1.00  0.00    -0.174 N 
ATOM     20  H6  UNL     1      -8.823 -13.101  11.533  1.00  0.00     0.186 HD
BRANCH   8  21
HETATM   21  O2  UNL     1     -10.655 -14.825   6.054  1.00  0.00    -0.342 OA
ATOM     22  H2  UNL     1     -11.580 -14.888   5.850  1.00  0.00     0.219 HD
ENDBRANCH   8  21
BRANCH  17  23
HETATM   23  N5  UNL     1      -8.551 -10.696  11.982  1.00  0.00    -0.234 N 
ATOM     24  H52 UNL     1      -8.822  -9.736  12.196  1.00  0.00     0.174 HD
ATOM     25  H51 UNL     1      -8.005 -11.252  12.640  1.00  0.00     0.174 HD
ENDBRANCH  17  23
ENDBRANCH   5   6
ENDBRANCH   4   5
ENDBRANCH   3   4
TORSDOF 5
ENDMDL
MODEL 3
REMARK VINA RESULT: -6.710619786      1.041      1.072
REMARK  5 active torsions:
REMARK  status: ('A' for Active; 'I' for Inactive)
REMARK    1  A    between atoms: C2_3  and  O1_4 
REMARK    2  A    between atoms: O1_4  and  C3_5 
REMARK    3  A    between atoms: C3_5  and  N2_6 
REMARK    4  A    between atoms: C4_9  and  O2_10 
REMARK    5  A    between atoms: C8_19  and  N5_20 
ROOT
HETATM    1  N1  UNL     1     -11.253 -11.864   5.404  1.00  0.00    -0.195 NA
HETATM    2  C1  UNL     1     -10.543 -12.015   6.307  1.00  0.00     0.085 C 
HETATM    3  C2  UNL     1      -9.640 -12.218   7.444  1.00  0.00     0.293 C 
ENDROOT
BRANCH   3   4
HETATM    4  O1  UNL     1      -9.313 -10.957   7.942  1.00  0.00    -0.357 OA
BRANCH   4   5
HETATM    5  C3  UNL     1      -9.157 -11.095   9.318  1.00  0.00     0.319 C 
BRANCH   5   6
HETATM    6  N2  UNL     1      -8.137 -10.266   9.876  1.00  0.00    -0.249 N 
HETATM    7  N3  UNL     1      -8.446  -9.171  10.593  1.00  0.00    -0.271 N 
HETATM    8  C4  UNL     1      -7.517  -8.374  11.143  1.00  0.00     0.207 A 
ATOM      9  H3  UNL     1      -9.429  -8.935  10.723  1.00  0.00     0.189 HD
HETATM   10  C5  UNL     1      -6.194  -8.694  10.965  1.00  0.00     0.243 A 
HETATM   11  O3  UNL     1      -5.311  -7.959  11.473  1.00  0.00    -0.282 OA
HETATM   12  C6  UNL     1      -5.820  -9.799  10.243  1.00  0.00     0.133 A 
HETATM   13  C7  UNL     1      -4.487 -10.132  10.052  1.00  0.00     0.277 A 
HETATM   14  C9  UNL     1      -6.839 -10.583   9.700  1.00  0.00     0.159 A 
HETATM   15  O4  UNL     1      -3.599  -9.402  10.557  1.00  0.00    -0.266 OA
HETATM   16  N4  UNL     1      -4.233 -11.232   9.325  1.00  0.00    -0.155 N 
HETATM   17  C8  UNL     1      -5.216 -11.987   8.801  1.00  0.00     0.680 A 
ATOM     18  H4  UNL     1      -3.264 -11.504   9.165  1.00  0.00     0.187 HD
HETATM   19  N6  UNL     1      -6.526 -11.667   8.984  1.00  0.00    -0.174 N 
ATOM     20  H6  UNL     1      -7.261 -12.248   8.580  1.00  0.00     0.186 HD
BRANCH   8  21
HETATM   21  O2  UNL     1      -7.917  -7.245  11.879  1.00  0.00    -0.342 OA
ATOM     22  H2  UNL     1      -7.423  -6.986  12.647  1.00  0.00     0.219 HD
ENDBRANCH   8  21
BRANCH  17  23
HETATM   23  N5  UNL     1      -4.983 -13.051   8.098  1.00  0.00    -0.234 N 
ATOM     24  H52 UNL     1      -4.705 -13.881   8.622  1.00  0.00     0.174 HD
ATOM     25  H51 UNL     1      -5.070 -13.070   7.082  1.00  0.00     0.174 HD
ENDBRANCH  17  23
ENDBRANCH   5   6
ENDBRANCH   4   5
ENDBRANCH   3   4
TORSDOF 5
ENDMDL
MODEL 4
REMARK VINA RESULT: -6.701633321      2.271      5.102
REMARK  5 active torsions:
REMARK  status: ('A' for Active; 'I' for Inactive)
REMARK    1  A    between atoms: C2_3  and  O1_4 
REMARK    2  A    between atoms: O1_4  and  C3_5 
REMARK    3  A    between atoms: C3_5  and  N2_6 
REMARK    4  A    between atoms: C4_9  and  O2_10 
REMARK    5  A    between atoms: C8_19  and  N5_20 
ROOT
HETATM    1  N1  UNL     1      -2.333  -9.586  10.699  1.00  0.00    -0.195 NA
HETATM    2  C1  UNL     1      -2.571 -10.379   9.889  1.00  0.00     0.085 C 
HETATM    3  C2  UNL     1      -2.858 -11.388   8.865  1.00  0.00     0.293 C 
ENDROOT
BRANCH   3   4
HETATM    4  O1  UNL     1      -4.191 -11.768   9.022  1.00  0.00    -0.357 OA
BRANCH   4   5
HETATM    5  C3  UNL     1      -4.957 -10.865   8.292  1.00  0.00     0.319 C 
BRANCH   5   6
HETATM    6  N2  UNL     1      -6.298 -10.721   8.764  1.00  0.00    -0.249 N 
HETATM    7  N3  UNL     1      -7.336 -11.218   8.069  1.00  0.00    -0.271 N 
HETATM    8  C4  UNL     1      -8.608 -11.114   8.484  1.00  0.00     0.207 A 
ATOM      9  H3  UNL     1      -7.148 -11.694   7.187  1.00  0.00     0.189 HD
HETATM   10  C5  UNL     1      -8.856 -10.472   9.671  1.00  0.00     0.243 A 
HETATM   11  O3  UNL     1     -10.041 -10.366  10.076  1.00  0.00    -0.282 OA
HETATM   12  C6  UNL     1      -7.836  -9.945  10.423  1.00  0.00     0.133 A 
HETATM   13  C7  UNL     1      -8.073  -9.291  11.622  1.00  0.00     0.277 A 
HETATM   14  C9  UNL     1      -6.538 -10.090   9.930  1.00  0.00     0.159 A 
HETATM   15  O4  UNL     1      -9.254  -9.181  12.032  1.00  0.00    -0.266 OA
HETATM   16  N4  UNL     1      -7.003  -8.809  12.274  1.00  0.00    -0.155 N 
HETATM   17  C8  UNL     1      -5.752  -8.949  11.798  1.00  0.00     0.680 A 
ATOM     18  H4  UNL     1      -7.142  -8.321  13.159  1.00  0.00     0.187 HD
HETATM   19  N6  UNL     1      -5.510  -9.590  10.622  1.00  0.00    -0.174 N 
ATOM     20  H6  UNL     1      -4.557  -9.687  10.274  1.00  0.00     0.186 HD
BRANCH   8  21
HETATM   21  O2  UNL     1      -9.641 -11.660   7.702  1.00  0.00    -0.342 OA
ATOM     22  H2  UNL     1      -9.529 -12.517   7.309  1.00  0.00     0.219 HD
ENDBRANCH   8  21
BRANCH  17  23
HETATM   23  N5  UNL     1      -4.710  -8.488  12.419  1.00  0.00    -0.234 N 
ATOM     24  H52 UNL     1      -4.366  -9.054  13.194  1.00  0.00     0.174 HD
ATOM     25  H51 UNL     1      -4.255  -7.614  12.157  1.00  0.00     0.174 HD
ENDBRANCH  17  23
ENDBRANCH   5   6
ENDBRANCH   4   5
ENDBRANCH   3   4
TORSDOF 5
ENDMDL
MODEL 5
REMARK VINA RESULT: -6.693435187      2.526      5.722
REMARK  5 active torsions:
REMARK  status: ('A' for Active; 'I' for Inactive)
REMARK    1  A    between atoms: C2_3  and  O1_4 
REMARK    2  A    between atoms: O1_4  and  C3_5 
REMARK    3  A    between atoms: C3_5  and  N2_6 
REMARK    4  A    between atoms: C4_9  and  O2_10 
REMARK    5  A    between atoms: C8_19  and  N5_20 
ROOT
HETATM    1  N1  UNL     1      -8.746  -8.480  11.816  1.00  0.00    -0.195 NA
HETATM    2  C1  UNL     1      -7.780  -9.116  11.743  1.00  0.00     0.085 C 
HETATM    3  C2  UNL     1      -6.557  -9.921  11.665  1.00  0.00     0.293 C 
ENDROOT
BRANCH   3   4
HETATM    4  O1  UNL     1      -6.596 -10.614  10.455  1.00  0.00    -0.357 OA
BRANCH   4   5
HETATM    5  C3  UNL     1      -7.493 -11.665  10.621  1.00  0.00     0.319 C 
BRANCH   5   6
HETATM    6  N2  UNL     1      -8.355 -11.878   9.503  1.00  0.00    -0.249 N 
HETATM    7  N3  UNL     1      -8.696 -10.866   8.685  1.00  0.00    -0.271 N 
HETATM    8  C4  UNL     1      -9.493 -11.028   7.618  1.00  0.00     0.207 A 
ATOM      9  H3  UNL     1      -8.332  -9.935   8.886  1.00  0.00     0.189 HD
HETATM   10  C5  UNL     1      -9.981 -12.283   7.353  1.00  0.00     0.243 A 
HETATM   11  O3  UNL     1     -10.729 -12.453   6.357  1.00  0.00    -0.282 OA
HETATM   12  C6  UNL     1      -9.667 -13.353   8.152  1.00  0.00     0.133 A 
HETATM   13  C7  UNL     1     -10.156 -14.625   7.898  1.00  0.00     0.277 A 
HETATM   14  C9  UNL     1      -8.833 -13.112   9.244  1.00  0.00     0.159 A 
HETATM   15  O4  UNL     1     -10.904 -14.802   6.905  1.00  0.00    -0.266 OA
HETATM   16  N4  UNL     1      -9.791 -15.599   8.747  1.00  0.00    -0.155 N 
HETATM   17  C8  UNL     1      -8.986 -15.365   9.800  1.00  0.00     0.680 A 
ATOM     18  H4  UNL     1     -10.134 -16.546   8.589  1.00  0.00     0.187 HD
HETATM   19  N6  UNL     1      -8.502 -14.120  10.057  1.00  0.00    -0.174 N 
ATOM     20  H6  UNL     1      -7.894 -13.958  10.859  1.00  0.00     0.186 HD
BRANCH   8  21
HETATM   21  O2  UNL     1      -9.805  -9.921   6.809  1.00  0.00    -0.342 OA
ATOM     22  H2  UNL     1      -9.284  -9.745   6.035  1.00  0.00     0.219 HD
ENDBRANCH   8  21
BRANCH  17  23
HETATM   23  N5  UNL     1      -8.626 -16.297  10.627  1.00  0.00    -0.234 N 
ATOM     24  H52 UNL     1      -8.056 -15.997  11.417  1.00  0.00     0.174 HD
ATOM     25  H51 UNL     1      -8.890 -17.275  10.504  1.00  0.00     0.174 HD
ENDBRANCH  17  23
ENDBRANCH   5   6
ENDBRANCH   4   5
ENDBRANCH   3   4
TORSDOF 5
ENDMDL
