MODEL 1
REMARK VINA RESULT: -6.898694323      0.000      0.000
REMARK  6 active torsions:
REMARK  status: ('A' for Active; 'I' for Inactive)
REMARK    1  A    between atoms: C3_6  and  N3_7 
REMARK    2  A    between atoms: N3_7  and  C4_9 
REMARK    3  A    between atoms: C4_9  and  O1_10 
REMARK    4  A    between atoms: C4_9  and  C5_12 
REMARK    5  A    between atoms: C5_12  and  N4_13 
REMARK    6  A    between atoms: C8_23  and  N8_24 
ROOT
HETATM    1  N1  UNL     1     -13.635 -15.844  10.853  1.00  0.00    -0.188 NA
HETATM    2  C1  UNL     1     -12.526 -15.571  10.672  1.00  0.00     0.138 C 
HETATM    3  C2  UNL     1     -11.148 -15.227  10.469  1.00  0.00     0.217 A 
HETATM    4  N2  UNL     1     -10.741 -13.961  10.542  1.00  0.00    -0.166 N 
ATOM      5  H2  UNL     1     -11.410 -13.218  10.743  1.00  0.00     0.186 HD
HETATM    6  C3  UNL     1      -9.435 -13.665  10.347  1.00  0.00     0.696 A 
HETATM    7  N7  UNL     1      -8.571 -14.658  10.082  1.00  0.00    -0.022 N 
ATOM      8  H7  UNL     1      -7.587 -14.430   9.936  1.00  0.00     0.203 HD
HETATM    9  C8  UNL     1      -8.951 -15.924  10.005  1.00  0.00     0.692 A 
HETATM   10  N9  UNL     1     -10.260 -16.198  10.203  1.00  0.00    -0.166 N 
ATOM     11  H9  UNL     1     -10.580 -17.165  10.150  1.00  0.00     0.186 HD
ENDROOT
BRANCH   6  12
HETATM   12  N3  UNL     1      -9.109 -12.425  10.431  1.00  0.00    -0.197 N 
ATOM     13  H3  UNL     1      -9.565 -11.843  11.133  1.00  0.00     0.180 HD
BRANCH  12  14
HETATM   14  C4  UNL     1      -8.108 -11.822   9.557  1.00  0.00     0.254 C 
BRANCH  14  15
HETATM   15  O1  UNL     1      -6.822 -12.010  10.000  1.00  0.00    -0.374 OA
ATOM     16  H1  UNL     1      -6.307 -11.211   9.997  1.00  0.00     0.212 HD
ENDBRANCH  14  15
BRANCH  14  17
HETATM   17  C5  UNL     1      -8.474 -10.347   9.461  1.00  0.00     0.208 C 
BRANCH  17  18
HETATM   18  N4  UNL     1      -7.786  -9.559  10.439  1.00  0.00    -0.237 N 
HETATM   19  N5  UNL     1      -6.602  -9.001  10.247  1.00  0.00    -0.290 N 
HETATM   20  C6  UNL     1      -6.227  -8.330  11.347  1.00  0.00     0.201 A 
ATOM     21  H5  UNL     1      -6.055  -9.070   9.390  1.00  0.00     0.188 HD
HETATM   22  N6  UNL     1      -7.227  -8.499  12.222  1.00  0.00    -0.302 N 
HETATM   23  C7  UNL     1      -8.193  -9.254  11.674  1.00  0.00     0.342 A 
ATOM     24  H6  UNL     1      -7.251  -8.111  13.165  1.00  0.00     0.171 HD
HETATM   25  O2  UNL     1      -9.285  -9.599  12.247  1.00  0.00    -0.245 OA
ENDBRANCH  17  18
ENDBRANCH  14  17
ENDBRANCH  12  14
ENDBRANCH   6  12
BRANCH   9  26
HETATM   26  N8  UNL     1      -8.172 -16.915   9.756  1.00  0.00    -0.234 N 
ATOM     27  H82 UNL     1      -8.307 -17.764  10.303  1.00  0.00     0.174 HD
ATOM     28  H81 UNL     1      -7.431 -16.916   9.055  1.00  0.00     0.174 HD
ENDBRANCH   9  26
TORSDOF 6
ENDMDL
MODEL 2
REMARK VINA RESULT: -6.881793714      2.659      3.293
REMARK  6 active torsions:
REMARK  status: ('A' for Active; 'I' for Inactive)
REMARK    1  A    between atoms: C3_6  and  N3_7 
REMARK    2  A    between atoms: N3_7  and  C4_9 
REMARK    3  A    between atoms: C4_9  and  O1_10 
REMARK    4  A    between atoms: C4_9  and  C5_12 
REMARK    5  A    between atoms: C5_12  and  N4_13 
REMARK    6  A    between atoms: C8_23  and  N8_24 
ROOT
HETATM    1  N1  UNL     1     -11.517 -11.673   5.093  1.00  0.00    -0.188 NA
HETATM    2  C1  UNL     1     -10.898 -12.264   5.871  1.00  0.00     0.138 C 
HETATM    3  C2  UNL     1     -10.134 -12.981   6.851  1.00  0.00     0.217 A 
HETATM    4  N2  UNL     1      -9.007 -12.472   7.349  1.00  0.00    -0.166 N 
ATOM      5  H2  UNL     1      -8.674 -11.562   7.033  1.00  0.00     0.186 HD
HETATM    6  C3  UNL     1      -8.308 -13.170   8.273  1.00  0.00     0.696 A 
HETATM    7  N7  UNL     1      -8.765 -14.368   8.673  1.00  0.00    -0.022 N 
ATOM      8  H7  UNL     1      -8.234 -14.890   9.370  1.00  0.00     0.203 HD
HETATM    9  C8  UNL     1      -9.881 -14.894   8.195  1.00  0.00     0.692 A 
HETATM   10  N9  UNL     1     -10.565 -14.181   7.272  1.00  0.00    -0.166 N 
ATOM     11  H9  UNL     1     -11.429 -14.563   6.887  1.00  0.00     0.186 HD
ENDROOT
BRANCH   6  12
HETATM   12  N3  UNL     1      -7.232 -12.622   8.711  1.00  0.00    -0.197 N 
ATOM     13  H3  UNL     1      -6.359 -12.780   8.208  1.00  0.00     0.180 HD
BRANCH  12  14
HETATM   14  C4  UNL     1      -7.216 -11.782   9.904  1.00  0.00     0.254 C 
BRANCH  14  15
HETATM   15  O1  UNL     1      -8.377 -11.860  10.633  1.00  0.00    -0.374 OA
ATOM     16  H1  UNL     1      -8.723 -12.743  10.689  1.00  0.00     0.212 HD
ENDBRANCH  14  15
BRANCH  14  17
HETATM   17  C5  UNL     1      -6.939 -10.367   9.413  1.00  0.00     0.208 C 
BRANCH  17  18
HETATM   18  N4  UNL     1      -7.191  -9.388  10.428  1.00  0.00    -0.237 N 
HETATM   19  N5  UNL     1      -8.395  -9.067  10.872  1.00  0.00    -0.290 N 
HETATM   20  C6  UNL     1      -8.299  -8.122  11.819  1.00  0.00     0.201 A 
ATOM     21  H5  UNL     1      -9.268  -9.478  10.542  1.00  0.00     0.188 HD
HETATM   22  N6  UNL     1      -6.988  -7.875  11.939  1.00  0.00    -0.302 N 
HETATM   23  C7  UNL     1      -6.295  -8.649  11.088  1.00  0.00     0.342 A 
ATOM     24  H6  UNL     1      -6.577  -7.198  12.582  1.00  0.00     0.171 HD
HETATM   25  O2  UNL     1      -5.022  -8.657  10.955  1.00  0.00    -0.245 OA
ENDBRANCH  17  18
ENDBRANCH  14  17
ENDBRANCH  12  14
ENDBRANCH   6  12
BRANCH   9  26
HETATM   26  N8  UNL     1     -10.367 -16.033   8.539  1.00  0.00    -0.234 N 
ATOM     27  H82 UNL     1      -9.714 -16.810   8.634  1.00  0.00     0.174 HD
ATOM     28  H81 UNL     1     -11.353 -16.217   8.723  1.00  0.00     0.174 HD
ENDBRANCH   9  26
TORSDOF 6
ENDMDL
MODEL 3
REMARK VINA RESULT: -6.871862433      1.905      3.432
REMARK  6 active torsions:
REMARK  status: ('A' for Active; 'I' for Inactive)
REMARK    1  A    between atoms: C3_6  and  N3_7 
REMARK    2  A    between atoms: N3_7  and  C4_9 
REMARK    3  A    between atoms: C4_9  and  O1_10 
REMARK    4  A    between atoms: C4_9  and  C5_12 
REMARK    5  A    between atoms: C5_12  and  N4_13 
REMARK    6  A    between atoms: C8_23  and  N8_24 
ROOT
HETATM    1  N1  UNL     1      -9.156 -15.647  11.110  1.00  0.00    -0.188 NA
HETATM    2  C1  UNL     1      -9.282 -14.664  10.514  1.00  0.00     0.138 C 
HETATM    3  C2  UNL     1      -9.416 -13.440   9.777  1.00  0.00     0.217 A 
HETATM    4  N2  UNL     1      -9.238 -12.260  10.370  1.00  0.00    -0.166 N 
ATOM      5  H2  UNL     1      -9.005 -12.216  11.362  1.00  0.00     0.186 HD
HETATM    6  C3  UNL     1      -9.370 -11.122   9.651  1.00  0.00     0.696 A 
HETATM    7  N7  UNL     1      -9.679 -11.204   8.347  1.00  0.00    -0.022 N 
ATOM      8  H7  UNL     1      -9.777 -10.343   7.809  1.00  0.00     0.203 HD
HETATM    9  C8  UNL     1      -9.860 -12.363   7.735  1.00  0.00     0.692 A 
HETATM   10  N9  UNL     1      -9.724 -13.489   8.471  1.00  0.00    -0.166 N 
ATOM     11  H9  UNL     1      -9.858 -14.396   8.024  1.00  0.00     0.186 HD
ENDROOT
BRANCH   6  12
HETATM   12  N3  UNL     1      -9.185 -10.020  10.284  1.00  0.00    -0.197 N 
ATOM     13  H3  UNL     1      -9.525  -9.152   9.870  1.00  0.00     0.180 HD
BRANCH  12  14
HETATM   14  C4  UNL     1      -8.506  -9.967  11.574  1.00  0.00     0.254 C 
BRANCH  14  15
HETATM   15  O1  UNL     1      -9.373  -9.949  12.639  1.00  0.00    -0.374 OA
ATOM     16  H1  UNL     1     -10.103 -10.550  12.535  1.00  0.00     0.212 HD
ENDBRANCH  14  15
BRANCH  14  17
HETATM   17  C5  UNL     1      -7.625  -8.725  11.530  1.00  0.00     0.208 C 
BRANCH  17  18
HETATM   18  N4  UNL     1      -6.233  -9.058  11.462  1.00  0.00    -0.237 N 
HETATM   19  N5  UNL     1      -5.356  -8.795  12.417  1.00  0.00    -0.290 N 
HETATM   20  C6  UNL     1      -4.140  -9.229  12.056  1.00  0.00     0.201 A 
ATOM     21  H5  UNL     1      -5.574  -8.331  13.298  1.00  0.00     0.188 HD
HETATM   22  N6  UNL     1      -4.304  -9.768  10.841  1.00  0.00    -0.302 N 
HETATM   23  C7  UNL     1      -5.589  -9.669  10.464  1.00  0.00     0.342 A 
ATOM     24  H6  UNL     1      -3.562 -10.192  10.283  1.00  0.00     0.171 HD
HETATM   25  O2  UNL     1      -6.076 -10.089   9.357  1.00  0.00    -0.245 OA
ENDBRANCH  17  18
ENDBRANCH  14  17
ENDBRANCH  12  14
ENDBRANCH   6  12
BRANCH   9  26
HETATM   26  N8  UNL     1     -10.156 -12.504   6.492  1.00  0.00    -0.234 N 
ATOM     27  H82 UNL     1     -10.574 -11.703   6.018  1.00  0.00     0.174 HD
ATOM     28  H81 UNL     1     -10.006 -13.352   5.947  1.00  0.00     0.174 HD
ENDBRANCH   9  26
TORSDOF 6
ENDMDL
MODEL 4
REMARK VINA RESULT: -6.871418298      1.694      2.690
REMARK  6 active torsions:
REMARK  status: ('A' for Active; 'I' for Inactive)
REMARK    1  A    between atoms: C3_6  and  N3_7 
REMARK    2  A    between atoms: N3_7  and  C4_9 
REMARK    3  A    between atoms: C4_9  and  O1_10 
REMARK    4  A    between atoms: C4_9  and  C5_12 
REMARK    5  A    between atoms: C5_12  and  N4_13 
REMARK    6  A    between atoms: C8_23  and  N8_24 
ROOT
HETATM    1  N1  UNL     1     -11.866 -15.523  11.023  1.00  0.00    -0.188 NA
HETATM    2  C1  UNL     1     -11.089 -14.821  10.531  1.00  0.00     0.138 C 
HETATM    3  C2  UNL     1     -10.115 -13.950   9.941  1.00  0.00     0.217 A 
HETATM    4  N2  UNL     1      -9.976 -12.692  10.361  1.00  0.00    -0.166 N 
ATOM      5  H2  UNL     1     -10.567 -12.335  11.111  1.00  0.00     0.186 HD
HETATM    6  C3  UNL     1      -9.049 -11.892   9.786  1.00  0.00     0.696 A 
HETATM    7  N7  UNL     1      -8.282 -12.383   8.799  1.00  0.00    -0.022 N 
ATOM      8  H7  UNL     1      -7.584 -11.776   8.369  1.00  0.00     0.203 HD
HETATM    9  C8  UNL     1      -8.400 -13.628   8.364  1.00  0.00     0.692 A 
HETATM   10  N9  UNL     1      -9.333 -14.411   8.952  1.00  0.00    -0.166 N 
ATOM     11  H9  UNL     1      -9.445 -15.374   8.636  1.00  0.00     0.186 HD
ENDROOT
BRANCH   6  12
HETATM   12  N3  UNL     1      -8.967 -10.693  10.238  1.00  0.00    -0.197 N 
ATOM     13  H3  UNL     1      -9.305  -9.925   9.660  1.00  0.00     0.180 HD
BRANCH  12  14
HETATM   14  C4  UNL     1      -8.405 -10.393  11.552  1.00  0.00     0.254 C 
BRANCH  14  15
HETATM   15  O1  UNL     1      -9.356 -10.315  12.539  1.00  0.00    -0.374 OA
ATOM     16  H1  UNL     1      -8.990 -10.371  13.414  1.00  0.00     0.212 HD
ENDBRANCH  14  15
BRANCH  14  17
HETATM   17  C5  UNL     1      -7.639  -9.086  11.388  1.00  0.00     0.208 C 
BRANCH  17  18
HETATM   18  N4  UNL     1      -6.223  -9.298  11.338  1.00  0.00    -0.237 N 
HETATM   19  N5  UNL     1      -5.386  -8.970  12.309  1.00  0.00    -0.290 N 
HETATM   20  C6  UNL     1      -4.131  -9.295  11.963  1.00  0.00     0.201 A 
ATOM     21  H5  UNL     1      -5.655  -8.533  13.190  1.00  0.00     0.188 HD
HETATM   22  N6  UNL     1      -4.231  -9.835  10.741  1.00  0.00    -0.302 N 
HETATM   23  C7  UNL     1      -5.514  -9.844  10.346  1.00  0.00     0.342 A 
ATOM     24  H6  UNL     1      -3.447 -10.189  10.192  1.00  0.00     0.171 HD
HETATM   25  O2  UNL     1      -5.947 -10.294   9.229  1.00  0.00    -0.245 OA
ENDBRANCH  17  18
ENDBRANCH  14  17
ENDBRANCH  12  14
ENDBRANCH   6  12
BRANCH   9  26
HETATM   26  N8  UNL     1      -7.697 -14.152   7.425  1.00  0.00    -0.234 N 
ATOM     27  H82 UNL     1      -6.721 -13.866   7.358  1.00  0.00     0.174 HD
ATOM     28  H81 UNL     1      -8.040 -14.830   6.745  1.00  0.00     0.174 HD
ENDBRANCH   9  26
TORSDOF 6
ENDMDL
MODEL 5
REMARK VINA RESULT: -6.864120412      1.530      1.680
REMARK  6 active torsions:
REMARK  status: ('A' for Active; 'I' for Inactive)
REMARK    1  A    between atoms: C3_6  and  N3_7 
REMARK    2  A    between atoms: N3_7  and  C4_9 
REMARK    3  A    between atoms: C4_9  and  O1_10 
REMARK    4  A    between atoms: C4_9  and  C5_12 
REMARK    5  A    between atoms: C5_12  and  N4_13 
REMARK    6  A    between atoms: C8_23  and  N8_24 
ROOT
HETATM    1  N1  UNL     1     -14.481 -15.651  10.902  1.00  0.00    -0.188 NA
HETATM    2  C1  UNL     1     -13.345 -15.612  10.690  1.00  0.00     0.138 C 
HETATM    3  C2  UNL     1     -11.932 -15.563  10.448  1.00  0.00     0.217 A 
HETATM    4  N2  UNL     1     -11.218 -14.487  10.776  1.00  0.00    -0.166 N 
ATOM      5  H2  UNL     1     -11.673 -13.680  11.203  1.00  0.00     0.186 HD
HETATM    6  C3  UNL     1      -9.886 -14.468  10.537  1.00  0.00     0.696 A 
HETATM    7  N7  UNL     1      -9.307 -15.540   9.972  1.00  0.00    -0.022 N 
ATOM      8  H7  UNL     1      -8.303 -15.521   9.794  1.00  0.00     0.203 HD
HETATM    9  C8  UNL     1      -9.995 -16.620   9.637  1.00  0.00     0.692 A 
HETATM   10  N9  UNL     1     -11.324 -16.619   9.884  1.00  0.00    -0.166 N 
ATOM     11  H9  UNL     1     -11.878 -17.439   9.637  1.00  0.00     0.186 HD
ENDROOT
BRANCH   6  12
HETATM   12  N3  UNL     1      -9.257 -13.401  10.877  1.00  0.00    -0.197 N 
ATOM     13  H3  UNL     1      -8.756 -13.387  11.765  1.00  0.00     0.180 HD
BRANCH  12  14
HETATM   14  C4  UNL     1      -9.236 -12.208  10.036  1.00  0.00     0.254 C 
BRANCH  14  15
HETATM   15  O1  UNL     1      -9.587 -12.462   8.734  1.00  0.00    -0.374 OA
ATOM     16  H1  UNL     1     -10.452 -12.135   8.510  1.00  0.00     0.212 HD
ENDBRANCH  14  15
BRANCH  14  17
HETATM   17  C5  UNL     1      -7.826 -11.642  10.153  1.00  0.00     0.208 C 
BRANCH  17  18
HETATM   18  N4  UNL     1      -7.800 -10.417  10.894  1.00  0.00    -0.237 N 
HETATM   19  N5  UNL     1      -8.787  -9.537  10.915  1.00  0.00    -0.290 N 
HETATM   20  C6  UNL     1      -8.461  -8.499  11.699  1.00  0.00     0.201 A 
ATOM     21  H5  UNL     1      -9.668  -9.634  10.409  1.00  0.00     0.188 HD
HETATM   22  N6  UNL     1      -7.233  -8.775  12.158  1.00  0.00    -0.302 N 
HETATM   23  C7  UNL     1      -6.815  -9.955  11.670  1.00  0.00     0.342 A 
ATOM     24  H6  UNL     1      -6.696  -8.178  12.786  1.00  0.00     0.171 HD
HETATM   25  O2  UNL     1      -5.687 -10.506  11.917  1.00  0.00    -0.245 OA
ENDBRANCH  17  18
ENDBRANCH  14  17
ENDBRANCH  12  14
ENDBRANCH   6  12
BRANCH   9  26
HETATM   26  N8  UNL     1      -9.497 -17.674   9.095  1.00  0.00    -0.234 N 
ATOM     27  H82 UNL     1      -9.026 -18.337   9.709  1.00  0.00     0.174 HD
ATOM     28  H81 UNL     1      -9.537 -17.895   8.100  1.00  0.00     0.174 HD
ENDBRANCH   9  26
TORSDOF 6
ENDMDL
