MODEL 1
REMARK VINA RESULT: -7.390832083      0.000      0.000
REMARK  5 active torsions:
REMARK  status: ('A' for Active; 'I' for Inactive)
REMARK    1  A    between atoms: N1_1  and  C1_4 
REMARK    2  A    between atoms: C2_9  and  C3_10 
REMARK    3  A    between atoms: N4_12  and  N5_13 
REMARK    4  A    between atoms: C5_21  and  C6_22 
REMARK    5  A    between atoms: N9_23  and  N10_25 
ROOT
HETATM    1  C1  UNL     1     -10.257 -12.256   6.819  1.00  0.00     0.142 A 
HETATM    2  N2  UNL     1     -10.084 -10.924   6.900  1.00  0.00    -0.282 N 
ATOM      3  H2  UNL     1     -10.427 -10.329   6.145  1.00  0.00     0.188 HD
HETATM    4  N3  UNL     1      -9.475 -10.364   7.945  1.00  0.00    -0.282 N 
ATOM      5  H3  UNL     1      -9.369  -9.350   7.962  1.00  0.00     0.188 HD
HETATM    6  C2  UNL     1      -8.995 -11.078   8.980  1.00  0.00     0.150 A 
HETATM    7  N8  UNL     1      -9.164 -12.412   8.908  1.00  0.00    -0.335 N 
ATOM      8  H8  UNL     1      -8.816 -12.993   9.670  1.00  0.00     0.168 HD
HETATM    9  C5  UNL     1      -9.774 -13.006   7.866  1.00  0.00     0.096 A 
ENDROOT
BRANCH   6  10
HETATM   10  C3  UNL     1      -8.330 -10.442  10.118  1.00  0.00     0.110 A 
HETATM   11  C4  UNL     1      -7.127 -10.771  10.701  1.00  0.00     0.168 A 
HETATM   12  N4  UNL     1      -6.879  -9.926  11.730  1.00  0.00    -0.196 N 
HETATM   13  N6  UNL     1      -7.912  -9.101  11.771  1.00  0.00     0.000 NA
HETATM   14  N7  UNL     1      -8.790  -9.396  10.812  1.00  0.00    -0.277 N 
ATOM     15  H7  UNL     1      -9.667  -8.905  10.638  1.00  0.00     0.184 HD
BRANCH  12  16
HETATM   16  N5  UNL     1      -5.751  -9.933  12.575  1.00  0.00    -0.326 N 
ATOM     17  H52 UNL     1      -4.839  -9.515  12.397  1.00  0.00     0.178 HD
ATOM     18  H51 UNL     1      -5.682 -10.364  13.497  1.00  0.00     0.178 HD
ENDBRANCH  12  16
ENDBRANCH   6  10
BRANCH   9  19
HETATM   19  C6  UNL     1      -9.936 -14.455   7.828  1.00  0.00     0.140 C 
HETATM   20  N9  UNL     1     -10.014 -15.178   8.887  1.00  0.00    -0.307 N 
ATOM     21  H9  UNL     1      -9.961 -14.723   9.798  1.00  0.00     0.186 HD
BRANCH  20  22
HETATM   22  N10 UNL     1     -10.166 -16.552   8.834  1.00  0.00    -0.276 N 
HETATM   23  C7  UNL     1      -9.705 -17.384   9.692  1.00  0.00     0.215 C 
HETATM   24  N11 UNL     1      -9.953 -18.757   9.486  1.00  0.00    -0.065 NA
HETATM   25  N12 UNL     1      -8.959 -16.933  10.824  1.00  0.00    -0.065 NA
ATOM     26  H10 UNL     1     -10.691 -16.934   8.047  1.00  0.00     0.189 HD
ENDBRANCH  20  22
ENDBRANCH   9  19
BRANCH   1  27
HETATM   27  N1  UNL     1     -10.849 -12.778   5.797  1.00  0.00    -0.383 N 
ATOM     28  H12 UNL     1     -11.394 -12.228   5.132  1.00  0.00     0.157 HD
ATOM     29  H11 UNL     1     -10.788 -13.781   5.620  1.00  0.00     0.157 HD
ENDBRANCH   1  27
TORSDOF 5
ENDMDL
MODEL 2
REMARK VINA RESULT: -7.388297041      2.857      3.719
REMARK  5 active torsions:
REMARK  status: ('A' for Active; 'I' for Inactive)
REMARK    1  A    between atoms: N1_1  and  C1_4 
REMARK    2  A    between atoms: C2_9  and  C3_10 
REMARK    3  A    between atoms: N4_12  and  N5_13 
REMARK    4  A    between atoms: C5_21  and  C6_22 
REMARK    5  A    between atoms: N9_23  and  N10_25 
ROOT
HETATM    1  C1  UNL     1      -9.184 -15.733   9.694  1.00  0.00     0.142 A 
HETATM    2  N2  UNL     1      -7.958 -15.180   9.704  1.00  0.00    -0.282 N 
ATOM      3  H2  UNL     1      -7.142 -15.773   9.551  1.00  0.00     0.188 HD
HETATM    4  N3  UNL     1      -7.786 -13.874   9.908  1.00  0.00    -0.282 N 
ATOM      5  H3  UNL     1      -6.836 -13.501   9.906  1.00  0.00     0.188 HD
HETATM    6  C2  UNL     1      -8.809 -13.026  10.118  1.00  0.00     0.150 A 
HETATM    7  N8  UNL     1     -10.040 -13.570  10.110  1.00  0.00    -0.335 N 
ATOM      8  H8  UNL     1     -10.846 -12.964  10.264  1.00  0.00     0.168 HD
HETATM    9  C5  UNL     1     -10.247 -14.884   9.906  1.00  0.00     0.096 A 
ENDROOT
BRANCH   6  10
HETATM   10  C3  UNL     1      -8.596 -11.595  10.340  1.00  0.00     0.110 A 
HETATM   11  C4  UNL     1      -8.338 -10.941  11.524  1.00  0.00     0.168 A 
HETATM   12  N4  UNL     1      -8.206  -9.614  11.286  1.00  0.00    -0.196 N 
HETATM   13  N6  UNL     1      -8.379  -9.466   9.983  1.00  0.00     0.000 NA
HETATM   14  N7  UNL     1      -8.614 -10.643   9.402  1.00  0.00    -0.277 N 
ATOM     15  H7  UNL     1      -8.780 -10.791   8.407  1.00  0.00     0.184 HD
BRANCH  12  16
HETATM   16  N5  UNL     1      -7.937  -8.609  12.236  1.00  0.00    -0.326 N 
ATOM     17  H52 UNL     1      -7.804  -8.722  13.241  1.00  0.00     0.178 HD
ATOM     18  H51 UNL     1      -7.838  -7.610  12.057  1.00  0.00     0.178 HD
ENDBRANCH  12  16
ENDBRANCH   6  10
BRANCH   9  19
HETATM   19  C6  UNL     1     -11.597 -15.433   9.906  1.00  0.00     0.140 C 
HETATM   20  N9  UNL     1     -12.460 -15.167  10.820  1.00  0.00    -0.307 N 
ATOM     21  H9  UNL     1     -12.193 -14.545  11.582  1.00  0.00     0.186 HD
BRANCH  20  22
HETATM   22  N10 UNL     1     -13.738 -15.696  10.807  1.00  0.00    -0.276 N 
HETATM   23  C7  UNL     1     -14.208 -16.526  11.661  1.00  0.00     0.215 C 
HETATM   24  N11 UNL     1     -15.538 -16.966  11.499  1.00  0.00    -0.065 NA
HETATM   25  N12 UNL     1     -13.406 -16.993  12.748  1.00  0.00    -0.065 NA
ATOM     26  H10 UNL     1     -14.359 -15.399  10.053  1.00  0.00     0.189 HD
ENDBRANCH  20  22
ENDBRANCH   9  19
BRANCH   1  27
HETATM   27  N1  UNL     1      -9.329 -17.000   9.495  1.00  0.00    -0.383 N 
ATOM     28  H12 UNL     1      -8.661 -17.557   8.961  1.00  0.00     0.157 HD
ATOM     29  H11 UNL     1     -10.137 -17.495   9.875  1.00  0.00     0.157 HD
ENDBRANCH   1  27
TORSDOF 5
ENDMDL
MODEL 3
REMARK VINA RESULT: -7.324205104      3.351      7.279
REMARK  5 active torsions:
REMARK  status: ('A' for Active; 'I' for Inactive)
REMARK    1  A    between atoms: N1_1  and  C1_4 
REMARK    2  A    between atoms: C2_9  and  C3_10 
REMARK    3  A    between atoms: N4_12  and  N5_13 
REMARK    4  A    between atoms: C5_21  and  C6_22 
REMARK    5  A    between atoms: N9_23  and  N10_25 
ROOT
HETATM    1  C1  UNL     1      -9.426 -15.097   9.102  1.00  0.00     0.142 A 
HETATM    2  N2  UNL     1     -10.112 -16.214   8.798  1.00  0.00    -0.282 N 
ATOM      3  H2  UNL     1      -9.736 -16.856   8.100  1.00  0.00     0.188 HD
HETATM    4  N3  UNL     1     -11.272 -16.500   9.390  1.00  0.00    -0.282 N 
ATOM      5  H3  UNL     1     -11.754 -17.359   9.126  1.00  0.00     0.188 HD
HETATM    6  C2  UNL     1     -11.834 -15.706  10.319  1.00  0.00     0.150 A 
HETATM    7  N8  UNL     1     -11.154 -14.586  10.630  1.00  0.00    -0.335 N 
ATOM      8  H8  UNL     1     -11.543 -13.954  11.330  1.00  0.00     0.168 HD
HETATM    9  C5  UNL     1      -9.982 -14.270  10.051  1.00  0.00     0.096 A 
ENDROOT
BRANCH   6  10
HETATM   10  C3  UNL     1     -13.109 -16.041  10.956  1.00  0.00     0.110 A 
HETATM   11  C4  UNL     1     -14.353 -15.501  10.718  1.00  0.00     0.168 A 
HETATM   12  N4  UNL     1     -15.264 -16.096  11.525  1.00  0.00    -0.196 N 
HETATM   13  N6  UNL     1     -14.585 -16.980  12.237  1.00  0.00     0.000 NA
HETATM   14  N7  UNL     1     -13.294 -16.959  11.909  1.00  0.00    -0.277 N 
ATOM     15  H7  UNL     1     -12.567 -17.547  12.317  1.00  0.00     0.184 HD
BRANCH  12  16
HETATM   16  N5  UNL     1     -16.645 -15.824  11.583  1.00  0.00    -0.326 N 
ATOM     17  H52 UNL     1     -17.135 -15.012  11.209  1.00  0.00     0.178 HD
ATOM     18  H51 UNL     1     -17.364 -16.404  12.015  1.00  0.00     0.178 HD
ENDBRANCH  12  16
ENDBRANCH   6  10
BRANCH   9  19
HETATM   19  C6  UNL     1      -9.279 -13.046  10.417  1.00  0.00     0.140 C 
HETATM   20  N9  UNL     1      -9.771 -11.874  10.227  1.00  0.00    -0.307 N 
ATOM     21  H9  UNL     1     -10.694 -11.791   9.802  1.00  0.00     0.186 HD
BRANCH  20  22
HETATM   22  N10 UNL     1      -9.092 -10.721  10.579  1.00  0.00    -0.276 N 
HETATM   23  C7  UNL     1      -8.492  -9.934   9.765  1.00  0.00     0.215 C 
HETATM   24  N11 UNL     1      -7.846  -8.798  10.294  1.00  0.00    -0.065 NA
HETATM   25  N12 UNL     1      -8.479 -10.202   8.361  1.00  0.00    -0.065 NA
ATOM     26  H10 UNL     1      -9.067 -10.478  11.569  1.00  0.00     0.189 HD
ENDBRANCH  20  22
ENDBRANCH   9  19
BRANCH   1  27
HETATM   27  N1  UNL     1      -8.304 -14.838   8.517  1.00  0.00    -0.383 N 
ATOM     28  H12 UNL     1      -8.128 -13.966   8.019  1.00  0.00     0.157 HD
ATOM     29  H11 UNL     1      -7.542 -15.517   8.536  1.00  0.00     0.157 HD
ENDBRANCH   1  27
TORSDOF 5
ENDMDL
MODEL 4
REMARK VINA RESULT: -7.272135528      1.126      1.186
REMARK  5 active torsions:
REMARK  status: ('A' for Active; 'I' for Inactive)
REMARK    1  A    between atoms: N1_1  and  C1_4 
REMARK    2  A    between atoms: C2_9  and  C3_10 
REMARK    3  A    between atoms: N4_12  and  N5_13 
REMARK    4  A    between atoms: C5_21  and  C6_22 
REMARK    5  A    between atoms: N9_23  and  N10_25 
ROOT
HETATM    1  C1  UNL     1     -10.035 -13.107   7.131  1.00  0.00     0.142 A 
HETATM    2  N2  UNL     1      -9.732 -11.810   6.937  1.00  0.00    -0.282 N 
ATOM      3  H2  UNL     1      -9.760 -11.427   5.992  1.00  0.00     0.188 HD
HETATM    4  N3  UNL     1      -9.397 -11.015   7.953  1.00  0.00    -0.282 N 
ATOM      5  H3  UNL     1      -9.177 -10.039   7.756  1.00  0.00     0.188 HD
HETATM    6  C2  UNL     1      -9.337 -11.443   9.227  1.00  0.00     0.150 A 
HETATM    7  N8  UNL     1      -9.639 -12.739   9.431  1.00  0.00    -0.335 N 
ATOM      8  H8  UNL     1      -9.607 -13.108  10.382  1.00  0.00     0.168 HD
HETATM    9  C5  UNL     1      -9.981 -13.567   8.427  1.00  0.00     0.096 A 
ENDROOT
BRANCH   6  10
HETATM   10  C3  UNL     1      -8.967 -10.552  10.327  1.00  0.00     0.110 A 
HETATM   11  C4  UNL     1      -8.117  -9.468  10.303  1.00  0.00     0.168 A 
HETATM   12  N4  UNL     1      -8.053  -8.918  11.539  1.00  0.00    -0.196 N 
HETATM   13  N6  UNL     1      -8.849  -9.653  12.298  1.00  0.00     0.000 NA
HETATM   14  N7  UNL     1      -9.403 -10.635  11.588  1.00  0.00    -0.277 N 
ATOM     15  H7  UNL     1     -10.053 -11.335  11.947  1.00  0.00     0.184 HD
BRANCH  12  16
HETATM   16  N5  UNL     1      -7.295  -7.795  11.925  1.00  0.00    -0.326 N 
ATOM     17  H52 UNL     1      -7.346  -7.284  12.805  1.00  0.00     0.178 HD
ATOM     18  H51 UNL     1      -6.578  -7.324  11.373  1.00  0.00     0.178 HD
ENDBRANCH  12  16
ENDBRANCH   6  10
BRANCH   9  19
HETATM   19  C6  UNL     1     -10.300 -14.965   8.691  1.00  0.00     0.140 C 
HETATM   20  N9  UNL     1      -9.400 -15.866   8.865  1.00  0.00    -0.307 N 
ATOM     21  H9  UNL     1      -8.418 -15.596   8.817  1.00  0.00     0.186 HD
BRANCH  20  22
HETATM   22  N10 UNL     1      -9.718 -17.189   9.115  1.00  0.00    -0.276 N 
HETATM   23  C7  UNL     1      -9.454 -17.825  10.195  1.00  0.00     0.215 C 
HETATM   24  N11 UNL     1      -9.850 -19.176  10.284  1.00  0.00    -0.065 NA
HETATM   25  N12 UNL     1      -8.777 -17.184  11.278  1.00  0.00    -0.065 NA
ATOM     26  H10 UNL     1     -10.203 -17.700   8.378  1.00  0.00     0.189 HD
ENDBRANCH  20  22
ENDBRANCH   9  19
BRANCH   1  27
HETATM   27  N1  UNL     1     -10.356 -13.860   6.132  1.00  0.00    -0.383 N 
ATOM     28  H12 UNL     1     -10.970 -13.550   5.379  1.00  0.00     0.157 HD
ATOM     29  H11 UNL     1      -9.997 -14.813   6.066  1.00  0.00     0.157 HD
ENDBRANCH   1  27
TORSDOF 5
ENDMDL
MODEL 5
REMARK VINA RESULT: -7.192526446      1.496      6.366
REMARK  5 active torsions:
REMARK  status: ('A' for Active; 'I' for Inactive)
REMARK    1  A    between atoms: N1_1  and  C1_4 
REMARK    2  A    between atoms: C2_9  and  C3_10 
REMARK    3  A    between atoms: N4_12  and  N5_13 
REMARK    4  A    between atoms: C5_21  and  C6_22 
REMARK    5  A    between atoms: N9_23  and  N10_25 
ROOT
HETATM    1  C1  UNL     1     -10.358 -13.006   6.932  1.00  0.00     0.142 A 
HETATM    2  N2  UNL     1     -10.801 -14.259   6.720  1.00  0.00    -0.282 N 
ATOM      3  H2  UNL     1     -11.346 -14.461   5.882  1.00  0.00     0.188 HD
HETATM    4  N3  UNL     1     -10.541 -15.243   7.582  1.00  0.00    -0.282 N 
ATOM      5  H3  UNL     1     -10.898 -16.176   7.378  1.00  0.00     0.188 HD
HETATM    6  C2  UNL     1      -9.830 -15.059   8.709  1.00  0.00     0.150 A 
HETATM    7  N8  UNL     1      -9.383 -13.808   8.929  1.00  0.00    -0.335 N 
ATOM      8  H8  UNL     1      -8.839 -13.622   9.771  1.00  0.00     0.168 HD
HETATM    9  C5  UNL     1      -9.628 -12.794   8.079  1.00  0.00     0.096 A 
ENDROOT
BRANCH   6  10
HETATM   10  C3  UNL     1      -9.558 -16.154   9.641  1.00  0.00     0.110 A 
HETATM   11  C4  UNL     1     -10.104 -17.418   9.660  1.00  0.00     0.168 A 
HETATM   12  N4  UNL     1      -9.576 -18.121  10.691  1.00  0.00    -0.196 N 
HETATM   13  N6  UNL     1      -8.727 -17.299  11.284  1.00  0.00     0.000 NA
HETATM   14  N7  UNL     1      -8.704 -16.118  10.668  1.00  0.00    -0.277 N 
ATOM     15  H7  UNL     1      -8.130 -15.319  10.937  1.00  0.00     0.184 HD
BRANCH  12  16
HETATM   16  N5  UNL     1      -9.876 -19.451  11.046  1.00  0.00    -0.326 N 
ATOM     17  H52 UNL     1     -10.759 -19.815  11.404  1.00  0.00     0.178 HD
ATOM     18  H51 UNL     1      -9.247 -20.252  10.998  1.00  0.00     0.178 HD
ENDBRANCH  12  16
ENDBRANCH   6  10
BRANCH   9  19
HETATM   19  C6  UNL     1      -9.125 -11.454   8.355  1.00  0.00     0.140 C 
HETATM   20  N9  UNL     1      -8.454 -11.164   9.411  1.00  0.00    -0.307 N 
ATOM     21  H9  UNL     1      -8.261 -11.900  10.090  1.00  0.00     0.186 HD
BRANCH  20  22
HETATM   22  N10 UNL     1      -7.983  -9.887   9.661  1.00  0.00    -0.276 N 
HETATM   23  C7  UNL     1      -8.203  -9.209  10.724  1.00  0.00     0.215 C 
HETATM   24  N11 UNL     1      -7.645  -7.916  10.816  1.00  0.00    -0.065 NA
HETATM   25  N12 UNL     1      -8.992  -9.747  11.788  1.00  0.00    -0.065 NA
ATOM     26  H10 UNL     1      -7.412  -9.450   8.937  1.00  0.00     0.189 HD
ENDBRANCH  20  22
ENDBRANCH   9  19
BRANCH   1  27
HETATM   27  N1  UNL     1     -10.621 -12.068   6.084  1.00  0.00    -0.383 N 
ATOM     28  H12 UNL     1     -11.512 -11.572   6.065  1.00  0.00     0.157 HD
ATOM     29  H11 UNL     1      -9.927 -11.789   5.391  1.00  0.00     0.157 HD
ENDBRANCH   1  27
TORSDOF 5
ENDMDL
