MODEL 1
REMARK VINA RESULT: -6.524714348      0.000      0.000
REMARK  6 active torsions:
REMARK  status: ('A' for Active; 'I' for Inactive)
REMARK    1  A    between atoms: C2_2  and  O1_3 
REMARK    2  A    between atoms: O1_3  and  C3_4 
REMARK    3  A    between atoms: C3_4  and  N1_5 
REMARK    4  A    between atoms: C7_12  and  N3_13 
REMARK    5  A    between atoms: N3_13  and  N4_15 
REMARK    6  A    between atoms: C8_20  and  N6_21 
ROOT
HETATM    1  N1  UNL     1      -8.904 -13.234   8.961  1.00  0.00    -0.305 N 
HETATM    2  C4  UNL     1      -9.869 -13.365   9.904  1.00  0.00     0.187 A 
HETATM    3  N2  UNL     1      -9.710 -12.375  10.807  1.00  0.00    -0.346 N 
ATOM      4  H2  UNL     1     -10.300 -12.234  11.626  1.00  0.00     0.167 HD
HETATM    5  C5  UNL     1      -8.670 -11.608  10.476  1.00  0.00     0.133 A 
HETATM    6  C6  UNL     1      -8.190 -10.502  11.145  1.00  0.00     0.247 C 
HETATM    7  O2  UNL     1      -8.948 -10.090  12.079  1.00  0.00    -0.282 OA
HETATM    8  C7  UNL     1      -7.020  -9.773  10.961  1.00  0.00     0.188 C 
HETATM    9  N5  UNL     1      -6.160  -9.905   9.936  1.00  0.00    -0.171 N 
ATOM     10  H5  UNL     1      -5.373  -9.254   9.924  1.00  0.00     0.186 HD
HETATM   11  C8  UNL     1      -6.211 -10.791   8.925  1.00  0.00     0.679 C 
HETATM   12  N7  UNL     1      -7.108 -11.732   8.582  1.00  0.00    -0.174 N 
ATOM     13  H7  UNL     1      -6.975 -12.173   7.672  1.00  0.00     0.186 HD
HETATM   14  C9  UNL     1      -8.166 -12.158   9.305  1.00  0.00     0.157 A 
ENDROOT
BRANCH   8  15
HETATM   15  N3  UNL     1      -6.717  -8.893  11.831  1.00  0.00    -0.288 N 
ATOM     16  H3  UNL     1      -5.891  -9.058  12.406  1.00  0.00     0.188 HD
BRANCH  15  17
HETATM   17  N4  UNL     1      -7.429  -7.732  12.051  1.00  0.00    -0.344 N 
ATOM     18  H42 UNL     1      -8.428  -7.763  11.851  1.00  0.00     0.176 HD
ATOM     19  H41 UNL     1      -7.024  -6.861  12.395  1.00  0.00     0.176 HD
ENDBRANCH  15  17
ENDBRANCH   8  15
BRANCH  11  20
HETATM   20  N6  UNL     1      -5.190 -10.709   8.139  1.00  0.00    -0.234 N 
ATOM     21  H62 UNL     1      -5.356 -10.183   7.281  1.00  0.00     0.174 HD
ATOM     22  H61 UNL     1      -4.371 -11.192   8.508  1.00  0.00     0.174 HD
ENDBRANCH  11  20
BRANCH   1  23
HETATM   23  C3  UNL     1      -8.719 -14.085   7.820  1.00  0.00     0.301 C 
BRANCH  23  24
HETATM   24  O1  UNL     1      -9.019 -13.439   6.622  1.00  0.00    -0.372 OA
BRANCH  24  25
HETATM   25  C2  UNL     1     -10.369 -13.453   6.378  1.00  0.00     0.165 C 
HETATM   26  C1  UNL     1     -10.916 -12.157   5.859  1.00  0.00     0.033 C 
ENDBRANCH  24  25
ENDBRANCH  23  24
ENDBRANCH   1  23
TORSDOF 6
ENDMDL
MODEL 2
REMARK VINA RESULT: -6.484648846      1.850      2.047
REMARK  6 active torsions:
REMARK  status: ('A' for Active; 'I' for Inactive)
REMARK    1  A    between atoms: C2_2  and  O1_3 
REMARK    2  A    between atoms: O1_3  and  C3_4 
REMARK    3  A    between atoms: C3_4  and  N1_5 
REMARK    4  A    between atoms: C7_12  and  N3_13 
REMARK    5  A    between atoms: N3_13  and  N4_15 
REMARK    6  A    between atoms: C8_20  and  N6_21 
ROOT
HETATM    1  N1  UNL     1      -8.956 -11.045   8.787  1.00  0.00    -0.305 N 
HETATM    2  C4  UNL     1      -9.818 -10.566   9.718  1.00  0.00     0.187 A 
HETATM    3  N2  UNL     1      -9.113  -9.835  10.605  1.00  0.00    -0.346 N 
ATOM      4  H2  UNL     1      -9.511  -9.357  11.413  1.00  0.00     0.167 HD
HETATM    5  C5  UNL     1      -7.821  -9.826  10.277  1.00  0.00     0.133 A 
HETATM    6  C6  UNL     1      -6.786  -9.193  10.933  1.00  0.00     0.247 C 
HETATM    7  O2  UNL     1      -7.163  -8.395  11.848  1.00  0.00    -0.282 OA
HETATM    8  C7  UNL     1      -5.411  -9.288  10.753  1.00  0.00     0.188 C 
HETATM    9  N5  UNL     1      -4.787  -9.921   9.744  1.00  0.00    -0.171 N 
ATOM     10  H5  UNL     1      -3.768  -9.852   9.732  1.00  0.00     0.186 HD
HETATM   11  C8  UNL     1      -5.344 -10.634   8.748  1.00  0.00     0.679 C 
HETATM   12  N7  UNL     1      -6.621 -10.883   8.408  1.00  0.00    -0.174 N 
ATOM     13  H7  UNL     1      -6.769 -11.340   7.509  1.00  0.00     0.186 HD
HETATM   14  C9  UNL     1      -7.730 -10.595   9.123  1.00  0.00     0.157 A 
ENDROOT
BRANCH   8  15
HETATM   15  N3  UNL     1      -4.652  -8.730  11.612  1.00  0.00    -0.288 N 
ATOM     16  H3  UNL     1      -4.169  -7.875  11.334  1.00  0.00     0.188 HD
BRANCH  15  17
HETATM   17  N4  UNL     1      -4.438  -9.200  12.891  1.00  0.00    -0.344 N 
ATOM     18  H42 UNL     1      -3.894 -10.058  12.977  1.00  0.00     0.176 HD
ATOM     19  H41 UNL     1      -4.785  -8.751  13.738  1.00  0.00     0.176 HD
ENDBRANCH  15  17
ENDBRANCH   8  15
BRANCH  11  20
HETATM   20  N6  UNL     1      -4.466 -11.182   7.976  1.00  0.00    -0.234 N 
ATOM     21  H62 UNL     1      -4.134 -12.094   8.290  1.00  0.00     0.174 HD
ATOM     22  H61 UNL     1      -4.242 -10.605   7.165  1.00  0.00     0.174 HD
ENDBRANCH  11  20
BRANCH   1  23
HETATM   23  C3  UNL     1      -9.301 -11.871   7.665  1.00  0.00     0.301 C 
BRANCH  23  24
HETATM   24  O1  UNL     1     -10.207 -11.249   6.807  1.00  0.00    -0.372 OA
BRANCH  24  25
HETATM   25  C2  UNL     1     -10.825 -12.165   5.994  1.00  0.00     0.165 C 
HETATM   26  C1  UNL     1     -10.375 -13.580   6.204  1.00  0.00     0.033 C 
ENDBRANCH  24  25
ENDBRANCH  23  24
ENDBRANCH   1  23
TORSDOF 6
ENDMDL
MODEL 3
REMARK VINA RESULT: -6.424731437      2.152      3.147
REMARK  6 active torsions:
REMARK  status: ('A' for Active; 'I' for Inactive)
REMARK    1  A    between atoms: C2_2  and  O1_3 
REMARK    2  A    between atoms: O1_3  and  C3_4 
REMARK    3  A    between atoms: C3_4  and  N1_5 
REMARK    4  A    between atoms: C7_12  and  N3_13 
REMARK    5  A    between atoms: N3_13  and  N4_15 
REMARK    6  A    between atoms: C8_20  and  N6_21 
ROOT
HETATM    1  N1  UNL     1      -8.043 -11.906   9.226  1.00  0.00    -0.305 N 
HETATM    2  C4  UNL     1      -7.039 -12.750   8.886  1.00  0.00     0.187 A 
HETATM    3  N2  UNL     1      -5.946 -12.412   9.602  1.00  0.00    -0.346 N 
ATOM      4  H2  UNL     1      -5.043 -12.884   9.544  1.00  0.00     0.167 HD
HETATM    5  C5  UNL     1      -6.214 -11.374  10.395  1.00  0.00     0.133 A 
HETATM    6  C6  UNL     1      -5.360 -10.741  11.274  1.00  0.00     0.247 C 
HETATM    7  O2  UNL     1      -4.257 -11.345  11.453  1.00  0.00    -0.282 OA
HETATM    8  C7  UNL     1      -5.516  -9.558  11.987  1.00  0.00     0.188 C 
HETATM    9  N5  UNL     1      -6.650  -8.844  12.099  1.00  0.00    -0.171 N 
ATOM     10  H5  UNL     1      -6.607  -8.024  12.705  1.00  0.00     0.186 HD
HETATM   11  C8  UNL     1      -7.835  -9.082  11.507  1.00  0.00     0.679 C 
HETATM   12  N7  UNL     1      -8.276 -10.076  10.717  1.00  0.00    -0.174 N 
ATOM     13  H7  UNL     1      -9.278 -10.089  10.523  1.00  0.00     0.186 HD
HETATM   14  C9  UNL     1      -7.544 -11.060  10.152  1.00  0.00     0.157 A 
ENDROOT
BRANCH   8  15
HETATM   15  N3  UNL     1      -4.502  -9.089  12.602  1.00  0.00    -0.288 N 
ATOM     16  H3  UNL     1      -4.030  -8.283  12.192  1.00  0.00     0.188 HD
BRANCH  15  17
HETATM   17  N4  UNL     1      -3.999  -9.595  13.782  1.00  0.00    -0.344 N 
ATOM     18  H42 UNL     1      -3.137  -9.174  14.129  1.00  0.00     0.176 HD
ATOM     19  H41 UNL     1      -4.427 -10.350  14.318  1.00  0.00     0.176 HD
ENDBRANCH  15  17
ENDBRANCH   8  15
BRANCH  11  20
HETATM   20  N6  UNL     1      -8.709  -8.166  11.758  1.00  0.00    -0.234 N 
ATOM     21  H62 UNL     1      -9.413  -8.427  12.448  1.00  0.00     0.174 HD
ATOM     22  H61 UNL     1      -8.553  -7.315  11.217  1.00  0.00     0.174 HD
ENDBRANCH  11  20
BRANCH   1  23
HETATM   23  C3  UNL     1      -9.376 -11.923   8.694  1.00  0.00     0.301 C 
BRANCH  23  24
HETATM   24  O1  UNL     1      -9.754 -10.688   8.170  1.00  0.00    -0.372 OA
BRANCH  24  25
HETATM   25  C2  UNL     1     -10.115 -10.801   6.851  1.00  0.00     0.165 C 
HETATM   26  C1  UNL     1     -10.477 -12.193   6.427  1.00  0.00     0.033 C 
ENDBRANCH  24  25
ENDBRANCH  23  24
ENDBRANCH   1  23
TORSDOF 6
ENDMDL
MODEL 4
REMARK VINA RESULT: -6.215094259      2.446      3.457
REMARK  6 active torsions:
REMARK  status: ('A' for Active; 'I' for Inactive)
REMARK    1  A    between atoms: C2_2  and  O1_3 
REMARK    2  A    between atoms: O1_3  and  C3_4 
REMARK    3  A    between atoms: C3_4  and  N1_5 
REMARK    4  A    between atoms: C7_12  and  N3_13 
REMARK    5  A    between atoms: N3_13  and  N4_15 
REMARK    6  A    between atoms: C8_20  and  N6_21 
ROOT
HETATM    1  N1  UNL     1      -8.377 -10.003  10.594  1.00  0.00    -0.305 N 
HETATM    2  C4  UNL     1      -8.500  -9.167  11.654  1.00  0.00     0.187 A 
HETATM    3  N2  UNL     1      -7.262  -8.795  12.040  1.00  0.00    -0.346 N 
ATOM      4  H2  UNL     1      -7.059  -8.167  12.818  1.00  0.00     0.167 HD
HETATM    5  C5  UNL     1      -6.342  -9.364  11.261  1.00  0.00     0.133 A 
HETATM    6  C6  UNL     1      -4.971  -9.231  11.336  1.00  0.00     0.247 C 
HETATM    7  O2  UNL     1      -4.581  -8.323  12.135  1.00  0.00    -0.282 OA
HETATM    8  C7  UNL     1      -3.960  -9.926  10.683  1.00  0.00     0.188 C 
HETATM    9  N5  UNL     1      -4.124 -10.798   9.673  1.00  0.00    -0.171 N 
ATOM     10  H5  UNL     1      -3.270 -11.184   9.269  1.00  0.00     0.186 HD
HETATM   11  C8  UNL     1      -5.280 -11.222   9.130  1.00  0.00     0.679 C 
HETATM   12  N7  UNL     1      -6.566 -10.894   9.349  1.00  0.00    -0.174 N 
ATOM     13  H7  UNL     1      -7.246 -11.266   8.687  1.00  0.00     0.186 HD
HETATM   14  C9  UNL     1      -7.056 -10.127  10.347  1.00  0.00     0.157 A 
ENDROOT
BRANCH   8  15
HETATM   15  N3  UNL     1      -2.758  -9.733  11.060  1.00  0.00    -0.288 N 
ATOM     16  H3  UNL     1      -2.145  -9.206  10.438  1.00  0.00     0.188 HD
BRANCH  15  17
HETATM   17  N4  UNL     1      -2.228 -10.187  12.249  1.00  0.00    -0.344 N 
ATOM     18  H42 UNL     1      -1.289 -10.584  12.209  1.00  0.00     0.176 HD
ATOM     19  H41 UNL     1      -2.708 -10.151  13.148  1.00  0.00     0.176 HD
ENDBRANCH  15  17
ENDBRANCH   8  15
BRANCH  11  20
HETATM   20  N6  UNL     1      -5.103 -12.122   8.221  1.00  0.00    -0.234 N 
ATOM     21  H62 UNL     1      -4.171 -12.537   8.210  1.00  0.00     0.174 HD
ATOM     22  H61 UNL     1      -5.935 -12.275   7.651  1.00  0.00     0.174 HD
ENDBRANCH  11  20
BRANCH   1  23
HETATM   23  C3  UNL     1      -9.456 -10.626   9.881  1.00  0.00     0.301 C 
BRANCH  23  24
HETATM   24  O1  UNL     1      -9.420 -10.349   8.515  1.00  0.00    -0.372 OA
BRANCH  24  25
HETATM   25  C2  UNL     1      -9.554 -11.497   7.775  1.00  0.00     0.165 C 
HETATM   26  C1  UNL     1     -10.403 -11.344   6.548  1.00  0.00     0.033 C 
ENDBRANCH  24  25
ENDBRANCH  23  24
ENDBRANCH   1  23
TORSDOF 6
ENDMDL
MODEL 5
REMARK VINA RESULT: -6.148962490      2.484      5.989
REMARK  6 active torsions:
REMARK  status: ('A' for Active; 'I' for Inactive)
REMARK    1  A    between atoms: C2_2  and  O1_3 
REMARK    2  A    between atoms: O1_3  and  C3_4 
REMARK    3  A    between atoms: C3_4  and  N1_5 
REMARK    4  A    between atoms: C7_12  and  N3_13 
REMARK    5  A    between atoms: N3_13  and  N4_15 
REMARK    6  A    between atoms: C8_20  and  N6_21 
ROOT
HETATM    1  N1  UNL     1      -9.035 -11.007   8.868  1.00  0.00    -0.305 N 
HETATM    2  C4  UNL     1      -9.216 -10.846   7.534  1.00  0.00     0.187 A 
HETATM    3  N2  UNL     1      -9.698 -12.003   7.035  1.00  0.00    -0.346 N 
ATOM      4  H2  UNL     1      -9.926 -12.163   6.053  1.00  0.00     0.167 HD
HETATM    5  C5  UNL     1      -9.836 -12.907   8.005  1.00  0.00     0.133 A 
HETATM    6  C6  UNL     1     -10.298 -14.202   7.895  1.00  0.00     0.247 C 
HETATM    7  O2  UNL     1     -10.804 -14.478   6.762  1.00  0.00    -0.282 OA
HETATM    8  C7  UNL     1     -10.297 -15.241   8.818  1.00  0.00     0.188 C 
HETATM    9  N5  UNL     1      -9.983 -15.142  10.121  1.00  0.00    -0.171 N 
ATOM     10  H5  UNL     1     -10.083 -15.994  10.674  1.00  0.00     0.186 HD
HETATM   11  C8  UNL     1      -9.552 -14.053  10.785  1.00  0.00     0.679 C 
HETATM   12  N7  UNL     1      -9.367 -12.774  10.415  1.00  0.00    -0.174 N 
ATOM     13  H7  UNL     1      -9.168 -12.111  11.164  1.00  0.00     0.186 HD
HETATM   14  C9  UNL     1      -9.415 -12.268   9.164  1.00  0.00     0.157 A 
ENDROOT
BRANCH   8  15
HETATM   15  N3  UNL     1     -10.623 -16.405   8.412  1.00  0.00    -0.288 N 
ATOM     16  H3  UNL     1     -11.262 -16.469   7.620  1.00  0.00     0.188 HD
BRANCH  15  17
HETATM   17  N4  UNL     1     -10.173 -17.583   8.970  1.00  0.00    -0.344 N 
ATOM     18  H42 UNL     1      -9.552 -17.500   9.774  1.00  0.00     0.176 HD
ATOM     19  H41 UNL     1     -10.418 -18.514   8.632  1.00  0.00     0.176 HD
ENDBRANCH  15  17
ENDBRANCH   8  15
BRANCH  11  20
HETATM   20  N6  UNL     1      -9.263 -14.304  12.018  1.00  0.00    -0.234 N 
ATOM     21  H62 UNL     1      -8.570 -13.677  12.428  1.00  0.00     0.174 HD
ATOM     22  H61 UNL     1      -9.781 -15.101  12.388  1.00  0.00     0.174 HD
ENDBRANCH  11  20
BRANCH   1  23
HETATM   23  C3  UNL     1      -8.537 -10.014   9.777  1.00  0.00     0.301 C 
BRANCH  23  24
HETATM   24  O1  UNL     1      -9.256  -9.979  10.971  1.00  0.00    -0.372 OA
BRANCH  24  25
HETATM   25  C2  UNL     1      -8.621  -9.202  11.907  1.00  0.00     0.165 C 
HETATM   26  C1  UNL     1      -7.920  -8.004  11.341  1.00  0.00     0.033 C 
ENDBRANCH  24  25
ENDBRANCH  23  24
ENDBRANCH   1  23
TORSDOF 6
ENDMDL
