MODEL 1
REMARK VINA RESULT: -7.080851540      0.000      0.000
REMARK  2 active torsions:
REMARK  status: ('A' for Active; 'I' for Inactive)
REMARK       I    between atoms: C1_4  and  N3_6 
REMARK       I    between atoms: C2_8  and  N5_10 
REMARK    1  A    between atoms: C4_16  and  C5_17 
REMARK    2  A    between atoms: C4_16  and  C6_19 
ROOT
HETATM    1  N1  UNL     1       8.639 -16.016   1.843  1.00  0.00    -0.373 N 
ATOM      2  H11 UNL     1       9.167 -15.328   2.381  1.00  0.00     0.158 HD
ATOM      3  H12 UNL     1       9.067 -16.918   1.635  1.00  0.00     0.158 HD
HETATM    4  C1  UNL     1       7.460 -15.758   1.435  1.00  0.00     0.188 C 
HETATM    5  N2  UNL     1       6.727 -16.715   0.688  1.00  0.00    -0.064 NA
HETATM    6  N3  UNL     1       6.870 -14.516   1.722  1.00  0.00    -0.304 N 
ATOM      7  H3  UNL     1       6.806 -13.830   0.970  1.00  0.00     0.171 HD
HETATM    8  C2  UNL     1       6.399 -14.186   2.893  1.00  0.00     0.212 C 
HETATM    9  N4  UNL     1       6.519 -15.182   3.892  1.00  0.00    -0.062 NA
HETATM   10  N5  UNL     1       5.813 -12.930   3.140  1.00  0.00    -0.212 N 
HETATM   11  N6  UNL     1       4.612 -12.461   2.639  1.00  0.00    -0.013 NA
HETATM   12  N7  UNL     1       4.935 -11.145   2.287  1.00  0.00    -0.251 N 
ATOM     13  H7  UNL     1       4.504 -10.612   1.531  1.00  0.00     0.187 HD
HETATM   14  C3  UNL     1       5.960 -10.673   3.153  1.00  0.00     0.281 C 
HETATM   15  O1  UNL     1       6.414  -9.523   3.212  1.00  0.00    -0.268 OA
HETATM   16  C4  UNL     1       6.349 -11.888   3.964  1.00  0.00     0.265 C 
ENDROOT
BRANCH  16  17
HETATM   17  C5  UNL     1       5.598 -11.748   5.244  1.00  0.00     0.283 C 
HETATM   18  O2  UNL     1       5.667 -10.727   5.876  1.00  0.00    -0.303 OA
ENDBRANCH  16  17
BRANCH  16  19
HETATM   19  C6  UNL     1       7.791 -11.953   4.184  1.00  0.00     0.278 C 
HETATM   20  N8  UNL     1       8.680 -11.500   3.192  1.00  0.00    -0.059 NA
HETATM   21  O3  UNL     1       8.251 -12.412   5.256  1.00  0.00    -0.273 OA
ENDBRANCH  16  19
TORSDOF 2
ENDMDL
MODEL 2
REMARK VINA RESULT: -6.841488578      1.761      2.184
REMARK  2 active torsions:
REMARK  status: ('A' for Active; 'I' for Inactive)
REMARK       I    between atoms: C1_4  and  N3_6 
REMARK       I    between atoms: C2_8  and  N5_10 
REMARK    1  A    between atoms: C4_16  and  C5_17 
REMARK    2  A    between atoms: C4_16  and  C6_19 
ROOT
HETATM    1  N1  UNL     1       7.884 -16.837   3.739  1.00  0.00    -0.373 N 
ATOM      2  H11 UNL     1       7.665 -16.188   4.495  1.00  0.00     0.158 HD
ATOM      3  H12 UNL     1       8.104 -17.807   3.965  1.00  0.00     0.158 HD
HETATM    4  C1  UNL     1       7.885 -16.446   2.526  1.00  0.00     0.188 C 
HETATM    5  N2  UNL     1       8.190 -17.348   1.475  1.00  0.00    -0.064 NA
HETATM    6  N3  UNL     1       7.582 -15.110   2.215  1.00  0.00    -0.304 N 
ATOM      7  H3  UNL     1       8.351 -14.493   1.953  1.00  0.00     0.171 HD
HETATM    8  C2  UNL     1       6.377 -14.611   2.241  1.00  0.00     0.212 C 
HETATM    9  N4  UNL     1       5.357 -15.520   2.612  1.00  0.00    -0.062 NA
HETATM   10  N5  UNL     1       6.115 -13.265   1.920  1.00  0.00    -0.212 N 
HETATM   11  N6  UNL     1       6.223 -12.672   0.675  1.00  0.00    -0.013 NA
HETATM   12  N7  UNL     1       6.842 -11.455   0.983  1.00  0.00    -0.251 N 
ATOM     13  H7  UNL     1       7.464 -10.934   0.365  1.00  0.00     0.187 HD
HETATM   14  C3  UNL     1       6.463 -11.062   2.297  1.00  0.00     0.281 C 
HETATM   15  O1  UNL     1       6.724  -9.992   2.859  1.00  0.00    -0.268 OA
HETATM   16  C4  UNL     1       5.681 -12.244   2.826  1.00  0.00     0.265 C 
ENDROOT
BRANCH  16  17
HETATM   17  C5  UNL     1       4.251 -11.881   2.612  1.00  0.00     0.283 C 
HETATM   18  O2  UNL     1       3.939 -11.171   1.692  1.00  0.00    -0.303 OA
ENDBRANCH  16  17
BRANCH  16  19
HETATM   19  C6  UNL     1       5.972 -12.500   4.233  1.00  0.00     0.278 C 
HETATM   20  N8  UNL     1       7.227 -13.011   4.615  1.00  0.00    -0.059 NA
HETATM   21  O3  UNL     1       5.112 -12.267   5.114  1.00  0.00    -0.273 OA
ENDBRANCH  16  19
TORSDOF 2
ENDMDL
MODEL 3
REMARK VINA RESULT: -6.711140014      1.749      3.063
REMARK  2 active torsions:
REMARK  status: ('A' for Active; 'I' for Inactive)
REMARK       I    between atoms: C1_4  and  N3_6 
REMARK       I    between atoms: C2_8  and  N5_10 
REMARK    1  A    between atoms: C4_16  and  C5_17 
REMARK    2  A    between atoms: C4_16  and  C6_19 
ROOT
HETATM    1  N1  UNL     1       5.602 -16.142   2.469  1.00  0.00    -0.373 N 
ATOM      2  H11 UNL     1       4.957 -15.380   2.257  1.00  0.00     0.158 HD
ATOM      3  H12 UNL     1       5.463 -17.049   2.024  1.00  0.00     0.158 HD
HETATM    4  C1  UNL     1       6.569 -15.969   3.280  1.00  0.00     0.188 C 
HETATM    5  N2  UNL     1       7.465 -17.028   3.575  1.00  0.00    -0.064 NA
HETATM    6  N3  UNL     1       6.761 -14.719   3.894  1.00  0.00    -0.304 N 
ATOM      7  H3  UNL     1       6.500 -14.623   4.875  1.00  0.00     0.171 HD
HETATM    8  C2  UNL     1       7.252 -13.676   3.285  1.00  0.00     0.212 C 
HETATM    9  N4  UNL     1       7.593 -13.878   1.925  1.00  0.00    -0.062 NA
HETATM   10  N5  UNL     1       7.430 -12.441   3.937  1.00  0.00    -0.212 N 
HETATM   11  N6  UNL     1       8.338 -12.154   4.940  1.00  0.00    -0.013 NA
HETATM   12  N7  UNL     1       7.565 -11.397   5.827  1.00  0.00    -0.251 N 
ATOM     13  H7  UNL     1       7.696 -11.354   6.838  1.00  0.00     0.187 HD
HETATM   14  C3  UNL     1       6.567 -10.699   5.093  1.00  0.00     0.281 C 
HETATM   15  O1  UNL     1       5.779  -9.849   5.527  1.00  0.00    -0.268 OA
HETATM   16  C4  UNL     1       6.701 -11.233   3.685  1.00  0.00     0.265 C 
ENDROOT
BRANCH  16  17
HETATM   17  C5  UNL     1       7.531 -10.221   2.970  1.00  0.00     0.283 C 
HETATM   18  O2  UNL     1       8.441 -10.575   2.267  1.00  0.00    -0.303 OA
ENDBRANCH  16  17
BRANCH  16  19
HETATM   19  C6  UNL     1       5.401 -11.417   3.048  1.00  0.00     0.278 C 
HETATM   20  N8  UNL     1       5.120 -10.796   1.817  1.00  0.00    -0.059 NA
HETATM   21  O3  UNL     1       4.522 -12.128   3.590  1.00  0.00    -0.273 OA
ENDBRANCH  16  19
TORSDOF 2
ENDMDL
MODEL 4
REMARK VINA RESULT: -6.453699244      2.122      3.444
REMARK  2 active torsions:
REMARK  status: ('A' for Active; 'I' for Inactive)
REMARK       I    between atoms: C1_4  and  N3_6 
REMARK       I    between atoms: C2_8  and  N5_10 
REMARK    1  A    between atoms: C4_16  and  C5_17 
REMARK    2  A    between atoms: C4_16  and  C6_19 
ROOT
HETATM    1  N1  UNL     1       4.880 -17.140  -0.172  1.00  0.00    -0.373 N 
ATOM      2  H11 UNL     1       4.139 -16.446  -0.073  1.00  0.00     0.158 HD
ATOM      3  H12 UNL     1       4.752 -17.916  -0.822  1.00  0.00     0.158 HD
HETATM    4  C1  UNL     1       5.954 -17.045   0.507  1.00  0.00     0.188 C 
HETATM    5  N2  UNL     1       6.985 -18.010   0.370  1.00  0.00    -0.064 NA
HETATM    6  N3  UNL     1       6.131 -15.977   1.403  1.00  0.00    -0.304 N 
ATOM      7  H3  UNL     1       6.039 -16.169   2.400  1.00  0.00     0.171 HD
HETATM    8  C2  UNL     1       6.405 -14.756   1.036  1.00  0.00     0.212 C 
HETATM    9  N4  UNL     1       6.520 -14.559  -0.361  1.00  0.00    -0.062 NA
HETATM   10  N5  UNL     1       6.577 -13.713   1.966  1.00  0.00    -0.212 N 
HETATM   11  N6  UNL     1       7.616 -13.567   2.868  1.00  0.00    -0.013 NA
HETATM   12  N7  UNL     1       6.943 -13.173   4.029  1.00  0.00    -0.251 N 
ATOM     13  H7  UNL     1       7.244 -13.368   4.984  1.00  0.00     0.187 HD
HETATM   14  C3  UNL     1       5.769 -12.456   3.664  1.00  0.00     0.281 C 
HETATM   15  O1  UNL     1       4.992 -11.862   4.422  1.00  0.00    -0.268 OA
HETATM   16  C4  UNL     1       5.704 -12.594   2.160  1.00  0.00     0.265 C 
ENDROOT
BRANCH  16  17
HETATM   17  C5  UNL     1       6.295 -11.330   1.635  1.00  0.00     0.283 C 
HETATM   18  O2  UNL     1       6.506 -10.408   2.379  1.00  0.00    -0.303 OA
ENDBRANCH  16  17
BRANCH  16  19
HETATM   19  C6  UNL     1       4.335 -12.789   1.692  1.00  0.00     0.278 C 
HETATM   20  N8  UNL     1       3.606 -11.708   1.162  1.00  0.00    -0.059 NA
HETATM   21  O3  UNL     1       3.795 -13.918   1.757  1.00  0.00    -0.273 OA
ENDBRANCH  16  19
TORSDOF 2
ENDMDL
MODEL 5
REMARK VINA RESULT: -6.174909904      1.700      2.815
REMARK  2 active torsions:
REMARK  status: ('A' for Active; 'I' for Inactive)
REMARK       I    between atoms: C1_4  and  N3_6 
REMARK       I    between atoms: C2_8  and  N5_10 
REMARK    1  A    between atoms: C4_16  and  C5_17 
REMARK    2  A    between atoms: C4_16  and  C6_19 
ROOT
HETATM    1  N1  UNL     1       5.070 -14.792  -0.794  1.00  0.00    -0.373 N 
ATOM      2  H11 UNL     1       5.223 -13.792  -0.932  1.00  0.00     0.158 HD
ATOM      3  H12 UNL     1       4.913 -15.387  -1.607  1.00  0.00     0.158 HD
HETATM    4  C1  UNL     1       5.075 -15.295   0.377  1.00  0.00     0.188 C 
HETATM    5  N2  UNL     1       4.862 -16.684   0.569  1.00  0.00    -0.064 NA
HETATM    6  N3  UNL     1       5.291 -14.474   1.497  1.00  0.00    -0.304 N 
ATOM      7  H3  UNL     1       4.489 -14.237   2.080  1.00  0.00     0.171 HD
HETATM    8  C2  UNL     1       6.457 -13.997   1.835  1.00  0.00     0.212 C 
HETATM    9  N4  UNL     1       7.528 -14.363   0.985  1.00  0.00    -0.062 NA
HETATM   10  N5  UNL     1       6.633 -13.178   2.968  1.00  0.00    -0.212 N 
HETATM   11  N6  UNL     1       6.517 -13.558   4.293  1.00  0.00    -0.013 NA
HETATM   12  N7  UNL     1       5.806 -12.486   4.844  1.00  0.00    -0.251 N 
ATOM     13  H7  UNL     1       5.166 -12.544   5.636  1.00  0.00     0.187 HD
HETATM   14  C3  UNL     1       6.121 -11.301   4.121  1.00  0.00     0.281 C 
HETATM   15  O1  UNL     1       5.769 -10.146   4.394  1.00  0.00    -0.268 OA
HETATM   16  C4  UNL     1       6.969 -11.785   2.967  1.00  0.00     0.265 C 
ENDROOT
BRANCH  16  17
HETATM   17  C5  UNL     1       8.375 -11.552   3.403  1.00  0.00     0.283 C 
HETATM   18  O2  UNL     1       8.601 -10.899   4.388  1.00  0.00    -0.303 OA
ENDBRANCH  16  17
BRANCH  16  19
HETATM   19  C6  UNL     1       6.658 -11.075   1.730  1.00  0.00     0.278 C 
HETATM   20  N8  UNL     1       5.325 -10.970   1.289  1.00  0.00    -0.059 NA
HETATM   21  O3  UNL     1       7.571 -10.551   1.051  1.00  0.00    -0.273 OA
ENDBRANCH  16  19
TORSDOF 2
ENDMDL
