MODEL 1
REMARK VINA RESULT: -7.311056887      0.000      0.000
REMARK  5 active torsions:
REMARK  status: ('A' for Active; 'I' for Inactive)
REMARK    1  A    between atoms: N1_1  and  C1_4 
REMARK    2  A    between atoms: C2_7  and  N3_8 
REMARK    3  A    between atoms: N3_8  and  N4_10 
REMARK    4  A    between atoms: C5_19  and  N8_20 
REMARK    5  A    between atoms: N8_20  and  C6_22 
ROOT
HETATM    1  C1  UNL     1       6.507 -14.121   3.088  1.00  0.00     0.692 A 
HETATM    2  N2  UNL     1       6.057 -14.601   1.929  1.00  0.00    -0.021 N 
ATOM      3  H2  UNL     1       6.192 -15.606   1.817  1.00  0.00     0.203 HD
HETATM    4  C2  UNL     1       5.452 -14.004   0.867  1.00  0.00     0.714 A 
HETATM    5  N7  UNL     1       5.112 -12.710   0.766  1.00  0.00    -0.151 N 
ATOM      6  H7  UNL     1       4.643 -12.452  -0.103  1.00  0.00     0.188 HD
HETATM    7  C4  UNL     1       5.299 -11.691   1.648  1.00  0.00     0.304 A 
HETATM    8  O1  UNL     1       4.883 -10.546   1.343  1.00  0.00    -0.263 OA
HETATM    9  C5  UNL     1       5.907 -11.748   2.883  1.00  0.00     0.192 A 
HETATM   10  N9  UNL     1       6.416 -12.842   3.519  1.00  0.00    -0.171 N 
ATOM     11  H9  UNL     1       6.781 -12.671   4.455  1.00  0.00     0.186 HD
ENDROOT
BRANCH   4  12
HETATM   12  N3  UNL     1       5.173 -14.734  -0.146  1.00  0.00    -0.129 N 
ATOM     13  H3  UNL     1       4.309 -15.276  -0.181  1.00  0.00     0.205 HD
BRANCH  12  14
HETATM   14  N4  UNL     1       6.085 -14.767  -1.199  1.00  0.00    -0.262 N 
HETATM   15  C3  UNL     1       6.961 -15.698  -1.335  1.00  0.00     0.216 C 
HETATM   16  N5  UNL     1       7.068 -16.773  -0.413  1.00  0.00    -0.065 NA
HETATM   17  N6  UNL     1       7.842 -15.627  -2.453  1.00  0.00    -0.065 NA
ATOM     18  H4  UNL     1       6.056 -14.020  -1.892  1.00  0.00     0.190 HD
ENDBRANCH  12  14
ENDBRANCH   4  12
BRANCH   1  19
HETATM   19  N1  UNL     1       7.097 -14.907   3.925  1.00  0.00    -0.234 N 
ATOM     20  H12 UNL     1       6.586 -15.772   4.102  1.00  0.00     0.174 HD
ATOM     21  H11 UNL     1       7.989 -14.633   4.338  1.00  0.00     0.174 HD
ENDBRANCH   1  19
BRANCH   9  22
HETATM   22  N8  UNL     1       6.016 -10.631   3.530  1.00  0.00    -0.315 N 
ATOM     23  H8  UNL     1       5.743  -9.770   3.058  1.00  0.00     0.170 HD
BRANCH  22  24
HETATM   24  C6  UNL     1       6.493 -10.546   4.852  1.00  0.00     0.354 C 
HETATM   25  O2  UNL     1       5.799 -10.967   5.794  1.00  0.00    -0.283 OA
ENDBRANCH  22  24
ENDBRANCH   9  22
TORSDOF 5
ENDMDL
MODEL 2
REMARK VINA RESULT: -7.050970862      1.374      2.474
REMARK  5 active torsions:
REMARK  status: ('A' for Active; 'I' for Inactive)
REMARK    1  A    between atoms: N1_1  and  C1_4 
REMARK    2  A    between atoms: C2_7  and  N3_8 
REMARK    3  A    between atoms: N3_8  and  N4_10 
REMARK    4  A    between atoms: C5_19  and  N8_20 
REMARK    5  A    between atoms: N8_20  and  C6_22 
ROOT
HETATM    1  C1  UNL     1       4.700 -11.857   1.665  1.00  0.00     0.692 A 
HETATM    2  N2  UNL     1       4.701 -12.907   0.843  1.00  0.00    -0.021 N 
ATOM      3  H2  UNL     1       4.243 -12.733  -0.051  1.00  0.00     0.203 HD
HETATM    4  C2  UNL     1       5.198 -14.166   0.973  1.00  0.00     0.714 A 
HETATM    5  N7  UNL     1       5.885 -14.650   2.019  1.00  0.00    -0.151 N 
ATOM      6  H7  UNL     1       6.197 -15.617   1.924  1.00  0.00     0.188 HD
HETATM    7  C4  UNL     1       6.228 -14.044   3.188  1.00  0.00     0.304 A 
HETATM    8  O1  UNL     1       6.893 -14.694   4.032  1.00  0.00    -0.263 OA
HETATM    9  C5  UNL     1       5.934 -12.759   3.588  1.00  0.00     0.192 A 
HETATM   10  N9  UNL     1       5.276 -11.792   2.887  1.00  0.00    -0.171 N 
ATOM     11  H9  UNL     1       5.207 -10.887   3.353  1.00  0.00     0.186 HD
ENDROOT
BRANCH   4  12
HETATM   12  N3  UNL     1       4.998 -14.986   0.011  1.00  0.00    -0.129 N 
ATOM     13  H3  UNL     1       4.334 -15.755   0.106  1.00  0.00     0.205 HD
BRANCH  12  14
HETATM   14  N4  UNL     1       5.713 -14.796  -1.169  1.00  0.00    -0.262 N 
HETATM   15  C3  UNL     1       6.833 -15.381  -1.408  1.00  0.00     0.216 C 
HETATM   16  N5  UNL     1       7.431 -16.273  -0.478  1.00  0.00    -0.065 NA
HETATM   17  N6  UNL     1       7.476 -15.110  -2.651  1.00  0.00    -0.065 NA
ATOM     18  H4  UNL     1       5.333 -14.165  -1.873  1.00  0.00     0.190 HD
ENDBRANCH  12  14
ENDBRANCH   4  12
BRANCH   1  19
HETATM   19  N1  UNL     1       4.108 -10.765   1.313  1.00  0.00    -0.234 N 
ATOM     20  H12 UNL     1       4.506 -10.336   0.478  1.00  0.00     0.174 HD
ATOM     21  H11 UNL     1       3.321 -10.416   1.860  1.00  0.00     0.174 HD
ENDBRANCH   1  19
BRANCH   9  22
HETATM   22  N8  UNL     1       6.325 -12.414   4.774  1.00  0.00    -0.315 N 
ATOM     23  H8  UNL     1       6.322 -13.120   5.509  1.00  0.00     0.170 HD
BRANCH  22  24
HETATM   24  C6  UNL     1       6.754 -11.114   5.099  1.00  0.00     0.354 C 
HETATM   25  O2  UNL     1       5.921 -10.232   5.373  1.00  0.00    -0.283 OA
ENDBRANCH  22  24
ENDBRANCH   9  22
TORSDOF 5
ENDMDL
MODEL 3
REMARK VINA RESULT: -7.049727709      2.558      6.000
REMARK  5 active torsions:
REMARK  status: ('A' for Active; 'I' for Inactive)
REMARK    1  A    between atoms: N1_1  and  C1_4 
REMARK    2  A    between atoms: C2_7  and  N3_8 
REMARK    3  A    between atoms: N3_8  and  N4_10 
REMARK    4  A    between atoms: C5_19  and  N8_20 
REMARK    5  A    between atoms: N8_20  and  C6_22 
ROOT
HETATM    1  C1  UNL     1       6.940 -11.523   1.659  1.00  0.00     0.692 A 
HETATM    2  N2  UNL     1       7.444 -11.685   2.883  1.00  0.00    -0.021 N 
ATOM      3  H2  UNL     1       7.985 -10.887   3.217  1.00  0.00     0.203 HD
HETATM    4  C2  UNL     1       7.374 -12.713   3.769  1.00  0.00     0.714 A 
HETATM    5  N7  UNL     1       6.693 -13.859   3.611  1.00  0.00    -0.151 N 
ATOM      6  H7  UNL     1       6.741 -14.505   4.400  1.00  0.00     0.188 HD
HETATM    7  C4  UNL     1       5.949 -14.288   2.556  1.00  0.00     0.304 A 
HETATM    8  O1  UNL     1       5.384 -15.407   2.632  1.00  0.00    -0.263 OA
HETATM    9  C5  UNL     1       5.722 -13.634   1.365  1.00  0.00     0.192 A 
HETATM   10  N9  UNL     1       6.149 -12.394   0.994  1.00  0.00    -0.171 N 
ATOM     11  H9  UNL     1       5.825 -12.077   0.080  1.00  0.00     0.186 HD
ENDROOT
BRANCH   4  12
HETATM   12  N3  UNL     1       8.015 -12.594   4.870  1.00  0.00    -0.129 N 
ATOM     13  H3  UNL     1       8.634 -13.335   5.200  1.00  0.00     0.205 HD
BRANCH  12  14
HETATM   14  N4  UNL     1       7.842 -11.423   5.604  1.00  0.00    -0.262 N 
HETATM   15  C3  UNL     1       6.684 -10.952   5.904  1.00  0.00     0.216 C 
HETATM   16  N5  UNL     1       5.482 -11.595   5.506  1.00  0.00    -0.065 NA
HETATM   17  N6  UNL     1       6.629  -9.745   6.659  1.00  0.00    -0.065 NA
ATOM     18  H4  UNL     1       8.670 -10.917   5.917  1.00  0.00     0.190 HD
ENDBRANCH  12  14
ENDBRANCH   4  12
BRANCH   1  19
HETATM   19  N1  UNL     1       7.198 -10.446   0.995  1.00  0.00    -0.234 N 
ATOM     20  H12 UNL     1       7.501 -10.621   0.037  1.00  0.00     0.174 HD
ATOM     21  H11 UNL     1       7.089  -9.535   1.441  1.00  0.00     0.174 HD
ENDBRANCH   1  19
BRANCH   9  22
HETATM   22  N8  UNL     1       5.016 -14.265   0.480  1.00  0.00    -0.315 N 
ATOM     23  H8  UNL     1       4.001 -14.183   0.523  1.00  0.00     0.170 HD
BRANCH  22  24
HETATM   24  C6  UNL     1       5.580 -15.057  -0.538  1.00  0.00     0.354 C 
HETATM   25  O2  UNL     1       6.754 -14.866  -0.899  1.00  0.00    -0.283 OA
ENDBRANCH  22  24
ENDBRANCH   9  22
TORSDOF 5
ENDMDL
MODEL 4
REMARK VINA RESULT: -6.943655611      1.706      2.628
REMARK  5 active torsions:
REMARK  status: ('A' for Active; 'I' for Inactive)
REMARK    1  A    between atoms: N1_1  and  C1_4 
REMARK    2  A    between atoms: C2_7  and  N3_8 
REMARK    3  A    between atoms: N3_8  and  N4_10 
REMARK    4  A    between atoms: C5_19  and  N8_20 
REMARK    5  A    between atoms: N8_20  and  C6_22 
ROOT
HETATM    1  C1  UNL     1       6.805 -11.404   1.523  1.00  0.00     0.692 A 
HETATM    2  N2  UNL     1       6.134 -12.290   0.786  1.00  0.00    -0.021 N 
ATOM      3  H2  UNL     1       5.921 -11.967  -0.158  1.00  0.00     0.203 HD
HETATM    4  C2  UNL     1       5.682 -13.544   1.055  1.00  0.00     0.714 A 
HETATM    5  N7  UNL     1       5.863 -14.231   2.193  1.00  0.00    -0.151 N 
ATOM      6  H7  UNL     1       5.467 -15.171   2.200  1.00  0.00     0.188 HD
HETATM    7  C4  UNL     1       6.495 -13.861   3.340  1.00  0.00     0.304 A 
HETATM    8  O1  UNL     1       6.554 -14.683   4.288  1.00  0.00    -0.263 OA
HETATM    9  C5  UNL     1       7.106 -12.657   3.613  1.00  0.00     0.192 A 
HETATM   10  N9  UNL     1       7.257 -11.585   2.784  1.00  0.00    -0.171 N 
ATOM     11  H9  UNL     1       7.788 -10.806   3.173  1.00  0.00     0.186 HD
ENDROOT
BRANCH   4  12
HETATM   12  N3  UNL     1       5.014 -14.143   0.143  1.00  0.00    -0.129 N 
ATOM     13  H3  UNL     1       4.003 -14.027   0.070  1.00  0.00     0.205 HD
BRANCH  12  14
HETATM   14  N4  UNL     1       5.709 -14.958  -0.747  1.00  0.00    -0.262 N 
HETATM   15  C3  UNL     1       5.714 -16.241  -0.662  1.00  0.00     0.216 C 
HETATM   16  N5  UNL     1       5.004 -16.931   0.358  1.00  0.00    -0.065 NA
HETATM   17  N6  UNL     1       6.462 -16.972  -1.630  1.00  0.00    -0.065 NA
ATOM     18  H4  UNL     1       6.238 -14.518  -1.500  1.00  0.00     0.190 HD
ENDBRANCH  12  14
ENDBRANCH   4  12
BRANCH   1  19
HETATM   19  N1  UNL     1       7.080 -10.240   1.037  1.00  0.00    -0.234 N 
ATOM     20  H12 UNL     1       6.472  -9.966   0.266  1.00  0.00     0.174 HD
ATOM     21  H11 UNL     1       7.845  -9.693   1.431  1.00  0.00     0.174 HD
ENDBRANCH   1  19
BRANCH   9  22
HETATM   22  N8  UNL     1       7.603 -12.513   4.801  1.00  0.00    -0.315 N 
ATOM     23  H8  UNL     1       8.232 -13.234   5.154  1.00  0.00     0.170 HD
BRANCH  22  24
HETATM   24  C6  UNL     1       7.319 -11.411   5.630  1.00  0.00     0.354 C 
HETATM   25  O2  UNL     1       6.196 -10.879   5.597  1.00  0.00    -0.283 OA
ENDBRANCH  22  24
ENDBRANCH   9  22
TORSDOF 5
ENDMDL
MODEL 5
REMARK VINA RESULT: -6.893600360      1.554      2.028
REMARK  5 active torsions:
REMARK  status: ('A' for Active; 'I' for Inactive)
REMARK    1  A    between atoms: N1_1  and  C1_4 
REMARK    2  A    between atoms: C2_7  and  N3_8 
REMARK    3  A    between atoms: N3_8  and  N4_10 
REMARK    4  A    between atoms: C5_19  and  N8_20 
REMARK    5  A    between atoms: N8_20  and  C6_22 
ROOT
HETATM    1  C1  UNL     1       6.823 -13.922   3.569  1.00  0.00     0.692 A 
HETATM    2  N2  UNL     1       6.061 -13.848   2.476  1.00  0.00    -0.021 N 
ATOM      3  H2  UNL     1       5.832 -14.755   2.070  1.00  0.00     0.203 HD
HETATM    4  C2  UNL     1       5.534 -12.792   1.802  1.00  0.00     0.714 A 
HETATM    5  N7  UNL     1       5.636 -11.497   2.139  1.00  0.00    -0.151 N 
ATOM      6  H7  UNL     1       5.151 -10.848   1.519  1.00  0.00     0.188 HD
HETATM    7  C4  UNL     1       6.290 -10.921   3.184  1.00  0.00     0.304 A 
HETATM    8  O1  UNL     1       6.241  -9.672   3.311  1.00  0.00    -0.263 OA
HETATM    9  C5  UNL     1       7.030 -11.547   4.162  1.00  0.00     0.192 A 
HETATM   10  N9  UNL     1       7.235 -12.885   4.333  1.00  0.00    -0.171 N 
ATOM     11  H9  UNL     1       7.779 -13.141   5.157  1.00  0.00     0.186 HD
ENDROOT
BRANCH   4  12
HETATM   12  N3  UNL     1       4.870 -13.039   0.736  1.00  0.00    -0.129 N 
ATOM     13  H3  UNL     1       4.652 -12.298   0.069  1.00  0.00     0.205 HD
BRANCH  12  14
HETATM   14  N4  UNL     1       4.455 -14.350   0.514  1.00  0.00    -0.262 N 
HETATM   15  C3  UNL     1       5.191 -15.225  -0.075  1.00  0.00     0.216 C 
HETATM   16  N5  UNL     1       6.495 -14.918  -0.548  1.00  0.00    -0.065 NA
HETATM   17  N6  UNL     1       4.661 -16.536  -0.247  1.00  0.00    -0.065 NA
ATOM     18  H4  UNL     1       3.528 -14.628   0.832  1.00  0.00     0.190 HD
ENDBRANCH  12  14
ENDBRANCH   4  12
BRANCH   1  19
HETATM   19  N1  UNL     1       7.238 -15.070   3.988  1.00  0.00    -0.234 N 
ATOM     20  H12 UNL     1       6.484 -15.726   4.191  1.00  0.00     0.174 HD
ATOM     21  H11 UNL     1       8.238 -15.244   4.085  1.00  0.00     0.174 HD
ENDBRANCH   1  19
BRANCH   9  22
HETATM   22  N8  UNL     1       7.608 -10.783   5.035  1.00  0.00    -0.315 N 
ATOM     23  H8  UNL     1       8.403 -10.221   4.734  1.00  0.00     0.170 HD
BRANCH  22  24
HETATM   24  C6  UNL     1       7.194 -10.690   6.377  1.00  0.00     0.354 C 
HETATM   25  O2  UNL     1       7.543  -9.720   7.072  1.00  0.00    -0.283 OA
ENDBRANCH  22  24
ENDBRANCH   9  22
TORSDOF 5
ENDMDL
