MODEL 1
REMARK VINA RESULT: -7.372848150      0.000      0.000
REMARK  5 active torsions:
REMARK  status: ('A' for Active; 'I' for Inactive)
REMARK    1  A    between atoms: N1_1  and  C1_4 
REMARK    2  A    between atoms: N4_13  and  C5_15 
REMARK    3  A    between atoms: C5_15  and  C6_16 
REMARK    4  A    between atoms: C6_16  and  N5_17 
REMARK    5  A    between atoms: N7_24  and  O2_25 
ROOT
HETATM    1  C1  UNL     1       6.976 -11.422   4.497  1.00  0.00     0.695 C 
HETATM    2  N2  UNL     1       6.314 -10.767   3.523  1.00  0.00    -0.153 N 
ATOM      3  H2  UNL     1       6.070  -9.797   3.722  1.00  0.00     0.187 HD
HETATM    4  C2  UNL     1       5.934 -11.239   2.314  1.00  0.00     0.290 C 
HETATM    5  O1  UNL     1       5.455 -10.383   1.516  1.00  0.00    -0.265 OA
HETATM    6  C3  UNL     1       5.986 -12.526   1.805  1.00  0.00     0.166 A 
HETATM    7  N3  UNL     1       5.612 -12.921   0.589  1.00  0.00    -0.182 N 
ATOM      8  H3  UNL     1       5.232 -12.303  -0.128  1.00  0.00     0.184 HD
HETATM    9  C4  UNL     1       5.803 -14.256   0.433  1.00  0.00     0.680 A 
HETATM   10  N4  UNL     1       5.540 -14.947  -0.629  1.00  0.00    -0.224 N 
ATOM     11  H4  UNL     1       5.152 -14.506  -1.462  1.00  0.00     0.177 HD
HETATM   12  N6  UNL     1       6.312 -14.679   1.603  1.00  0.00    -0.170 N 
ATOM     13  H6  UNL     1       6.568 -15.645   1.810  1.00  0.00     0.186 HD
HETATM   14  C7  UNL     1       6.439 -13.643   2.472  1.00  0.00     0.200 A 
HETATM   15  N7  UNL     1       6.916 -13.738   3.721  1.00  0.00    -0.129 N 
HETATM   16  N8  UNL     1       7.071 -12.764   4.581  1.00  0.00    -0.104 N 
ATOM     17  H8  UNL     1       7.318 -13.091   5.515  1.00  0.00     0.208 HD
ENDROOT
BRANCH  10  18
HETATM   18  C5  UNL     1       5.816 -16.358  -0.592  1.00  0.00     0.165 C 
BRANCH  18  19
HETATM   19  C6  UNL     1       6.299 -16.883  -1.924  1.00  0.00     0.249 C 
BRANCH  19  20
HETATM   20  N5  UNL     1       6.377 -15.803  -2.864  1.00  0.00    -0.078 N 
ATOM     21  H53 UNL     1       5.854 -14.984  -2.554  1.00  0.00     0.274 HD
ATOM     22  H52 UNL     1       7.305 -15.382  -2.892  1.00  0.00     0.274 HD
ATOM     23  H51 UNL     1       6.075 -16.129  -3.782  1.00  0.00     0.274 HD
ENDBRANCH  19  20
ENDBRANCH  18  19
ENDBRANCH  10  18
BRANCH  15  24
HETATM   24  O2  UNL     1       7.227 -14.901   4.037  1.00  0.00    -0.266 OA
ATOM     25  H2  UNL     1       7.667 -14.953   4.877  1.00  0.00     0.247 HD
ENDBRANCH  15  24
BRANCH   1  26
HETATM   26  N1  UNL     1       7.551 -10.725   5.400  1.00  0.00    -0.233 N 
ATOM     27  H12 UNL     1       8.571 -10.714   5.418  1.00  0.00     0.174 HD
ATOM     28  H11 UNL     1       6.959 -10.214   6.055  1.00  0.00     0.174 HD
ENDBRANCH   1  26
TORSDOF 5
ENDMDL
MODEL 2
REMARK VINA RESULT: -7.181823115      0.930      1.167
REMARK  5 active torsions:
REMARK  status: ('A' for Active; 'I' for Inactive)
REMARK    1  A    between atoms: N1_1  and  C1_4 
REMARK    2  A    between atoms: N4_13  and  C5_15 
REMARK    3  A    between atoms: C5_15  and  C6_16 
REMARK    4  A    between atoms: C6_16  and  N5_17 
REMARK    5  A    between atoms: N7_24  and  O2_25 
ROOT
HETATM    1  C1  UNL     1       6.423 -11.352   4.493  1.00  0.00     0.695 C 
HETATM    2  N2  UNL     1       5.815 -10.774   3.438  1.00  0.00    -0.153 N 
ATOM      3  H2  UNL     1       5.415  -9.850   3.603  1.00  0.00     0.187 HD
HETATM    4  C2  UNL     1       5.671 -11.268   2.188  1.00  0.00     0.290 C 
HETATM    5  O1  UNL     1       5.191 -10.469   1.333  1.00  0.00    -0.265 OA
HETATM    6  C3  UNL     1       5.968 -12.526   1.688  1.00  0.00     0.166 A 
HETATM    7  N3  UNL     1       5.820 -12.943   0.432  1.00  0.00    -0.182 N 
ATOM      8  H3  UNL     1       5.460 -12.367  -0.329  1.00  0.00     0.184 HD
HETATM    9  C4  UNL     1       6.213 -14.236   0.301  1.00  0.00     0.680 A 
HETATM   10  N4  UNL     1       6.194 -14.934  -0.787  1.00  0.00    -0.224 N 
ATOM     11  H4  UNL     1       5.865 -14.534  -1.666  1.00  0.00     0.177 HD
HETATM   12  N6  UNL     1       6.612 -14.610   1.530  1.00  0.00    -0.170 N 
ATOM     13  H6  UNL     1       6.968 -15.536   1.768  1.00  0.00     0.186 HD
HETATM   14  C7  UNL     1       6.476 -13.584   2.410  1.00  0.00     0.200 A 
HETATM   15  N7  UNL     1       6.787 -13.639   3.712  1.00  0.00    -0.129 N 
HETATM   16  N8  UNL     1       6.689 -12.670   4.586  1.00  0.00    -0.104 N 
ATOM     17  H8  UNL     1       6.849 -12.979   5.545  1.00  0.00     0.208 HD
ENDROOT
BRANCH  10  18
HETATM   18  C5  UNL     1       6.654 -16.295  -0.716  1.00  0.00     0.165 C 
BRANCH  18  19
HETATM   19  C6  UNL     1       5.514 -17.282  -0.633  1.00  0.00     0.249 C 
BRANCH  19  20
HETATM   20  N5  UNL     1       5.545 -17.945   0.638  1.00  0.00    -0.078 N 
ATOM     21  H53 UNL     1       6.440 -17.828   1.111  1.00  0.00     0.274 HD
ATOM     22  H52 UNL     1       4.953 -17.484   1.328  1.00  0.00     0.274 HD
ATOM     23  H51 UNL     1       5.299 -18.927   0.515  1.00  0.00     0.274 HD
ENDBRANCH  19  20
ENDBRANCH  18  19
ENDBRANCH  10  18
BRANCH  15  24
HETATM   24  O2  UNL     1       7.210 -14.754   4.066  1.00  0.00    -0.266 OA
ATOM     25  H2  UNL     1       7.327 -15.355   3.340  1.00  0.00     0.247 HD
ENDBRANCH  15  24
BRANCH   1  26
HETATM   26  N1  UNL     1       6.768 -10.601   5.467  1.00  0.00    -0.233 N 
ATOM     27  H12 UNL     1       6.140 -10.540   6.268  1.00  0.00     0.174 HD
ATOM     28  H11 UNL     1       7.654 -10.102   5.391  1.00  0.00     0.174 HD
ENDBRANCH   1  26
TORSDOF 5
ENDMDL
MODEL 3
REMARK VINA RESULT: -7.074231932      1.485      6.355
REMARK  5 active torsions:
REMARK  status: ('A' for Active; 'I' for Inactive)
REMARK    1  A    between atoms: N1_1  and  C1_4 
REMARK    2  A    between atoms: N4_13  and  C5_15 
REMARK    3  A    between atoms: C5_15  and  C6_16 
REMARK    4  A    between atoms: C6_16  and  N5_17 
REMARK    5  A    between atoms: N7_24  and  O2_25 
ROOT
HETATM    1  C1  UNL     1       6.009 -15.399  -0.050  1.00  0.00     0.695 C 
HETATM    2  N2  UNL     1       6.574 -16.089   0.962  1.00  0.00    -0.153 N 
ATOM      3  H2  UNL     1       6.713 -17.086   0.800  1.00  0.00     0.187 HD
HETATM    4  C2  UNL     1       6.979 -15.620   2.163  1.00  0.00     0.290 C 
HETATM    5  O1  UNL     1       7.616 -16.438   2.886  1.00  0.00    -0.265 OA
HETATM    6  C3  UNL     1       6.804 -14.370   2.736  1.00  0.00     0.166 A 
HETATM    7  N3  UNL     1       7.251 -13.965   3.923  1.00  0.00    -0.182 N 
ATOM      8  H3  UNL     1       7.788 -14.545   4.567  1.00  0.00     0.184 HD
HETATM    9  C4  UNL     1       6.895 -12.676   4.161  1.00  0.00     0.680 A 
HETATM   10  N4  UNL     1       7.173 -11.989   5.221  1.00  0.00    -0.224 N 
ATOM     11  H4  UNL     1       7.708 -12.396   5.988  1.00  0.00     0.177 HD
HETATM   12  N6  UNL     1       6.206 -12.293   3.071  1.00  0.00    -0.170 N 
ATOM     13  H6  UNL     1       5.797 -11.368   2.938  1.00  0.00     0.186 HD
HETATM   14  C7  UNL     1       6.130 -13.309   2.172  1.00  0.00     0.200 A 
HETATM   15  N7  UNL     1       5.509 -13.244   0.986  1.00  0.00    -0.129 N 
HETATM   16  N8  UNL     1       5.429 -14.190   0.087  1.00  0.00    -0.104 N 
ATOM     17  H8  UNL     1       4.791 -13.964  -0.676  1.00  0.00     0.208 HD
ENDROOT
BRANCH  10  18
HETATM   18  C5  UNL     1       6.701 -10.632   5.280  1.00  0.00     0.165 C 
BRANCH  18  19
HETATM   19  C6  UNL     1       6.529 -10.146   6.700  1.00  0.00     0.249 C 
BRANCH  19  20
HETATM   20  N5  UNL     1       7.800  -9.738   7.224  1.00  0.00    -0.078 N 
ATOM     21  H53 UNL     1       8.561 -10.329   6.890  1.00  0.00     0.274 HD
ATOM     22  H52 UNL     1       8.116  -8.854   6.825  1.00  0.00     0.274 HD
ATOM     23  H51 UNL     1       7.754  -9.706   8.242  1.00  0.00     0.274 HD
ENDBRANCH  19  20
ENDBRANCH  18  19
ENDBRANCH  10  18
BRANCH  15  24
HETATM   24  O2  UNL     1       4.973 -12.140   0.776  1.00  0.00    -0.266 OA
ATOM     25  H2  UNL     1       5.600 -11.452   0.587  1.00  0.00     0.247 HD
ENDBRANCH  15  24
BRANCH   1  26
HETATM   26  N1  UNL     1       6.026 -15.927  -1.213  1.00  0.00    -0.233 N 
ATOM     27  H12 UNL     1       6.358 -15.357  -1.991  1.00  0.00     0.174 HD
ATOM     28  H11 UNL     1       5.706 -16.892  -1.302  1.00  0.00     0.174 HD
ENDBRANCH   1  26
TORSDOF 5
ENDMDL
MODEL 4
REMARK VINA RESULT: -6.991175692      2.803      3.943
REMARK  5 active torsions:
REMARK  status: ('A' for Active; 'I' for Inactive)
REMARK    1  A    between atoms: N1_1  and  C1_4 
REMARK    2  A    between atoms: N4_13  and  C5_15 
REMARK    3  A    between atoms: C5_15  and  C6_16 
REMARK    4  A    between atoms: C6_16  and  N5_17 
REMARK    5  A    between atoms: N7_24  and  O2_25 
ROOT
HETATM    1  C1  UNL     1       4.894 -11.730   1.754  1.00  0.00     0.695 C 
HETATM    2  N2  UNL     1       5.251 -11.790   3.053  1.00  0.00    -0.153 N 
ATOM      3  H2  UNL     1       5.017 -10.974   3.619  1.00  0.00     0.187 HD
HETATM    4  C2  UNL     1       5.880 -12.798   3.696  1.00  0.00     0.290 C 
HETATM    5  O1  UNL     1       5.972 -12.677   4.951  1.00  0.00    -0.265 OA
HETATM    6  C3  UNL     1       6.449 -13.958   3.192  1.00  0.00     0.166 A 
HETATM    7  N3  UNL     1       7.039 -14.927   3.889  1.00  0.00    -0.182 N 
ATOM      8  H3  UNL     1       7.144 -14.927   4.903  1.00  0.00     0.184 HD
HETATM    9  C4  UNL     1       7.482 -15.914   3.068  1.00  0.00     0.680 A 
HETATM   10  N4  UNL     1       8.096 -16.992   3.431  1.00  0.00    -0.224 N 
ATOM     11  H4  UNL     1       8.297 -17.180   4.413  1.00  0.00     0.177 HD
HETATM   12  N6  UNL     1       7.143 -15.519   1.827  1.00  0.00    -0.170 N 
ATOM     13  H6  UNL     1       7.338 -16.047   0.976  1.00  0.00     0.186 HD
HETATM   14  C7  UNL     1       6.506 -14.320   1.864  1.00  0.00     0.200 A 
HETATM   15  N7  UNL     1       6.044 -13.659   0.793  1.00  0.00    -0.129 N 
HETATM   16  N8  UNL     1       5.410 -12.515   0.788  1.00  0.00    -0.104 N 
ATOM     17  H8  UNL     1       5.277 -12.136  -0.150  1.00  0.00     0.208 HD
ENDROOT
BRANCH  10  18
HETATM   18  C5  UNL     1       8.485 -17.917   2.401  1.00  0.00     0.165 C 
BRANCH  18  19
HETATM   19  C6  UNL     1       9.986 -18.048   2.284  1.00  0.00     0.249 C 
BRANCH  19  20
HETATM   20  N5  UNL     1      10.525 -16.860   1.690  1.00  0.00    -0.078 N 
ATOM     21  H53 UNL     1      10.662 -16.961   0.684  1.00  0.00     0.274 HD
ATOM     22  H52 UNL     1       9.848 -16.097   1.668  1.00  0.00     0.274 HD
ATOM     23  H51 UNL     1      11.384 -16.598   2.172  1.00  0.00     0.274 HD
ENDBRANCH  19  20
ENDBRANCH  18  19
ENDBRANCH  10  18
BRANCH  15  24
HETATM   24  O2  UNL     1       6.271 -14.249  -0.279  1.00  0.00    -0.266 OA
ATOM     25  H2  UNL     1       6.130 -13.701  -1.042  1.00  0.00     0.247 HD
ENDBRANCH  15  24
BRANCH   1  26
HETATM   26  N1  UNL     1       4.009 -10.872   1.419  1.00  0.00    -0.233 N 
ATOM     27  H12 UNL     1       3.503 -10.392   2.163  1.00  0.00     0.174 HD
ATOM     28  H11 UNL     1       3.854 -10.712   0.423  1.00  0.00     0.174 HD
ENDBRANCH   1  26
TORSDOF 5
ENDMDL
MODEL 5
REMARK VINA RESULT: -6.720527018      1.612      6.077
REMARK  5 active torsions:
REMARK  status: ('A' for Active; 'I' for Inactive)
REMARK    1  A    between atoms: N1_1  and  C1_4 
REMARK    2  A    between atoms: N4_13  and  C5_15 
REMARK    3  A    between atoms: C5_15  and  C6_16 
REMARK    4  A    between atoms: C6_16  and  N5_17 
REMARK    5  A    between atoms: N7_24  and  O2_25 
ROOT
HETATM    1  C1  UNL     1       5.268 -14.723   0.922  1.00  0.00     0.695 C 
HETATM    2  N2  UNL     1       4.842 -13.473   0.652  1.00  0.00    -0.153 N 
ATOM      3  H2  UNL     1       4.410 -13.335  -0.261  1.00  0.00     0.187 HD
HETATM    4  C2  UNL     1       4.916 -12.380   1.445  1.00  0.00     0.290 C 
HETATM    5  O1  UNL     1       4.311 -11.354   1.023  1.00  0.00    -0.265 OA
HETATM    6  C3  UNL     1       5.560 -12.204   2.660  1.00  0.00     0.166 A 
HETATM    7  N3  UNL     1       5.575 -11.099   3.403  1.00  0.00    -0.182 N 
ATOM      8  H3  UNL     1       5.103 -10.230   3.156  1.00  0.00     0.184 HD
HETATM    9  C4  UNL     1       6.305 -11.286   4.533  1.00  0.00     0.680 A 
HETATM   10  N4  UNL     1       6.516 -10.409   5.461  1.00  0.00    -0.224 N 
ATOM     11  H4  UNL     1       6.123  -9.470   5.398  1.00  0.00     0.177 HD
HETATM   12  N6  UNL     1       6.746 -12.555   4.463  1.00  0.00    -0.170 N 
ATOM     13  H6  UNL     1       7.328 -13.006   5.168  1.00  0.00     0.186 HD
HETATM   14  C7  UNL     1       6.307 -13.152   3.324  1.00  0.00     0.200 A 
HETATM   15  N7  UNL     1       6.575 -14.414   2.963  1.00  0.00    -0.129 N 
HETATM   16  N8  UNL     1       6.157 -15.030   1.887  1.00  0.00    -0.104 N 
ATOM     17  H8  UNL     1       6.599 -15.939   1.750  1.00  0.00     0.208 HD
ENDROOT
BRANCH  10  18
HETATM   18  C5  UNL     1       7.322 -10.806   6.583  1.00  0.00     0.165 C 
BRANCH  18  19
HETATM   19  C6  UNL     1       7.739  -9.630   7.434  1.00  0.00     0.249 C 
BRANCH  19  20
HETATM   20  N5  UNL     1       6.632  -9.206   8.242  1.00  0.00    -0.078 N 
ATOM     21  H53 UNL     1       5.749  -9.245   7.734  1.00  0.00     0.274 HD
ATOM     22  H52 UNL     1       6.410  -9.880   8.974  1.00  0.00     0.274 HD
ATOM     23  H51 UNL     1       6.821  -8.278   8.618  1.00  0.00     0.274 HD
ENDBRANCH  19  20
ENDBRANCH  18  19
ENDBRANCH  10  18
BRANCH  15  24
HETATM   24  O2  UNL     1       7.301 -15.011   3.779  1.00  0.00    -0.266 OA
ATOM     25  H2  UNL     1       6.858 -15.730   4.215  1.00  0.00     0.247 HD
ENDBRANCH  15  24
BRANCH   1  26
HETATM   26  N1  UNL     1       4.798 -15.678   0.216  1.00  0.00    -0.233 N 
ATOM     27  H12 UNL     1       3.784 -15.762   0.141  1.00  0.00     0.174 HD
ATOM     28  H11 UNL     1       5.462 -16.307  -0.236  1.00  0.00     0.174 HD
ENDBRANCH   1  26
TORSDOF 5
ENDMDL
