MODEL 1
REMARK VINA RESULT: -5.862579105      0.000      0.000
REMARK  3 active torsions:
REMARK  status: ('A' for Active; 'I' for Inactive)
REMARK    1  A    between atoms: N1_1  and  N2_4 
REMARK       I    between atoms: N2_4  and  C1_6 
REMARK    2  A    between atoms: N4_8  and  C2_10 
REMARK    3  A    between atoms: C2_10  and  C3_11 
ROOT
HETATM    1  C2  UNL     1       6.267 -14.601   2.154  1.00  0.00     0.249 C 
HETATM    2  C4  UNL     1       6.375 -15.318   0.824  1.00  0.00     0.269 C 
HETATM    3  O2  UNL     1       5.413 -15.346   0.025  1.00  0.00    -0.269 OA
HETATM    4  N5  UNL     1       7.634 -15.936   0.574  1.00  0.00    -0.301 N 
ATOM      5  H5  UNL     1       7.976 -16.019  -0.383  1.00  0.00     0.171 HD
HETATM    6  C5  UNL     1       8.418 -16.439   1.649  1.00  0.00     0.181 C 
HETATM    7  S1  UNL     1       9.861 -17.154   1.423  1.00  0.00    -0.040 SA
HETATM    8  N6  UNL     1       7.898 -16.300   2.966  1.00  0.00    -0.301 N 
ATOM      9  H6  UNL     1       8.423 -16.645   3.769  1.00  0.00     0.171 HD
HETATM   10  C6  UNL     1       6.614 -15.663   3.148  1.00  0.00     0.269 C 
HETATM   11  O3  UNL     1       5.867 -15.990   4.073  1.00  0.00    -0.269 OA
ENDROOT
BRANCH   1  12
HETATM   12  N4  UNL     1       7.228 -13.533   2.215  1.00  0.00    -0.332 N 
HETATM   13  C1  UNL     1       7.304 -12.785   3.238  1.00  0.00     0.204 C 
HETATM   14  N2  UNL     1       8.262 -11.728   3.287  1.00  0.00    -0.280 N 
HETATM   15  N3  UNL     1       6.465 -12.962   4.347  1.00  0.00    -0.062 NA
ATOM     16  H2  UNL     1       9.184 -11.944   3.665  1.00  0.00     0.189 HD
ATOM     17  H4  UNL     1       7.856 -13.375   1.427  1.00  0.00     0.164 HD
BRANCH  14  18
HETATM   18  N1  UNL     1       8.035 -10.443   2.865  1.00  0.00    -0.343 N 
ATOM     19  H12 UNL     1       8.513 -10.155   2.011  1.00  0.00     0.176 HD
ATOM     20  H11 UNL     1       7.432  -9.771   3.339  1.00  0.00     0.176 HD
ENDBRANCH  14  18
ENDBRANCH   1  12
BRANCH   1  21
HETATM   21  C3  UNL     1       4.894 -14.117   2.274  1.00  0.00     0.282 C 
HETATM   22  O1  UNL     1       4.552 -13.146   1.633  1.00  0.00    -0.303 OA
ENDBRANCH   1  21
TORSDOF 3
ENDMDL
MODEL 2
REMARK VINA RESULT: -5.833223839      2.998      4.874
REMARK  3 active torsions:
REMARK  status: ('A' for Active; 'I' for Inactive)
REMARK    1  A    between atoms: N1_1  and  N2_4 
REMARK       I    between atoms: N2_4  and  C1_6 
REMARK    2  A    between atoms: N4_8  and  C2_10 
REMARK    3  A    between atoms: C2_10  and  C3_11 
ROOT
HETATM    1  C2  UNL     1       6.493 -12.265   2.603  1.00  0.00     0.249 C 
HETATM    2  C4  UNL     1       5.367 -11.939   3.561  1.00  0.00     0.269 C 
HETATM    3  O2  UNL     1       4.174 -11.959   3.186  1.00  0.00    -0.269 OA
HETATM    4  N5  UNL     1       5.778 -11.619   4.887  1.00  0.00    -0.301 N 
ATOM      5  H5  UNL     1       5.167 -11.840   5.673  1.00  0.00     0.171 HD
HETATM    6  C5  UNL     1       7.033 -10.993   5.123  1.00  0.00     0.181 C 
HETATM    7  S1  UNL     1       7.553 -10.606   6.615  1.00  0.00    -0.040 SA
HETATM    8  N6  UNL     1       7.848 -10.705   3.994  1.00  0.00    -0.301 N 
ATOM      9  H6  UNL     1       8.757 -10.257   4.113  1.00  0.00     0.171 HD
HETATM   10  C6  UNL     1       7.371 -11.056   2.676  1.00  0.00     0.269 C 
HETATM   11  O3  UNL     1       7.679 -10.386   1.689  1.00  0.00    -0.269 OA
ENDROOT
BRANCH   1  12
HETATM   12  N4  UNL     1       7.209 -13.424   3.063  1.00  0.00    -0.332 N 
HETATM   13  C1  UNL     1       6.865 -14.589   2.693  1.00  0.00     0.204 C 
HETATM   14  N2  UNL     1       7.583 -15.733   3.156  1.00  0.00    -0.280 N 
HETATM   15  N3  UNL     1       5.785 -14.800   1.825  1.00  0.00    -0.062 NA
ATOM     16  H2  UNL     1       8.381 -16.045   2.603  1.00  0.00     0.189 HD
ATOM     17  H4  UNL     1       8.001 -13.309   3.695  1.00  0.00     0.164 HD
BRANCH  14  18
HETATM   18  N1  UNL     1       7.280 -16.442   4.289  1.00  0.00    -0.343 N 
ATOM     19  H12 UNL     1       6.955 -15.902   5.091  1.00  0.00     0.176 HD
ATOM     20  H11 UNL     1       7.357 -17.455   4.381  1.00  0.00     0.176 HD
ENDBRANCH  14  18
ENDBRANCH   1  12
BRANCH   1  21
HETATM   21  C3  UNL     1       5.895 -12.471   1.285  1.00  0.00     0.282 C 
HETATM   22  O1  UNL     1       5.021 -11.720   0.910  1.00  0.00    -0.303 OA
ENDBRANCH   1  21
TORSDOF 3
ENDMDL
MODEL 3
REMARK VINA RESULT: -5.641300314      2.001      2.467
REMARK  3 active torsions:
REMARK  status: ('A' for Active; 'I' for Inactive)
REMARK    1  A    between atoms: N1_1  and  N2_4 
REMARK       I    between atoms: N2_4  and  C1_6 
REMARK    2  A    between atoms: N4_8  and  C2_10 
REMARK    3  A    between atoms: C2_10  and  C3_11 
ROOT
HETATM    1  C2  UNL     1       6.254 -14.651   1.830  1.00  0.00     0.249 C 
HETATM    2  C4  UNL     1       5.130 -14.582   0.817  1.00  0.00     0.269 C 
HETATM    3  O2  UNL     1       3.933 -14.572   1.181  1.00  0.00    -0.269 OA
HETATM    4  N5  UNL     1       5.548 -14.530  -0.544  1.00  0.00    -0.301 N 
ATOM      5  H5  UNL     1       4.978 -14.036  -1.230  1.00  0.00     0.171 HD
HETATM    6  C5  UNL     1       6.754 -15.164  -0.954  1.00  0.00     0.181 C 
HETATM    7  S1  UNL     1       7.280 -15.137  -2.493  1.00  0.00    -0.040 SA
HETATM    8  N6  UNL     1       7.514 -15.840   0.040  1.00  0.00    -0.301 N 
ATOM      9  H6  UNL     1       8.386 -16.309  -0.205  1.00  0.00     0.171 HD
HETATM   10  C6  UNL     1       7.032 -15.854   1.402  1.00  0.00     0.269 C 
HETATM   11  O3  UNL     1       7.259 -16.809   2.148  1.00  0.00    -0.269 OA
ENDROOT
BRANCH   1  12
HETATM   12  N4  UNL     1       7.073 -13.472   1.734  1.00  0.00    -0.332 N 
HETATM   13  C1  UNL     1       6.645 -12.348   2.140  1.00  0.00     0.204 C 
HETATM   14  N2  UNL     1       7.466 -11.186   2.040  1.00  0.00    -0.280 N 
HETATM   15  N3  UNL     1       5.367 -12.203   2.698  1.00  0.00    -0.062 NA
ATOM     16  H2  UNL     1       8.081 -10.973   2.826  1.00  0.00     0.189 HD
ATOM     17  H4  UNL     1       8.009 -13.541   1.334  1.00  0.00     0.164 HD
BRANCH  14  18
HETATM   18  N1  UNL     1       7.491 -10.333   0.966  1.00  0.00    -0.343 N 
ATOM     19  H12 UNL     1       7.835 -10.719   0.087  1.00  0.00     0.176 HD
ATOM     20  H11 UNL     1       7.195  -9.357   0.990  1.00  0.00     0.176 HD
ENDBRANCH  14  18
ENDBRANCH   1  12
BRANCH   1  21
HETATM   21  C3  UNL     1       5.641 -14.792   3.149  1.00  0.00     0.282 C 
HETATM   22  O1  UNL     1       6.342 -15.062   4.100  1.00  0.00    -0.303 OA
ENDBRANCH   1  21
TORSDOF 3
ENDMDL
MODEL 4
REMARK VINA RESULT: -5.419820854      2.031      2.610
REMARK  3 active torsions:
REMARK  status: ('A' for Active; 'I' for Inactive)
REMARK    1  A    between atoms: N1_1  and  N2_4 
REMARK       I    between atoms: N2_4  and  C1_6 
REMARK    2  A    between atoms: N4_8  and  C2_10 
REMARK    3  A    between atoms: C2_10  and  C3_11 
ROOT
HETATM    1  C2  UNL     1       5.974 -13.280   2.956  1.00  0.00     0.249 C 
HETATM    2  C4  UNL     1       4.911 -13.209   1.879  1.00  0.00     0.269 C 
HETATM    3  O2  UNL     1       3.780 -12.731   2.119  1.00  0.00    -0.269 OA
HETATM    4  N5  UNL     1       5.305 -13.719   0.609  1.00  0.00    -0.301 N 
ATOM      5  H5  UNL     1       4.905 -13.324  -0.242  1.00  0.00     0.171 HD
HETATM    6  C5  UNL     1       6.253 -14.776   0.518  1.00  0.00     0.181 C 
HETATM    7  S1  UNL     1       6.740 -15.397  -0.905  1.00  0.00    -0.040 SA
HETATM    8  N6  UNL     1       6.783 -15.293   1.732  1.00  0.00    -0.301 N 
ATOM      9  H6  UNL     1       7.465 -16.050   1.718  1.00  0.00     0.171 HD
HETATM   10  C6  UNL     1       6.339 -14.730   2.987  1.00  0.00     0.269 C 
HETATM   11  O3  UNL     1       6.272 -15.420   4.006  1.00  0.00    -0.269 OA
ENDROOT
BRANCH   1  12
HETATM   12  N4  UNL     1       7.113 -12.490   2.572  1.00  0.00    -0.332 N 
HETATM   13  C1  UNL     1       7.008 -11.236   2.404  1.00  0.00     0.204 C 
HETATM   14  N2  UNL     1       8.145 -10.463   2.024  1.00  0.00    -0.280 N 
HETATM   15  N3  UNL     1       5.789 -10.566   2.583  1.00  0.00    -0.062 NA
ATOM     16  H2  UNL     1       8.726 -10.079   2.770  1.00  0.00     0.189 HD
ATOM     17  H4  UNL     1       8.016 -12.943   2.434  1.00  0.00     0.164 HD
BRANCH  14  18
HETATM   18  N1  UNL     1       8.517 -10.197   0.731  1.00  0.00    -0.343 N 
ATOM     19  H12 UNL     1       8.454  -9.225   0.431  1.00  0.00     0.176 HD
ATOM     20  H11 UNL     1       8.845 -10.895   0.064  1.00  0.00     0.176 HD
ENDBRANCH  14  18
ENDBRANCH   1  12
BRANCH   1  21
HETATM   21  C3  UNL     1       5.365 -12.805   4.197  1.00  0.00     0.282 C 
HETATM   22  O1  UNL     1       6.081 -12.474   5.117  1.00  0.00    -0.303 OA
ENDBRANCH   1  21
TORSDOF 3
ENDMDL
MODEL 5
REMARK VINA RESULT: -5.417057012      2.407      4.645
REMARK  3 active torsions:
REMARK  status: ('A' for Active; 'I' for Inactive)
REMARK    1  A    between atoms: N1_1  and  N2_4 
REMARK       I    between atoms: N2_4  and  C1_6 
REMARK    2  A    between atoms: N4_8  and  C2_10 
REMARK    3  A    between atoms: C2_10  and  C3_11 
ROOT
HETATM    1  C2  UNL     1       6.227 -15.178   1.557  1.00  0.00     0.249 C 
HETATM    2  C4  UNL     1       6.742 -14.583   2.852  1.00  0.00     0.269 C 
HETATM    3  O2  UNL     1       6.739 -15.245   3.913  1.00  0.00    -0.269 OA
HETATM    4  N5  UNL     1       7.216 -13.243   2.752  1.00  0.00    -0.301 N 
ATOM      5  H5  UNL     1       7.965 -12.925   3.365  1.00  0.00     0.171 HD
HETATM    6  C5  UNL     1       6.651 -12.346   1.803  1.00  0.00     0.181 C 
HETATM    7  S1  UNL     1       7.152 -10.807   1.646  1.00  0.00    -0.040 SA
HETATM    8  N6  UNL     1       5.608 -12.838   0.971  1.00  0.00    -0.301 N 
ATOM      9  H6  UNL     1       5.172 -12.232   0.275  1.00  0.00     0.171 HD
HETATM   10  C6  UNL     1       5.175 -14.207   1.125  1.00  0.00     0.269 C 
HETATM   11  O3  UNL     1       4.006 -14.533   0.908  1.00  0.00    -0.269 OA
ENDROOT
BRANCH   1  12
HETATM   12  N4  UNL     1       7.286 -15.226   0.585  1.00  0.00    -0.332 N 
HETATM   13  C1  UNL     1       7.089 -15.726  -0.566  1.00  0.00     0.204 C 
HETATM   14  N2  UNL     1       8.146 -15.768  -1.523  1.00  0.00    -0.280 N 
HETATM   15  N3  UNL     1       5.843 -16.247  -0.941  1.00  0.00    -0.062 NA
ATOM     16  H2  UNL     1       8.252 -14.967  -2.146  1.00  0.00     0.189 HD
ATOM     17  H4  UNL     1       8.205 -14.855   0.822  1.00  0.00     0.164 HD
BRANCH  14  18
HETATM   18  N1  UNL     1       9.031 -16.805  -1.669  1.00  0.00    -0.343 N 
ATOM     19  H12 UNL     1       8.783 -17.682  -1.210  1.00  0.00     0.176 HD
ATOM     20  H11 UNL     1       9.904 -16.758  -2.195  1.00  0.00     0.176 HD
ENDBRANCH  14  18
ENDBRANCH   1  12
BRANCH   1  21
HETATM   21  C3  UNL     1       5.703 -16.506   1.870  1.00  0.00     0.282 C 
HETATM   22  O1  UNL     1       6.479 -17.410   2.090  1.00  0.00    -0.303 OA
ENDBRANCH   1  21
TORSDOF 3
ENDMDL
