MODEL 1
REMARK VINA RESULT: -6.971711578      0.000      0.000
REMARK  3 active torsions:
REMARK  status: ('A' for Active; 'I' for Inactive)
REMARK    1  A    between atoms: N1_1  and  N2_4 
REMARK    2  A    between atoms: N2_4  and  N3_6 
REMARK    3  A    between atoms: N3_6  and  C1_8 
ROOT
HETATM    1  C1  UNL     1     -15.910   3.453  -1.898  1.00  0.00     0.194 C 
HETATM    2  N4  UNL     1     -16.838   3.253  -0.920  1.00  0.00    -0.289 N 
ATOM      3  H4  UNL     1     -17.045   2.283  -0.682  1.00  0.00     0.172 HD
HETATM    4  C2  UNL     1     -17.511   4.197  -0.234  1.00  0.00     0.330 C 
HETATM    5  O1  UNL     1     -18.379   3.801   0.602  1.00  0.00    -0.246 OA
HETATM    6  N5  UNL     1     -17.397   5.550  -0.305  1.00  0.00    -0.260 N 
ATOM      7  H5  UNL     1     -18.141   6.070   0.161  1.00  0.00     0.175 HD
HETATM    8  C3  UNL     1     -16.455   6.310  -0.893  1.00  0.00     0.331 C 
HETATM    9  O2  UNL     1     -16.476   7.532  -0.596  1.00  0.00    -0.246 OA
HETATM   10  N6  UNL     1     -15.521   5.862  -1.751  1.00  0.00    -0.272 N 
ATOM     11  H6  UNL     1     -14.947   6.593  -2.170  1.00  0.00     0.174 HD
HETATM   12  C4  UNL     1     -15.213   4.615  -2.152  1.00  0.00     0.295 C 
HETATM   13  O3  UNL     1     -14.169   4.495  -2.837  1.00  0.00    -0.264 OA
ENDROOT
BRANCH   1  14
HETATM   14  N3  UNL     1     -15.686   2.448  -2.638  1.00  0.00    -0.267 N 
ATOM     15  H3  UNL     1     -15.454   1.576  -2.163  1.00  0.00     0.190 HD
BRANCH  14  16
HETATM   16  N2  UNL     1     -15.722   2.406  -4.022  1.00  0.00    -0.248 N 
ATOM     17  H2  UNL     1     -16.598   2.542  -4.528  1.00  0.00     0.207 HD
BRANCH  16  18
HETATM   18  N1  UNL     1     -14.622   2.193  -4.652  1.00  0.00    -0.331 N 
ATOM     19  H12 UNL     1     -14.250   1.245  -4.721  1.00  0.00     0.178 HD
ATOM     20  H11 UNL     1     -14.144   2.990  -5.072  1.00  0.00     0.178 HD
ENDBRANCH  16  18
ENDBRANCH  14  16
ENDBRANCH   1  14
TORSDOF 3
ENDMDL
MODEL 2
REMARK VINA RESULT: -6.749357791      1.973      4.325
REMARK  3 active torsions:
REMARK  status: ('A' for Active; 'I' for Inactive)
REMARK    1  A    between atoms: N1_1  and  N2_4 
REMARK    2  A    between atoms: N2_4  and  N3_6 
REMARK    3  A    between atoms: N3_6  and  C1_8 
ROOT
HETATM    1  C1  UNL     1     -15.929   6.250  -1.317  1.00  0.00     0.194 C 
HETATM    2  N4  UNL     1     -15.896   5.351  -2.340  1.00  0.00    -0.289 N 
ATOM      3  H4  UNL     1     -15.620   5.712  -3.253  1.00  0.00     0.172 HD
HETATM    4  C2  UNL     1     -16.189   4.038  -2.276  1.00  0.00     0.330 C 
HETATM    5  O1  UNL     1     -16.153   3.379  -3.360  1.00  0.00    -0.246 OA
HETATM    6  N5  UNL     1     -16.528   3.289  -1.193  1.00  0.00    -0.260 N 
ATOM      7  H5  UNL     1     -16.897   2.362  -1.408  1.00  0.00     0.175 HD
HETATM    8  C3  UNL     1     -16.452   3.580   0.119  1.00  0.00     0.331 C 
HETATM    9  O2  UNL     1     -16.611   2.610   0.904  1.00  0.00    -0.246 OA
HETATM   10  N6  UNL     1     -16.223   4.803   0.631  1.00  0.00    -0.272 N 
ATOM     11  H6  UNL     1     -16.290   4.855   1.647  1.00  0.00     0.174 HD
HETATM   12  C4  UNL     1     -15.920   5.969   0.032  1.00  0.00     0.295 C 
HETATM   13  O3  UNL     1     -15.591   6.913   0.792  1.00  0.00    -0.264 OA
ENDROOT
BRANCH   1  14
HETATM   14  N3  UNL     1     -15.972   7.467  -1.674  1.00  0.00    -0.267 N 
ATOM     15  H3  UNL     1     -16.896   7.898  -1.708  1.00  0.00     0.190 HD
BRANCH  14  16
HETATM   16  N2  UNL     1     -14.900   8.272  -2.022  1.00  0.00    -0.248 N 
ATOM     17  H2  UNL     1     -14.567   8.313  -2.986  1.00  0.00     0.207 HD
BRANCH  16  18
HETATM   18  N1  UNL     1     -14.338   8.968  -1.099  1.00  0.00    -0.331 N 
ATOM     19  H12 UNL     1     -14.886   9.639  -0.561  1.00  0.00     0.178 HD
ATOM     20  H11 UNL     1     -13.342   8.827  -0.928  1.00  0.00     0.178 HD
ENDBRANCH  16  18
ENDBRANCH  14  16
ENDBRANCH   1  14
TORSDOF 3
ENDMDL
MODEL 3
REMARK VINA RESULT: -6.679252536      1.459      2.809
REMARK  3 active torsions:
REMARK  status: ('A' for Active; 'I' for Inactive)
REMARK    1  A    between atoms: N1_1  and  N2_4 
REMARK    2  A    between atoms: N2_4  and  N3_6 
REMARK    3  A    between atoms: N3_6  and  C1_8 
ROOT
HETATM    1  C1  UNL     1     -15.298   4.377  -1.321  1.00  0.00     0.194 C 
HETATM    2  N4  UNL     1     -15.716   5.664  -1.156  1.00  0.00    -0.289 N 
ATOM      3  H4  UNL     1     -15.202   6.378  -1.672  1.00  0.00     0.172 HD
HETATM    4  C2  UNL     1     -16.733   6.095  -0.385  1.00  0.00     0.330 C 
HETATM    5  O1  UNL     1     -16.927   7.347  -0.323  1.00  0.00    -0.246 OA
HETATM    6  N5  UNL     1     -17.610   5.369   0.359  1.00  0.00    -0.260 N 
ATOM      7  H5  UNL     1     -18.171   5.912   1.015  1.00  0.00     0.175 HD
HETATM    8  C3  UNL     1     -17.851   4.045   0.364  1.00  0.00     0.331 C 
HETATM    9  O2  UNL     1     -18.884   3.681   0.985  1.00  0.00    -0.246 OA
HETATM   10  N6  UNL     1     -17.087   3.114  -0.234  1.00  0.00    -0.272 N 
ATOM     11  H6  UNL     1     -17.371   2.152  -0.049  1.00  0.00     0.174 HD
HETATM   12  C4  UNL     1     -16.011   3.233  -1.033  1.00  0.00     0.295 C 
HETATM   13  O3  UNL     1     -15.610   2.179  -1.583  1.00  0.00    -0.264 OA
ENDROOT
BRANCH   1  14
HETATM   14  N3  UNL     1     -14.126   4.250  -1.788  1.00  0.00    -0.267 N 
ATOM     15  H3  UNL     1     -13.377   4.118  -1.108  1.00  0.00     0.190 HD
BRANCH  14  16
HETATM   16  N2  UNL     1     -13.754   4.270  -3.122  1.00  0.00    -0.248 N 
ATOM     17  H2  UNL     1     -13.066   4.942  -3.463  1.00  0.00     0.207 HD
BRANCH  16  18
HETATM   18  N1  UNL     1     -14.298   3.420  -3.918  1.00  0.00    -0.331 N 
ATOM     19  H12 UNL     1     -14.471   2.466  -3.602  1.00  0.00     0.178 HD
ATOM     20  H11 UNL     1     -14.543   3.729  -4.858  1.00  0.00     0.178 HD
ENDBRANCH  16  18
ENDBRANCH  14  16
ENDBRANCH   1  14
TORSDOF 3
ENDMDL
MODEL 4
REMARK VINA RESULT: -6.671434488      2.250      4.671
REMARK  3 active torsions:
REMARK  status: ('A' for Active; 'I' for Inactive)
REMARK    1  A    between atoms: N1_1  and  N2_4 
REMARK    2  A    between atoms: N2_4  and  N3_6 
REMARK    3  A    between atoms: N3_6  and  C1_8 
ROOT
HETATM    1  C1  UNL     1     -16.170   5.582   0.478  1.00  0.00     0.194 C 
HETATM    2  N4  UNL     1     -15.935   4.280   0.804  1.00  0.00    -0.289 N 
ATOM      3  H4  UNL     1     -16.348   3.949   1.676  1.00  0.00     0.172 HD
HETATM    4  C2  UNL     1     -15.218   3.384   0.100  1.00  0.00     0.330 C 
HETATM    5  O1  UNL     1     -15.070   2.230   0.606  1.00  0.00    -0.246 OA
HETATM    6  N5  UNL     1     -14.610   3.532  -1.107  1.00  0.00    -0.260 N 
ATOM      7  H5  UNL     1     -13.960   2.787  -1.358  1.00  0.00     0.175 HD
HETATM    8  C3  UNL     1     -14.733   4.511  -2.023  1.00  0.00     0.331 C 
HETATM    9  O2  UNL     1     -14.231   4.269  -3.151  1.00  0.00    -0.246 OA
HETATM   10  N6  UNL     1     -15.340   5.694  -1.819  1.00  0.00    -0.272 N 
ATOM     11  H6  UNL     1     -15.259   6.350  -2.595  1.00  0.00     0.174 HD
HETATM   12  C4  UNL     1     -16.037   6.160  -0.766  1.00  0.00     0.295 C 
HETATM   13  O3  UNL     1     -16.635   7.250  -0.937  1.00  0.00    -0.264 OA
ENDROOT
BRANCH   1  14
HETATM   14  N3  UNL     1     -16.548   6.316   1.440  1.00  0.00    -0.267 N 
ATOM     15  H3  UNL     1     -17.530   6.246   1.708  1.00  0.00     0.190 HD
BRANCH  14  16
HETATM   16  N2  UNL     1     -15.773   7.203   2.168  1.00  0.00    -0.248 N 
ATOM     17  H2  UNL     1     -15.224   7.925   1.700  1.00  0.00     0.207 HD
BRANCH  16  18
HETATM   18  N1  UNL     1     -15.763   7.093   3.449  1.00  0.00    -0.331 N 
ATOM     19  H12 UNL     1     -15.334   6.278   3.887  1.00  0.00     0.178 HD
ATOM     20  H11 UNL     1     -16.194   7.836   3.999  1.00  0.00     0.178 HD
ENDBRANCH  16  18
ENDBRANCH  14  16
ENDBRANCH   1  14
TORSDOF 3
ENDMDL
MODEL 5
REMARK VINA RESULT: -6.596651882      2.010      4.458
REMARK  3 active torsions:
REMARK  status: ('A' for Active; 'I' for Inactive)
REMARK    1  A    between atoms: N1_1  and  N2_4 
REMARK    2  A    between atoms: N2_4  and  N3_6 
REMARK    3  A    between atoms: N3_6  and  C1_8 
ROOT
HETATM    1  C1  UNL     1     -15.950   5.914   0.270  1.00  0.00     0.194 C 
HETATM    2  N4  UNL     1     -16.575   4.803   0.754  1.00  0.00    -0.289 N 
ATOM      3  H4  UNL     1     -16.920   4.857   1.712  1.00  0.00     0.172 HD
HETATM    4  C2  UNL     1     -16.786   3.643   0.104  1.00  0.00     0.330 C 
HETATM    5  O1  UNL     1     -17.339   2.704   0.752  1.00  0.00    -0.246 OA
HETATM    6  N5  UNL     1     -16.486   3.316  -1.182  1.00  0.00    -0.260 N 
ATOM      7  H5  UNL     1     -16.556   2.322  -1.401  1.00  0.00     0.175 HD
HETATM    8  C3  UNL     1     -16.110   4.100  -2.209  1.00  0.00     0.331 C 
HETATM    9  O2  UNL     1     -16.129   3.558  -3.345  1.00  0.00    -0.246 OA
HETATM   10  N6  UNL     1     -15.730   5.386  -2.106  1.00  0.00    -0.272 N 
ATOM     11  H6  UNL     1     -15.391   5.797  -2.976  1.00  0.00     0.174 HD
HETATM   12  C4  UNL     1     -15.718   6.223  -1.052  1.00  0.00     0.295 C 
HETATM   13  O3  UNL     1     -15.467   7.426  -1.304  1.00  0.00    -0.264 OA
ENDROOT
BRANCH   1  14
HETATM   14  N3  UNL     1     -15.550   6.731   1.154  1.00  0.00    -0.267 N 
ATOM     15  H3  UNL     1     -14.626   7.139   1.011  1.00  0.00     0.190 HD
BRANCH  14  16
HETATM   16  N2  UNL     1     -16.232   7.129   2.292  1.00  0.00    -0.248 N 
ATOM     17  H2  UNL     1     -17.197   7.456   2.236  1.00  0.00     0.207 HD
BRANCH  16  18
HETATM   18  N1  UNL     1     -15.616   7.076   3.419  1.00  0.00    -0.331 N 
ATOM     19  H12 UNL     1     -14.597   7.034   3.441  1.00  0.00     0.178 HD
ATOM     20  H11 UNL     1     -16.174   7.077   4.273  1.00  0.00     0.178 HD
ENDBRANCH  16  18
ENDBRANCH  14  16
ENDBRANCH   1  14
TORSDOF 3
ENDMDL
