MODEL 1
REMARK VINA RESULT: -7.374066836      0.000      0.000
REMARK  4 active torsions:
REMARK  status: ('A' for Active; 'I' for Inactive)
REMARK    1  A    between atoms: N1_1  and  C1_5 
REMARK    2  A    between atoms: C1_5  and  C2_6 
REMARK    3  A    between atoms: C2_6  and  C3_7 
REMARK    4  A    between atoms: C5_12  and  C6_13 
ROOT
HETATM    1  C3  UNL     1     -15.804   3.133  -2.889  1.00  0.00     0.106 A 
HETATM    2  N2  UNL     1     -15.855   2.359  -1.798  1.00  0.00    -0.308 N 
ATOM      3  H2  UNL     1     -15.894   1.340  -1.785  1.00  0.00     0.170 HD
HETATM    4  C4  UNL     1     -15.844   3.165  -0.724  1.00  0.00     0.276 A 
HETATM    5  O1  UNL     1     -15.881   2.801   0.486  1.00  0.00    -0.266 OA
HETATM    6  C5  UNL     1     -15.786   4.467  -1.155  1.00  0.00     0.135 A 
HETATM    7  N5  UNL     1     -15.762   4.418  -2.494  1.00  0.00    -0.336 N 
ATOM      8  H5  UNL     1     -15.720   5.227  -3.115  1.00  0.00     0.168 HD
ENDROOT
BRANCH   6   9
HETATM    9  C6  UNL     1     -15.759   5.568  -0.382  1.00  0.00     0.137 A 
HETATM   10  N3  UNL     1     -15.812   5.673   1.025  1.00  0.00    -0.302 N 
HETATM   11  C7  UNL     1     -15.756   7.030   1.437  1.00  0.00     0.327 A 
ATOM     12  H3  UNL     1     -15.880   4.880   1.661  1.00  0.00     0.171 HD
HETATM   13  O2  UNL     1     -15.783   7.445   2.634  1.00  0.00    -0.247 OA
HETATM   14  N4  UNL     1     -15.666   7.824   0.278  1.00  0.00    -0.274 N 
HETATM   15  C8  UNL     1     -15.665   6.953  -0.859  1.00  0.00     0.278 A 
ATOM     16  H4  UNL     1     -15.610   8.842   0.253  1.00  0.00     0.173 HD
HETATM   17  O3  UNL     1     -15.595   7.363  -2.034  1.00  0.00    -0.265 OA
ENDBRANCH   6   9
BRANCH   1  18
HETATM   18  C2  UNL     1     -15.799   2.648  -4.120  1.00  0.00     0.048 C 
BRANCH  18  19
HETATM   19  C1  UNL     1     -14.559   2.257  -4.820  1.00  0.00     0.260 C 
BRANCH  19  20
HETATM   20  N1  UNL     1     -14.859   1.509  -6.050  1.00  0.00    -0.076 N 
ATOM     21  H13 UNL     1     -14.826   2.110  -6.873  1.00  0.00     0.274 HD
ATOM     22  H12 UNL     1     -14.103   0.869  -6.294  1.00  0.00     0.274 HD
ATOM     23  H11 UNL     1     -15.753   1.023  -5.975  1.00  0.00     0.274 HD
ENDBRANCH  19  20
ENDBRANCH  18  19
ENDBRANCH   1  18
TORSDOF 4
ENDMDL
MODEL 2
REMARK VINA RESULT: -7.340035194      1.740      6.298
REMARK  4 active torsions:
REMARK  status: ('A' for Active; 'I' for Inactive)
REMARK    1  A    between atoms: N1_1  and  C1_5 
REMARK    2  A    between atoms: C1_5  and  C2_6 
REMARK    3  A    between atoms: C2_6  and  C3_7 
REMARK    4  A    between atoms: C5_12  and  C6_13 
ROOT
HETATM    1  C3  UNL     1     -15.798   7.017   1.385  1.00  0.00     0.106 A 
HETATM    2  N2  UNL     1     -15.705   7.814   0.313  1.00  0.00    -0.308 N 
ATOM      3  H2  UNL     1     -15.687   8.833   0.322  1.00  0.00     0.170 HD
HETATM    4  C4  UNL     1     -15.640   7.031  -0.775  1.00  0.00     0.276 A 
HETATM    5  O1  UNL     1     -15.545   7.421  -1.974  1.00  0.00    -0.266 OA
HETATM    6  C5  UNL     1     -15.693   5.719  -0.374  1.00  0.00     0.135 A 
HETATM    7  N5  UNL     1     -15.791   5.740   0.962  1.00  0.00    -0.336 N 
ATOM      8  H5  UNL     1     -15.850   4.918   1.564  1.00  0.00     0.168 HD
ENDROOT
BRANCH   6   9
HETATM    9  C6  UNL     1     -15.656   4.634  -1.169  1.00  0.00     0.137 A 
HETATM   10  N3  UNL     1     -15.162   4.508  -2.486  1.00  0.00    -0.302 N 
HETATM   11  C7  UNL     1     -15.314   3.181  -2.962  1.00  0.00     0.327 A 
ATOM     12  H3  UNL     1     -14.750   5.270  -3.024  1.00  0.00     0.171 HD
HETATM   13  O2  UNL     1     -14.966   2.756  -4.105  1.00  0.00    -0.247 OA
HETATM   14  N4  UNL     1     -15.918   2.427  -1.938  1.00  0.00    -0.274 N 
HETATM   15  C8  UNL     1     -16.142   3.294  -0.821  1.00  0.00     0.278 A 
ATOM     16  H4  UNL     1     -16.156   1.436  -1.985  1.00  0.00     0.173 HD
HETATM   17  O3  UNL     1     -16.666   2.915   0.245  1.00  0.00    -0.265 OA
ENDBRANCH   6   9
BRANCH   1  18
HETATM   18  C2  UNL     1     -15.880   7.475   2.623  1.00  0.00     0.048 C 
BRANCH  18  19
HETATM   19  C1  UNL     1     -14.697   7.905   3.396  1.00  0.00     0.260 C 
BRANCH  19  20
HETATM   20  N1  UNL     1     -14.654   7.244   4.708  1.00  0.00    -0.076 N 
ATOM     21  H13 UNL     1     -15.403   7.571   5.318  1.00  0.00     0.274 HD
ATOM     22  H12 UNL     1     -14.922   6.262   4.643  1.00  0.00     0.274 HD
ATOM     23  H11 UNL     1     -13.738   7.355   5.145  1.00  0.00     0.274 HD
ENDBRANCH  19  20
ENDBRANCH  18  19
ENDBRANCH   1  18
TORSDOF 4
ENDMDL
MODEL 3
REMARK VINA RESULT: -6.938369979      1.247      1.342
REMARK  4 active torsions:
REMARK  status: ('A' for Active; 'I' for Inactive)
REMARK    1  A    between atoms: N1_1  and  C1_5 
REMARK    2  A    between atoms: C1_5  and  C2_6 
REMARK    3  A    between atoms: C2_6  and  C3_7 
REMARK    4  A    between atoms: C5_12  and  C6_13 
ROOT
HETATM    1  C3  UNL     1     -15.393   3.688  -2.181  1.00  0.00     0.106 A 
HETATM    2  N2  UNL     1     -16.416   3.321  -1.398  1.00  0.00    -0.308 N 
ATOM      3  H2  UNL     1     -16.860   2.404  -1.380  1.00  0.00     0.170 HD
HETATM    4  C4  UNL     1     -16.751   4.379  -0.642  1.00  0.00     0.276 A 
HETATM    5  O1  UNL     1     -17.673   4.420   0.221  1.00  0.00    -0.266 OA
HETATM    6  C5  UNL     1     -15.920   5.425  -0.960  1.00  0.00     0.135 A 
HETATM    7  N5  UNL     1     -15.093   4.971  -1.911  1.00  0.00    -0.336 N 
ATOM      8  H5  UNL     1     -14.354   5.512  -2.360  1.00  0.00     0.168 HD
ENDROOT
BRANCH   6   9
HETATM    9  C6  UNL     1     -15.939   6.658  -0.421  1.00  0.00     0.137 A 
HETATM   10  N3  UNL     1     -16.115   7.041   0.927  1.00  0.00    -0.302 N 
HETATM   11  C7  UNL     1     -16.067   8.451   1.066  1.00  0.00     0.327 A 
ATOM     12  H3  UNL     1     -16.258   6.390   1.699  1.00  0.00     0.171 HD
HETATM   13  O2  UNL     1     -16.192   9.096   2.150  1.00  0.00    -0.247 OA
HETATM   14  N4  UNL     1     -15.856   8.999  -0.213  1.00  0.00    -0.274 N 
HETATM   15  C8  UNL     1     -15.773   7.920  -1.151  1.00  0.00     0.278 A 
ATOM     16  H4  UNL     1     -15.777   9.992  -0.433  1.00  0.00     0.173 HD
HETATM   17  O3  UNL     1     -15.588   8.087  -2.372  1.00  0.00    -0.265 OA
ENDBRANCH   6   9
BRANCH   1  18
HETATM   18  C2  UNL     1     -14.820   2.872  -3.051  1.00  0.00     0.048 C 
BRANCH  18  19
HETATM   19  C1  UNL     1     -15.478   2.447  -4.303  1.00  0.00     0.260 C 
BRANCH  19  20
HETATM   20  N1  UNL     1     -14.492   1.976  -5.286  1.00  0.00    -0.076 N 
ATOM     21  H13 UNL     1     -13.556   2.324  -5.075  1.00  0.00     0.274 HD
ATOM     22  H12 UNL     1     -14.313   0.977  -5.189  1.00  0.00     0.274 HD
ATOM     23  H11 UNL     1     -14.777   2.217  -6.236  1.00  0.00     0.274 HD
ENDBRANCH  19  20
ENDBRANCH  18  19
ENDBRANCH   1  18
TORSDOF 4
ENDMDL
MODEL 4
REMARK VINA RESULT: -6.897929005      2.189      6.025
REMARK  4 active torsions:
REMARK  status: ('A' for Active; 'I' for Inactive)
REMARK    1  A    between atoms: N1_1  and  C1_5 
REMARK    2  A    between atoms: C1_5  and  C2_6 
REMARK    3  A    between atoms: C2_6  and  C3_7 
REMARK    4  A    between atoms: C5_12  and  C6_13 
ROOT
HETATM    1  C3  UNL     1     -15.678   6.787   0.962  1.00  0.00     0.106 A 
HETATM    2  N2  UNL     1     -16.923   6.298   1.028  1.00  0.00    -0.308 N 
ATOM      3  H2  UNL     1     -17.667   6.627   1.642  1.00  0.00     0.170 HD
HETATM    4  C4  UNL     1     -17.016   5.297   0.138  1.00  0.00     0.276 A 
HETATM    5  O1  UNL     1     -18.039   4.590  -0.089  1.00  0.00    -0.266 OA
HETATM    6  C5  UNL     1     -15.805   5.159  -0.494  1.00  0.00     0.135 A 
HETATM    7  N5  UNL     1     -14.999   6.091   0.033  1.00  0.00    -0.336 N 
ATOM      8  H5  UNL     1     -14.025   6.247  -0.228  1.00  0.00     0.168 HD
ENDROOT
BRANCH   6   9
HETATM    9  C6  UNL     1     -15.496   4.264  -1.450  1.00  0.00     0.137 A 
HETATM   10  N3  UNL     1     -16.146   4.009  -2.678  1.00  0.00    -0.302 N 
HETATM   11  C7  UNL     1     -15.489   2.976  -3.396  1.00  0.00     0.327 A 
ATOM     12  H3  UNL     1     -16.976   4.501  -3.005  1.00  0.00     0.171 HD
HETATM   13  O2  UNL     1     -15.834   2.524  -4.529  1.00  0.00    -0.247 OA
HETATM   14  N4  UNL     1     -14.392   2.550  -2.624  1.00  0.00    -0.274 N 
HETATM   15  C8  UNL     1     -14.369   3.325  -1.419  1.00  0.00     0.278 A 
ATOM     16  H4  UNL     1     -13.730   1.818  -2.878  1.00  0.00     0.173 HD
HETATM   17  O3  UNL     1     -13.510   3.179  -0.529  1.00  0.00    -0.265 OA
ENDBRANCH   6   9
BRANCH   1  18
HETATM   18  C2  UNL     1     -15.255   7.791   1.714  1.00  0.00     0.048 C 
BRANCH  18  19
HETATM   19  C1  UNL     1     -15.745   8.023   3.087  1.00  0.00     0.260 C 
BRANCH  19  20
HETATM   20  N1  UNL     1     -15.164   7.053   4.027  1.00  0.00    -0.076 N 
ATOM     21  H13 UNL     1     -14.251   6.727   3.713  1.00  0.00     0.274 HD
ATOM     22  H12 UNL     1     -14.879   7.500   4.899  1.00  0.00     0.274 HD
ATOM     23  H11 UNL     1     -15.804   6.276   4.195  1.00  0.00     0.274 HD
ENDBRANCH  19  20
ENDBRANCH  18  19
ENDBRANCH   1  18
TORSDOF 4
ENDMDL
MODEL 5
REMARK VINA RESULT: -6.855830684      1.530      1.732
REMARK  4 active torsions:
REMARK  status: ('A' for Active; 'I' for Inactive)
REMARK    1  A    between atoms: N1_1  and  C1_5 
REMARK    2  A    between atoms: C1_5  and  C2_6 
REMARK    3  A    between atoms: C2_6  and  C3_7 
REMARK    4  A    between atoms: C5_12  and  C6_13 
ROOT
HETATM    1  C3  UNL     1     -15.315   2.962  -3.301  1.00  0.00     0.106 A 
HETATM    2  N2  UNL     1     -14.280   2.592  -2.537  1.00  0.00    -0.308 N 
ATOM      3  H2  UNL     1     -13.601   1.864  -2.756  1.00  0.00     0.170 HD
HETATM    4  C4  UNL     1     -14.296   3.352  -1.430  1.00  0.00     0.276 A 
HETATM    5  O1  UNL     1     -13.474   3.296  -0.471  1.00  0.00    -0.266 OA
HETATM    6  C5  UNL     1     -15.363   4.213  -1.506  1.00  0.00     0.135 A 
HETATM    7  N5  UNL     1     -15.974   3.951  -2.670  1.00  0.00    -0.336 N 
ATOM      8  H5  UNL     1     -16.806   4.425  -3.021  1.00  0.00     0.168 HD
ENDROOT
BRANCH   6   9
HETATM    9  C6  UNL     1     -15.719   5.134  -0.592  1.00  0.00     0.137 A 
HETATM   10  N3  UNL     1     -14.971   6.214  -0.074  1.00  0.00    -0.302 N 
HETATM   11  C7  UNL     1     -15.727   6.946   0.878  1.00  0.00     0.327 A 
ATOM     12  H3  UNL     1     -14.016   6.439  -0.348  1.00  0.00     0.171 HD
HETATM   13  O2  UNL     1     -15.330   7.968   1.514  1.00  0.00    -0.247 OA
HETATM   14  N4  UNL     1     -16.989   6.332   0.984  1.00  0.00    -0.274 N 
HETATM   15  C8  UNL     1     -17.015   5.213   0.091  1.00  0.00     0.278 A 
ATOM     16  H4  UNL     1     -17.751   6.632   1.591  1.00  0.00     0.173 HD
HETATM   17  O3  UNL     1     -18.004   4.466  -0.040  1.00  0.00    -0.265 OA
ENDBRANCH   6   9
BRANCH   1  18
HETATM   18  C2  UNL     1     -15.586   2.406  -4.470  1.00  0.00     0.048 C 
BRANCH  18  19
HETATM   19  C1  UNL     1     -14.536   1.917  -5.386  1.00  0.00     0.260 C 
BRANCH  19  20
HETATM   20  N1  UNL     1     -15.122   1.230  -6.546  1.00  0.00    -0.076 N 
ATOM     21  H13 UNL     1     -15.134   0.218  -6.416  1.00  0.00     0.274 HD
ATOM     22  H12 UNL     1     -16.127   1.391  -6.609  1.00  0.00     0.274 HD
ATOM     23  H11 UNL     1     -14.645   1.493  -7.408  1.00  0.00     0.274 HD
ENDBRANCH  19  20
ENDBRANCH  18  19
ENDBRANCH   1  18
TORSDOF 4
ENDMDL
