MODEL 1
REMARK VINA RESULT: -7.128209001      0.000      0.000
REMARK  3 active torsions:
REMARK  status: ('A' for Active; 'I' for Inactive)
REMARK       I    between atoms: C2_5  and  N4_7 
REMARK    1  A    between atoms: N4_7  and  C3_9 
REMARK    2  A    between atoms: C4_12  and  N6_13 
REMARK    3  A    between atoms: N6_13  and  N7_15 
ROOT
HETATM    1  N1  UNL     1     -15.441   7.062   2.281  1.00  0.00    -0.172 NA
HETATM    2  C1  UNL     1     -15.350   7.505   1.213  1.00  0.00     0.184 C 
HETATM    3  N2  UNL     1     -15.230   8.052  -0.058  1.00  0.00    -0.267 N 
ATOM      4  H2  UNL     1     -14.602   8.846  -0.177  1.00  0.00     0.180 HD
HETATM    5  C2  UNL     1     -15.856   7.626  -1.094  1.00  0.00     0.203 C 
HETATM    6  N3  UNL     1     -15.641   8.280  -2.332  1.00  0.00    -0.062 NA
HETATM    7  N4  UNL     1     -16.744   6.536  -1.026  1.00  0.00    -0.311 N 
ATOM      8  H4  UNL     1     -17.706   6.753  -0.764  1.00  0.00     0.170 HD
ENDROOT
BRANCH   7   9
HETATM    9  C3  UNL     1     -16.486   5.317  -1.252  1.00  0.00     0.193 A 
HETATM   10  N5  UNL     1     -15.614   5.009  -2.224  1.00  0.00    -0.168 N 
HETATM   11  C4  UNL     1     -15.292   3.727  -2.519  1.00  0.00     0.712 A 
ATOM     12  H5  UNL     1     -15.181   5.762  -2.757  1.00  0.00     0.186 HD
HETATM   13  N8  UNL     1     -15.866   2.737  -1.813  1.00  0.00    -0.128 N 
HETATM   14  N9  UNL     1     -16.735   3.030  -0.844  1.00  0.00    -0.249 N 
ATOM     15  H8  UNL     1     -15.639   1.764  -2.018  1.00  0.00     0.205 HD
HETATM   16  C5  UNL     1     -17.073   4.294  -0.531  1.00  0.00     0.305 A 
ATOM     17  H9  UNL     1     -17.160   2.266  -0.320  1.00  0.00     0.191 HD
HETATM   18  O1  UNL     1     -17.897   4.507   0.392  1.00  0.00    -0.263 OA
BRANCH  11  19
HETATM   19  N6  UNL     1     -14.446   3.536  -3.467  1.00  0.00    -0.137 N 
ATOM     20  H6  UNL     1     -13.592   4.093  -3.467  1.00  0.00     0.205 HD
BRANCH  19  21
HETATM   21  N7  UNL     1     -14.624   2.615  -4.491  1.00  0.00    -0.331 N 
ATOM     22  H72 UNL     1     -14.427   1.639  -4.275  1.00  0.00     0.177 HD
ATOM     23  H71 UNL     1     -14.936   2.862  -5.431  1.00  0.00     0.177 HD
ENDBRANCH  19  21
ENDBRANCH  11  19
ENDBRANCH   7   9
TORSDOF 3
ENDMDL
MODEL 2
REMARK VINA RESULT: -7.056058513      1.656      5.483
REMARK  3 active torsions:
REMARK  status: ('A' for Active; 'I' for Inactive)
REMARK       I    between atoms: C2_5  and  N4_7 
REMARK    1  A    between atoms: N4_7  and  C3_9 
REMARK    2  A    between atoms: C4_12  and  N6_13 
REMARK    3  A    between atoms: N6_13  and  N7_15 
ROOT
HETATM    1  N1  UNL     1     -14.869   4.013  -3.020  1.00  0.00    -0.172 NA
HETATM    2  C1  UNL     1     -15.621   3.703  -2.193  1.00  0.00     0.184 C 
HETATM    3  N2  UNL     1     -16.519   3.314  -1.208  1.00  0.00    -0.267 N 
ATOM      4  H2  UNL     1     -16.634   2.315  -1.038  1.00  0.00     0.180 HD
HETATM    5  C2  UNL     1     -17.215   4.125  -0.498  1.00  0.00     0.203 C 
HETATM    6  N3  UNL     1     -18.096   3.589   0.473  1.00  0.00    -0.062 NA
HETATM    7  N4  UNL     1     -17.122   5.519  -0.662  1.00  0.00    -0.311 N 
ATOM      8  H4  UNL     1     -17.721   5.930  -1.380  1.00  0.00     0.170 HD
ENDROOT
BRANCH   7   9
HETATM    9  C3  UNL     1     -16.382   6.323  -0.022  1.00  0.00     0.193 A 
HETATM   10  N5  UNL     1     -16.439   6.330   1.318  1.00  0.00    -0.168 N 
HETATM   11  C4  UNL     1     -15.676   7.162   2.066  1.00  0.00     0.712 A 
ATOM     12  H5  UNL     1     -17.077   5.688   1.789  1.00  0.00     0.186 HD
HETATM   13  N8  UNL     1     -14.837   8.007   1.439  1.00  0.00    -0.128 N 
HETATM   14  N9  UNL     1     -14.771   8.010   0.107  1.00  0.00    -0.249 N 
ATOM     15  H8  UNL     1     -14.253   8.643   1.982  1.00  0.00     0.205 HD
HETATM   16  C5  UNL     1     -15.518   7.194  -0.658  1.00  0.00     0.305 A 
ATOM     17  H9  UNL     1     -14.128   8.657  -0.350  1.00  0.00     0.191 HD
HETATM   18  O1  UNL     1     -15.412   7.244  -1.909  1.00  0.00    -0.263 OA
BRANCH  11  19
HETATM   19  N6  UNL     1     -15.803   7.092   3.342  1.00  0.00    -0.137 N 
ATOM     20  H6  UNL     1     -16.682   6.734   3.717  1.00  0.00     0.205 HD
BRANCH  19  21
HETATM   21  N7  UNL     1     -14.817   7.473   4.242  1.00  0.00    -0.331 N 
ATOM     22  H72 UNL     1     -14.906   8.398   4.660  1.00  0.00     0.177 HD
ATOM     23  H71 UNL     1     -14.024   6.885   4.500  1.00  0.00     0.177 HD
ENDBRANCH  19  21
ENDBRANCH  11  19
ENDBRANCH   7   9
TORSDOF 3
ENDMDL
MODEL 3
REMARK VINA RESULT: -6.860004348      1.453      4.711
REMARK  3 active torsions:
REMARK  status: ('A' for Active; 'I' for Inactive)
REMARK       I    between atoms: C2_5  and  N4_7 
REMARK    1  A    between atoms: N4_7  and  C3_9 
REMARK    2  A    between atoms: C4_12  and  N6_13 
REMARK    3  A    between atoms: N6_13  and  N7_15 
ROOT
HETATM    1  N1  UNL     1     -16.091   2.631  -4.126  1.00  0.00    -0.172 NA
HETATM    2  C1  UNL     1     -15.301   2.577  -3.279  1.00  0.00     0.184 C 
HETATM    3  N2  UNL     1     -14.342   2.504  -2.276  1.00  0.00    -0.267 N 
ATOM      4  H2  UNL     1     -13.395   2.234  -2.543  1.00  0.00     0.180 HD
HETATM    5  C2  UNL     1     -14.565   2.752  -1.038  1.00  0.00     0.203 C 
HETATM    6  N3  UNL     1     -13.493   2.637  -0.120  1.00  0.00    -0.062 NA
HETATM    7  N4  UNL     1     -15.840   3.131  -0.577  1.00  0.00    -0.311 N 
ATOM      8  H4  UNL     1     -16.481   2.371  -0.347  1.00  0.00     0.170 HD
ENDROOT
BRANCH   7   9
HETATM    9  C3  UNL     1     -16.282   4.307  -0.415  1.00  0.00     0.193 A 
HETATM   10  N5  UNL     1     -15.478   5.345  -0.687  1.00  0.00    -0.168 N 
HETATM   11  C4  UNL     1     -15.885   6.628  -0.536  1.00  0.00     0.712 A 
ATOM     12  H5  UNL     1     -14.530   5.164  -1.017  1.00  0.00     0.186 HD
HETATM   13  N8  UNL     1     -17.136   6.862  -0.099  1.00  0.00    -0.128 N 
HETATM   14  N9  UNL     1     -17.946   5.837   0.174  1.00  0.00    -0.249 N 
ATOM     15  H8  UNL     1     -17.464   7.820   0.022  1.00  0.00     0.205 HD
HETATM   16  C5  UNL     1     -17.566   4.555   0.034  1.00  0.00     0.305 A 
ATOM     17  H9  UNL     1     -18.890   6.035   0.504  1.00  0.00     0.191 HD
HETATM   18  O1  UNL     1     -18.373   3.633   0.308  1.00  0.00    -0.263 OA
BRANCH  11  19
HETATM   19  N6  UNL     1     -15.040   7.552  -0.823  1.00  0.00    -0.137 N 
ATOM     20  H6  UNL     1     -14.361   7.819  -0.110  1.00  0.00     0.205 HD
BRANCH  19  21
HETATM   21  N7  UNL     1     -14.996   8.210  -2.045  1.00  0.00    -0.331 N 
ATOM     22  H72 UNL     1     -15.675   8.955  -2.194  1.00  0.00     0.177 HD
ATOM     23  H71 UNL     1     -14.332   7.988  -2.788  1.00  0.00     0.177 HD
ENDBRANCH  19  21
ENDBRANCH  11  19
ENDBRANCH   7   9
TORSDOF 3
ENDMDL
MODEL 4
REMARK VINA RESULT: -6.770523847      1.898      5.248
REMARK  3 active torsions:
REMARK  status: ('A' for Active; 'I' for Inactive)
REMARK       I    between atoms: C2_5  and  N4_7 
REMARK    1  A    between atoms: N4_7  and  C3_9 
REMARK    2  A    between atoms: C4_12  and  N6_13 
REMARK    3  A    between atoms: N6_13  and  N7_15 
ROOT
HETATM    1  N1  UNL     1     -16.095   2.945  -3.688  1.00  0.00    -0.172 NA
HETATM    2  C1  UNL     1     -15.309   2.821  -2.845  1.00  0.00     0.184 C 
HETATM    3  N2  UNL     1     -14.355   2.663  -1.847  1.00  0.00    -0.267 N 
ATOM      4  H2  UNL     1     -13.409   2.411  -2.131  1.00  0.00     0.180 HD
HETATM    5  C2  UNL     1     -14.583   2.814  -0.594  1.00  0.00     0.203 C 
HETATM    6  N3  UNL     1     -13.516   2.620   0.316  1.00  0.00    -0.062 NA
HETATM    7  N4  UNL     1     -15.859   3.160  -0.110  1.00  0.00    -0.311 N 
ATOM      8  H4  UNL     1     -16.504   2.388   0.056  1.00  0.00     0.170 HD
ENDROOT
BRANCH   7   9
HETATM    9  C3  UNL     1     -16.297   4.322   0.143  1.00  0.00     0.193 A 
HETATM   10  N5  UNL     1     -15.646   5.078   1.041  1.00  0.00    -0.168 N 
HETATM   11  C4  UNL     1     -16.059   6.328   1.359  1.00  0.00     0.712 A 
ATOM     12  H5  UNL     1     -14.816   4.701   1.497  1.00  0.00     0.186 HD
HETATM   13  N8  UNL     1     -17.155   6.820   0.755  1.00  0.00    -0.128 N 
HETATM   14  N9  UNL     1     -17.810   6.078  -0.139  1.00  0.00    -0.249 N 
ATOM     15  H8  UNL     1     -17.484   7.760   0.979  1.00  0.00     0.205 HD
HETATM   16  C5  UNL     1     -17.422   4.834  -0.473  1.00  0.00     0.305 A 
ATOM     17  H9  UNL     1     -18.639   6.469  -0.587  1.00  0.00     0.191 HD
HETATM   18  O1  UNL     1     -18.081   4.184  -1.322  1.00  0.00    -0.263 OA
BRANCH  11  19
HETATM   19  N6  UNL     1     -15.368   6.972   2.230  1.00  0.00    -0.137 N 
ATOM     20  H6  UNL     1     -14.479   7.374   1.933  1.00  0.00     0.205 HD
BRANCH  19  21
HETATM   21  N7  UNL     1     -15.760   7.156   3.549  1.00  0.00    -0.331 N 
ATOM     22  H72 UNL     1     -16.553   6.605   3.877  1.00  0.00     0.177 HD
ATOM     23  H71 UNL     1     -15.303   7.801   4.195  1.00  0.00     0.177 HD
ENDBRANCH  19  21
ENDBRANCH  11  19
ENDBRANCH   7   9
TORSDOF 3
ENDMDL
MODEL 5
REMARK VINA RESULT: -6.456699030      1.318      1.444
REMARK  3 active torsions:
REMARK  status: ('A' for Active; 'I' for Inactive)
REMARK       I    between atoms: C2_5  and  N4_7 
REMARK    1  A    between atoms: N4_7  and  C3_9 
REMARK    2  A    between atoms: C4_12  and  N6_13 
REMARK    3  A    between atoms: N6_13  and  N7_15 
ROOT
HETATM    1  N1  UNL     1     -15.418   7.450   3.101  1.00  0.00    -0.172 NA
HETATM    2  C1  UNL     1     -14.966   7.958   2.161  1.00  0.00     0.184 C 
HETATM    3  N2  UNL     1     -14.414   8.576   1.047  1.00  0.00    -0.267 N 
ATOM      4  H2  UNL     1     -13.557   9.114   1.178  1.00  0.00     0.180 HD
HETATM    5  C2  UNL     1     -14.906   8.517  -0.135  1.00  0.00     0.203 C 
HETATM    6  N3  UNL     1     -14.238   9.198  -1.182  1.00  0.00    -0.062 NA
HETATM    7  N4  UNL     1     -16.085   7.799  -0.412  1.00  0.00    -0.311 N 
ATOM      8  H4  UNL     1     -16.962   8.302  -0.274  1.00  0.00     0.170 HD
ENDROOT
BRANCH   7   9
HETATM    9  C3  UNL     1     -16.182   6.601  -0.812  1.00  0.00     0.193 A 
HETATM   10  N5  UNL     1     -15.194   6.086  -1.560  1.00  0.00    -0.168 N 
HETATM   11  C4  UNL     1     -15.232   4.814  -2.021  1.00  0.00     0.712 A 
ATOM     12  H5  UNL     1     -14.390   6.671  -1.788  1.00  0.00     0.186 HD
HETATM   13  N8  UNL     1     -16.295   4.048  -1.718  1.00  0.00    -0.128 N 
HETATM   14  N9  UNL     1     -17.284   4.548  -0.975  1.00  0.00    -0.249 N 
ATOM     15  H8  UNL     1     -16.345   3.086  -2.054  1.00  0.00     0.205 HD
HETATM   16  C5  UNL     1     -17.271   5.808  -0.505  1.00  0.00     0.305 A 
ATOM     17  H9  UNL     1     -18.081   3.952  -0.755  1.00  0.00     0.191 HD
HETATM   18  O1  UNL     1     -18.231   6.223   0.189  1.00  0.00    -0.263 OA
BRANCH  11  19
HETATM   19  N6  UNL     1     -14.237   4.414  -2.728  1.00  0.00    -0.137 N 
ATOM     20  H6  UNL     1     -13.352   4.911  -2.635  1.00  0.00     0.205 HD
BRANCH  19  21
HETATM   21  N7  UNL     1     -14.294   3.344  -3.613  1.00  0.00    -0.331 N 
ATOM     22  H72 UNL     1     -14.424   3.567  -4.599  1.00  0.00     0.177 HD
ATOM     23  H71 UNL     1     -14.214   2.367  -3.331  1.00  0.00     0.177 HD
ENDBRANCH  19  21
ENDBRANCH  11  19
ENDBRANCH   7   9
TORSDOF 3
ENDMDL
