MODEL 1
REMARK VINA RESULT: -8.188534253      0.000      0.000
REMARK  10 active torsions:
REMARK  status: ('A' for Active; 'I' for Inactive)
REMARK    1  A    between atoms: C2_2  and  C3_3 
REMARK    2  A    between atoms: C2_2  and  C8_24 
REMARK    3  A    between atoms: C3_3  and  C4_4 
REMARK    4  A    between atoms: C4_4  and  C5_5 
REMARK    5  A    between atoms: C5_5  and  O1_6 
REMARK    6  A    between atoms: O1_6  and  C6_7 
REMARK    7  A    between atoms: C6_7  and  N2_11 
REMARK    8  A    between atoms: N2_11  and  N3_13 
REMARK       I    between atoms: N3_13  and  C7_15 
REMARK       I    between atoms: C7_15  and  N5_19 
REMARK    9  A    between atoms: N5_19  and  N6_21 
REMARK   10  A    between atoms: C11_28  and  O5_29 
ROOT
HETATM    1  C6  UNL     1       6.729  15.904  33.340  1.00  0.00     0.232 C 
HETATM    2  N1  UNL     1       7.173  16.486  34.412  1.00  0.00    -0.364 N 
ATOM      3  H11 UNL     1       6.574  17.195  34.834  1.00  0.00     0.159 HD
ATOM      4  H12 UNL     1       8.085  16.210  34.775  1.00  0.00     0.159 HD
ENDROOT
BRANCH   1   5
HETATM    5  O1  UNL     1       7.537  14.946  32.769  1.00  0.00    -0.321 OA
BRANCH   5   6
HETATM    6  C5  UNL     1       8.871  15.170  32.386  1.00  0.00     0.179 C 
BRANCH   6   7
HETATM    7  C4  UNL     1       9.441  14.048  31.560  1.00  0.00     0.027 C 
BRANCH   7   8
HETATM    8  C3  UNL     1       8.820  13.956  30.192  1.00  0.00     0.011 C 
BRANCH   8   9
HETATM    9  C2  UNL     1       8.926  15.342  29.564  1.00  0.00     0.037 C 
HETATM   10  C1  UNL     1       9.877  15.323  28.385  1.00  0.00     0.015 C 
BRANCH   9  11
HETATM   11  C8  UNL     1       7.565  15.769  28.998  1.00  0.00     0.266 C 
HETATM   12  O4  UNL     1       6.769  14.649  28.875  1.00  0.00    -0.361 OA
HETATM   13  C9  UNL     1       5.635  14.819  29.661  1.00  0.00     0.176 C 
HETATM   14  C10 UNL     1       4.932  16.082  29.156  1.00  0.00     0.087 C 
HETATM   15  C11 UNL     1       5.853  17.238  29.492  1.00  0.00     0.261 C 
HETATM   16  O6  UNL     1       7.055  16.699  29.914  1.00  0.00    -0.331 OA
BRANCH  15  17
HETATM   17  O5  UNL     1       5.348  18.027  30.508  1.00  0.00    -0.371 OA
ATOM     18  H5  UNL     1       5.947  18.723  30.751  1.00  0.00     0.212 HD
ENDBRANCH  15  17
ENDBRANCH   9  11
ENDBRANCH   8   9
ENDBRANCH   7   8
ENDBRANCH   6   7
ENDBRANCH   5   6
ENDBRANCH   1   5
BRANCH   1  19
HETATM   19  N2  UNL     1       5.458  16.287  32.834  1.00  0.00    -0.251 N 
ATOM     20  H2  UNL     1       5.080  15.872  31.982  1.00  0.00     0.191 HD
BRANCH  19  21
HETATM   21  N3  UNL     1       4.746  17.253  33.547  1.00  0.00    -0.128 N 
HETATM   22  C7  UNL     1       3.807  16.804  34.514  1.00  0.00     0.709 C 
HETATM   23  N4  UNL     1       2.745  16.193  34.111  1.00  0.00    -0.232 N 
HETATM   24  N5  UNL     1       4.056  17.036  35.881  1.00  0.00    -0.071 N 
ATOM     25  H42 UNL     1       2.565  16.026  33.121  1.00  0.00     0.174 HD
ATOM     26  H41 UNL     1       2.072  15.871  34.805  1.00  0.00     0.174 HD
ATOM     27  H5  UNL     1       4.087  16.252  36.533  1.00  0.00     0.212 HD
ATOM     28  H3  UNL     1       4.894  18.247  33.378  1.00  0.00     0.205 HD
BRANCH  24  29
HETATM   29  N6  UNL     1       4.259  18.326  36.341  1.00  0.00    -0.024 N 
HETATM   30  O2  UNL     1       3.443  18.769  37.190  1.00  0.00    -0.516 OA
HETATM   31  O3  UNL     1       5.269  19.147  35.948  1.00  0.00    -0.516 OA
ENDBRANCH  24  29
ENDBRANCH  19  21
ENDBRANCH   1  19
TORSDOF 10
ENDMDL
MODEL 2
REMARK VINA RESULT: -8.173603609      1.188      1.810
REMARK  10 active torsions:
REMARK  status: ('A' for Active; 'I' for Inactive)
REMARK    1  A    between atoms: C2_2  and  C3_3 
REMARK    2  A    between atoms: C2_2  and  C8_24 
REMARK    3  A    between atoms: C3_3  and  C4_4 
REMARK    4  A    between atoms: C4_4  and  C5_5 
REMARK    5  A    between atoms: C5_5  and  O1_6 
REMARK    6  A    between atoms: O1_6  and  C6_7 
REMARK    7  A    between atoms: C6_7  and  N2_11 
REMARK    8  A    between atoms: N2_11  and  N3_13 
REMARK       I    between atoms: N3_13  and  C7_15 
REMARK       I    between atoms: C7_15  and  N5_19 
REMARK    9  A    between atoms: N5_19  and  N6_21 
REMARK   10  A    between atoms: C11_28  and  O5_29 
ROOT
HETATM    1  C6  UNL     1       6.991  15.798  33.403  1.00  0.00     0.232 C 
HETATM    2  N1  UNL     1       6.110  16.629  32.934  1.00  0.00    -0.364 N 
ATOM      3  H11 UNL     1       5.623  17.216  33.610  1.00  0.00     0.159 HD
ATOM      4  H12 UNL     1       5.950  16.653  31.927  1.00  0.00     0.159 HD
ENDROOT
BRANCH   1   5
HETATM    5  O1  UNL     1       7.648  15.005  32.491  1.00  0.00    -0.321 OA
BRANCH   5   6
HETATM    6  C5  UNL     1       9.041  15.017  32.299  1.00  0.00     0.179 C 
BRANCH   6   7
HETATM    7  C4  UNL     1       9.521  13.903  31.406  1.00  0.00     0.027 C 
BRANCH   7   8
HETATM    8  C3  UNL     1       8.818  13.877  30.075  1.00  0.00     0.011 C 
BRANCH   8   9
HETATM    9  C2  UNL     1       8.909  15.286  29.499  1.00  0.00     0.037 C 
HETATM   10  C1  UNL     1       9.862  15.320  28.322  1.00  0.00     0.015 C 
BRANCH   9  11
HETATM   11  C8  UNL     1       7.544  15.719  28.947  1.00  0.00     0.266 C 
HETATM   12  O4  UNL     1       6.723  14.612  28.889  1.00  0.00    -0.361 OA
HETATM   13  C9  UNL     1       5.611  14.838  29.693  1.00  0.00     0.176 C 
HETATM   14  C10 UNL     1       4.922  16.094  29.151  1.00  0.00     0.087 C 
HETATM   15  C11 UNL     1       5.875  17.243  29.418  1.00  0.00     0.261 C 
HETATM   16  O6  UNL     1       7.075  16.696  29.834  1.00  0.00    -0.331 OA
BRANCH  15  17
HETATM   17  O5  UNL     1       5.410  18.084  30.412  1.00  0.00    -0.371 OA
ATOM     18  H5  UNL     1       5.902  17.990  31.218  1.00  0.00     0.212 HD
ENDBRANCH  15  17
ENDBRANCH   9  11
ENDBRANCH   8   9
ENDBRANCH   7   8
ENDBRANCH   6   7
ENDBRANCH   5   6
ENDBRANCH   1   5
BRANCH   1  19
HETATM   19  N2  UNL     1       7.214  15.764  34.805  1.00  0.00    -0.251 N 
ATOM     20  H2  UNL     1       8.113  15.473  35.192  1.00  0.00     0.191 HD
BRANCH  19  21
HETATM   21  N3  UNL     1       6.158  16.142  35.636  1.00  0.00    -0.128 N 
HETATM   22  C7  UNL     1       6.334  17.293  36.451  1.00  0.00     0.709 C 
HETATM   23  N4  UNL     1       7.190  17.245  37.414  1.00  0.00    -0.232 N 
HETATM   24  N5  UNL     1       5.576  18.450  36.188  1.00  0.00    -0.071 N 
ATOM     25  H42 UNL     1       7.739  16.406  37.605  1.00  0.00     0.174 HD
ATOM     26  H41 UNL     1       7.317  18.070  37.999  1.00  0.00     0.174 HD
ATOM     27  H5  UNL     1       6.048  19.336  36.004  1.00  0.00     0.212 HD
ATOM     28  H3  UNL     1       5.289  15.609  35.657  1.00  0.00     0.205 HD
BRANCH  24  29
HETATM   29  N6  UNL     1       4.193  18.388  36.179  1.00  0.00    -0.024 N 
HETATM   30  O2  UNL     1       3.643  17.976  35.125  1.00  0.00    -0.516 OA
HETATM   31  O3  UNL     1       3.388  18.736  37.217  1.00  0.00    -0.516 OA
ENDBRANCH  24  29
ENDBRANCH  19  21
ENDBRANCH   1  19
TORSDOF 10
ENDMDL
MODEL 3
REMARK VINA RESULT: -8.150377657      2.808      6.098
REMARK  10 active torsions:
REMARK  status: ('A' for Active; 'I' for Inactive)
REMARK    1  A    between atoms: C2_2  and  C3_3 
REMARK    2  A    between atoms: C2_2  and  C8_24 
REMARK    3  A    between atoms: C3_3  and  C4_4 
REMARK    4  A    between atoms: C4_4  and  C5_5 
REMARK    5  A    between atoms: C5_5  and  O1_6 
REMARK    6  A    between atoms: O1_6  and  C6_7 
REMARK    7  A    between atoms: C6_7  and  N2_11 
REMARK    8  A    between atoms: N2_11  and  N3_13 
REMARK       I    between atoms: N3_13  and  C7_15 
REMARK       I    between atoms: C7_15  and  N5_19 
REMARK    9  A    between atoms: N5_19  and  N6_21 
REMARK   10  A    between atoms: C11_28  and  O5_29 
ROOT
HETATM    1  C6  UNL     1       6.719  14.840  29.408  1.00  0.00     0.232 C 
HETATM    2  N1  UNL     1       7.179  13.782  28.814  1.00  0.00    -0.364 N 
ATOM      3  H11 UNL     1       6.508  13.046  28.595  1.00  0.00     0.159 HD
ATOM      4  H12 UNL     1       8.175  13.737  28.597  1.00  0.00     0.159 HD
ENDROOT
BRANCH   1   5
HETATM    5  O1  UNL     1       7.625  15.833  29.704  1.00  0.00    -0.321 OA
BRANCH   5   6
HETATM    6  C5  UNL     1       8.566  15.753  30.745  1.00  0.00     0.179 C 
BRANCH   6   7
HETATM    7  C4  UNL     1       7.977  15.237  32.032  1.00  0.00     0.027 C 
BRANCH   7   8
HETATM    8  C3  UNL     1       7.919  16.286  33.110  1.00  0.00     0.011 C 
BRANCH   8   9
HETATM    9  C2  UNL     1       6.932  15.786  34.160  1.00  0.00     0.037 C 
HETATM   10  C1  UNL     1       7.633  14.912  35.179  1.00  0.00     0.015 C 
BRANCH   9  11
HETATM   11  C8  UNL     1       6.356  16.970  34.947  1.00  0.00     0.266 C 
HETATM   12  O4  UNL     1       5.296  17.496  34.237  1.00  0.00    -0.361 OA
HETATM   13  C9  UNL     1       4.149  17.408  35.017  1.00  0.00     0.176 C 
HETATM   14  C10 UNL     1       4.426  18.194  36.302  1.00  0.00     0.087 C 
HETATM   15  C11 UNL     1       5.498  17.420  37.043  1.00  0.00     0.261 C 
HETATM   16  O6  UNL     1       5.969  16.442  36.186  1.00  0.00    -0.331 OA
BRANCH  15  17
HETATM   17  O5  UNL     1       5.004  16.805  38.178  1.00  0.00    -0.371 OA
ATOM     18  H5  UNL     1       5.698  16.529  38.765  1.00  0.00     0.212 HD
ENDBRANCH  15  17
ENDBRANCH   9  11
ENDBRANCH   8   9
ENDBRANCH   7   8
ENDBRANCH   6   7
ENDBRANCH   5   6
ENDBRANCH   1   5
BRANCH   1  19
HETATM   19  N2  UNL     1       5.333  14.902  29.710  1.00  0.00    -0.251 N 
ATOM     20  H2  UNL     1       4.843  14.104  30.115  1.00  0.00     0.191 HD
BRANCH  19  21
HETATM   21  N3  UNL     1       4.666  16.096  29.430  1.00  0.00    -0.128 N 
HETATM   22  C7  UNL     1       5.266  17.308  29.863  1.00  0.00     0.709 C 
HETATM   23  N4  UNL     1       5.341  17.546  31.128  1.00  0.00    -0.232 N 
HETATM   24  N5  UNL     1       5.762  18.216  28.906  1.00  0.00    -0.071 N 
ATOM     25  H42 UNL     1       4.982  16.889  31.820  1.00  0.00     0.174 HD
ATOM     26  H41 UNL     1       5.772  18.416  31.439  1.00  0.00     0.174 HD
ATOM     27  H5  UNL     1       6.739  18.506  28.939  1.00  0.00     0.212 HD
ATOM     28  H3  UNL     1       3.776  16.097  28.931  1.00  0.00     0.205 HD
BRANCH  24  29
HETATM   29  N6  UNL     1       4.925  18.715  27.923  1.00  0.00    -0.024 N 
HETATM   30  O2  UNL     1       3.699  18.448  28.020  1.00  0.00    -0.516 OA
HETATM   31  O3  UNL     1       5.324  19.469  26.864  1.00  0.00    -0.516 OA
ENDBRANCH  24  29
ENDBRANCH  19  21
ENDBRANCH   1  19
TORSDOF 10
ENDMDL
MODEL 4
REMARK VINA RESULT: -8.113174653      3.282      6.559
REMARK  10 active torsions:
REMARK  status: ('A' for Active; 'I' for Inactive)
REMARK    1  A    between atoms: C2_2  and  C3_3 
REMARK    2  A    between atoms: C2_2  and  C8_24 
REMARK    3  A    between atoms: C3_3  and  C4_4 
REMARK    4  A    between atoms: C4_4  and  C5_5 
REMARK    5  A    between atoms: C5_5  and  O1_6 
REMARK    6  A    between atoms: O1_6  and  C6_7 
REMARK    7  A    between atoms: C6_7  and  N2_11 
REMARK    8  A    between atoms: N2_11  and  N3_13 
REMARK       I    between atoms: N3_13  and  C7_15 
REMARK       I    between atoms: C7_15  and  N5_19 
REMARK    9  A    between atoms: N5_19  and  N6_21 
REMARK   10  A    between atoms: C11_28  and  O5_29 
ROOT
HETATM    1  C6  UNL     1       8.893  14.583  31.787  1.00  0.00     0.232 C 
HETATM    2  N1  UNL     1       9.684  14.087  32.688  1.00  0.00    -0.364 N 
ATOM      3  H11 UNL     1      10.600  13.768  32.373  1.00  0.00     0.159 HD
ATOM      4  H12 UNL     1       9.357  14.039  33.653  1.00  0.00     0.159 HD
ENDROOT
BRANCH   1   5
HETATM    5  O1  UNL     1       7.656  15.014  32.211  1.00  0.00    -0.321 OA
BRANCH   5   6
HETATM    6  C5  UNL     1       7.461  16.066  33.123  1.00  0.00     0.179 C 
BRANCH   6   7
HETATM    7  C4  UNL     1       6.152  16.783  32.923  1.00  0.00     0.027 C 
BRANCH   7   8
HETATM    8  C3  UNL     1       4.999  15.841  32.700  1.00  0.00     0.011 C 
BRANCH   8   9
HETATM    9  C2  UNL     1       4.110  15.929  33.936  1.00  0.00     0.037 C 
HETATM   10  C1  UNL     1       3.953  14.567  34.579  1.00  0.00     0.015 C 
BRANCH   9  11
HETATM   11  C8  UNL     1       4.770  16.820  34.997  1.00  0.00     0.266 C 
HETATM   12  O4  UNL     1       3.842  17.741  35.437  1.00  0.00    -0.361 OA
HETATM   13  C9  UNL     1       3.654  17.567  36.803  1.00  0.00     0.176 C 
HETATM   14  C10 UNL     1       5.020  17.767  37.467  1.00  0.00     0.087 C 
HETATM   15  C11 UNL     1       5.881  16.605  37.011  1.00  0.00     0.261 C 
HETATM   16  O6  UNL     1       5.190  15.947  36.010  1.00  0.00    -0.331 OA
BRANCH  15  17
HETATM   17  O5  UNL     1       6.129  15.708  38.033  1.00  0.00    -0.371 OA
ATOM     18  H5  UNL     1       6.612  14.949  37.732  1.00  0.00     0.212 HD
ENDBRANCH  15  17
ENDBRANCH   9  11
ENDBRANCH   8   9
ENDBRANCH   7   8
ENDBRANCH   6   7
ENDBRANCH   5   6
ENDBRANCH   1   5
BRANCH   1  19
HETATM   19  N2  UNL     1       9.348  14.649  30.443  1.00  0.00    -0.251 N 
ATOM     20  H2  UNL     1      10.242  14.243  30.166  1.00  0.00     0.191 HD
BRANCH  19  21
HETATM   21  N3  UNL     1       8.526  15.290  29.515  1.00  0.00    -0.128 N 
HETATM   22  C7  UNL     1       7.332  14.629  29.118  1.00  0.00     0.709 C 
HETATM   23  N4  UNL     1       7.424  13.549  28.421  1.00  0.00    -0.232 N 
HETATM   24  N5  UNL     1       6.086  15.167  29.494  1.00  0.00    -0.071 N 
ATOM     25  H42 UNL     1       8.327  13.160  28.149  1.00  0.00     0.174 HD
ATOM     26  H41 UNL     1       6.568  13.074  28.137  1.00  0.00     0.174 HD
ATOM     27  H5  UNL     1       5.426  14.598  30.025  1.00  0.00     0.212 HD
ATOM     28  H3  UNL     1       8.775  16.202  29.133  1.00  0.00     0.205 HD
BRANCH  24  29
HETATM   29  N6  UNL     1       5.755  16.465  29.143  1.00  0.00    -0.024 N 
HETATM   30  O2  UNL     1       4.703  16.630  28.473  1.00  0.00    -0.516 OA
HETATM   31  O3  UNL     1       6.476  17.571  29.468  1.00  0.00    -0.516 OA
ENDBRANCH  24  29
ENDBRANCH  19  21
ENDBRANCH   1  19
TORSDOF 10
ENDMDL
MODEL 5
REMARK VINA RESULT: -8.110504990      2.677      5.568
REMARK  10 active torsions:
REMARK  status: ('A' for Active; 'I' for Inactive)
REMARK    1  A    between atoms: C2_2  and  C3_3 
REMARK    2  A    between atoms: C2_2  and  C8_24 
REMARK    3  A    between atoms: C3_3  and  C4_4 
REMARK    4  A    between atoms: C4_4  and  C5_5 
REMARK    5  A    between atoms: C5_5  and  O1_6 
REMARK    6  A    between atoms: O1_6  and  C6_7 
REMARK    7  A    between atoms: C6_7  and  N2_11 
REMARK    8  A    between atoms: N2_11  and  N3_13 
REMARK       I    between atoms: N3_13  and  C7_15 
REMARK       I    between atoms: C7_15  and  N5_19 
REMARK    9  A    between atoms: N5_19  and  N6_21 
REMARK   10  A    between atoms: C11_28  and  O5_29 
ROOT
HETATM    1  C6  UNL     1       6.745  14.918  29.335  1.00  0.00     0.232 C 
HETATM    2  N1  UNL     1       7.202  13.828  28.798  1.00  0.00    -0.364 N 
ATOM      3  H11 UNL     1       6.537  13.068  28.660  1.00  0.00     0.159 HD
ATOM      4  H12 UNL     1       8.189  13.784  28.545  1.00  0.00     0.159 HD
ENDROOT
BRANCH   1   5
HETATM    5  O1  UNL     1       7.643  15.945  29.522  1.00  0.00    -0.321 OA
BRANCH   5   6
HETATM    6  C5  UNL     1       8.698  15.907  30.450  1.00  0.00     0.179 C 
BRANCH   6   7
HETATM    7  C4  UNL     1       8.335  15.189  31.723  1.00  0.00     0.027 C 
BRANCH   7   8
HETATM    8  C3  UNL     1       8.136  16.125  32.885  1.00  0.00     0.011 C 
BRANCH   8   9
HETATM    9  C2  UNL     1       7.046  15.516  33.762  1.00  0.00     0.037 C 
HETATM   10  C1  UNL     1       7.347  15.751  35.227  1.00  0.00     0.015 C 
BRANCH   9  11
HETATM   11  C8  UNL     1       5.705  16.210  33.492  1.00  0.00     0.266 C 
HETATM   12  O4  UNL     1       4.757  15.244  33.221  1.00  0.00    -0.361 OA
HETATM   13  C9  UNL     1       3.743  15.337  34.167  1.00  0.00     0.176 C 
HETATM   14  C10 UNL     1       3.167  16.752  34.061  1.00  0.00     0.087 C 
HETATM   15  C11 UNL     1       4.264  17.687  34.529  1.00  0.00     0.261 C 
HETATM   16  O6  UNL     1       5.420  16.938  34.655  1.00  0.00    -0.331 OA
BRANCH  15  17
HETATM   17  O5  UNL     1       3.976  18.254  35.756  1.00  0.00    -0.371 OA
ATOM     18  H5  UNL     1       3.146  18.714  35.751  1.00  0.00     0.212 HD
ENDBRANCH  15  17
ENDBRANCH   9  11
ENDBRANCH   8   9
ENDBRANCH   7   8
ENDBRANCH   6   7
ENDBRANCH   5   6
ENDBRANCH   1   5
BRANCH   1  19
HETATM   19  N2  UNL     1       5.371  14.979  29.688  1.00  0.00    -0.251 N 
ATOM     20  H2  UNL     1       4.903  14.189  30.132  1.00  0.00     0.191 HD
BRANCH  19  21
HETATM   21  N3  UNL     1       4.684  16.160  29.403  1.00  0.00    -0.128 N 
HETATM   22  C7  UNL     1       5.284  17.387  29.793  1.00  0.00     0.709 C 
HETATM   23  N4  UNL     1       5.393  17.651  31.051  1.00  0.00    -0.232 N 
HETATM   24  N5  UNL     1       5.743  18.279  28.805  1.00  0.00    -0.071 N 
ATOM     25  H42 UNL     1       5.060  17.005  31.766  1.00  0.00     0.174 HD
ATOM     26  H41 UNL     1       5.824  18.532  31.331  1.00  0.00     0.174 HD
ATOM     27  H5  UNL     1       6.718  18.580  28.803  1.00  0.00     0.212 HD
ATOM     28  H3  UNL     1       3.780  16.142  28.930  1.00  0.00     0.205 HD
BRANCH  24  29
HETATM   29  N6  UNL     1       4.873  18.750  27.836  1.00  0.00    -0.024 N 
HETATM   30  O2  UNL     1       3.650  18.502  27.991  1.00  0.00    -0.516 OA
HETATM   31  O3  UNL     1       5.239  19.457  26.733  1.00  0.00    -0.516 OA
ENDBRANCH  24  29
ENDBRANCH  19  21
ENDBRANCH   1  19
TORSDOF 10
ENDMDL
