MODEL 1
REMARK VINA RESULT: -8.553902674      0.000      0.000
REMARK  9 active torsions:
REMARK  status: ('A' for Active; 'I' for Inactive)
REMARK    1  A    between atoms: N1_1  and  C1_4 
REMARK    2  A    between atoms: C4_12  and  N4_13 
REMARK    3  A    between atoms: N4_13  and  C5_15 
REMARK    4  A    between atoms: C5_15  and  C6_16 
REMARK    5  A    between atoms: C6_16  and  S1_17 
REMARK    6  A    between atoms: S1_17  and  C7_18 
REMARK    7  A    between atoms: C7_18  and  C8_19 
REMARK    8  A    between atoms: C8_19  and  C9_20 
REMARK    9  A    between atoms: N9_28  and  O2_29 
ROOT
HETATM    1  C1  UNL     1       9.302  15.101  28.260  1.00  0.00     0.680 A 
HETATM    2  N2  UNL     1       9.621  14.236  29.246  1.00  0.00    -0.154 N 
ATOM      3  H2  UNL     1      10.370  13.557  29.121  1.00  0.00     0.187 HD
HETATM    4  C2  UNL     1       8.926  14.294  30.394  1.00  0.00     0.290 A 
HETATM    5  O1  UNL     1       9.228  13.485  31.309  1.00  0.00    -0.265 OA
HETATM    6  C3  UNL     1       7.909  15.196  30.596  1.00  0.00     0.165 A 
HETATM    7  N3  UNL     1       7.057  15.489  31.607  1.00  0.00    -0.180 N 
ATOM      8  H3  UNL     1       7.042  15.004  32.505  1.00  0.00     0.184 HD
HETATM    9  C4  UNL     1       6.237  16.492  31.279  1.00  0.00     0.707 A 
HETATM   10  N9  UNL     1       6.584  16.846  30.011  1.00  0.00    -0.032 N 
HETATM   11  C10 UNL     1       7.595  16.071  29.584  1.00  0.00     0.199 A 
HETATM   12  N10 UNL     1       8.313  15.985  28.449  1.00  0.00    -0.171 N 
ATOM     13  H10 UNL     1       8.091  16.628  27.689  1.00  0.00     0.186 HD
ENDROOT
BRANCH   9  14
HETATM   14  N4  UNL     1       5.212  17.114  32.038  1.00  0.00    -0.223 N 
ATOM     15  H4  UNL     1       5.058  18.114  31.904  1.00  0.00     0.177 HD
BRANCH  14  16
HETATM   16  C5  UNL     1       4.382  16.431  32.980  1.00  0.00     0.148 C 
BRANCH  16  17
HETATM   17  C6  UNL     1       3.556  17.341  33.846  1.00  0.00     0.094 C 
BRANCH  17  18
HETATM   18  S1  UNL     1       4.010  17.156  35.583  1.00  0.00    -0.167 SA
BRANCH  18  19
HETATM   19  C7  UNL     1       5.387  18.304  35.947  1.00  0.00     0.081 C 
BRANCH  19  20
HETATM   20  C8  UNL     1       6.318  17.590  36.915  1.00  0.00     0.089 C 
BRANCH  20  21
HETATM   21  C9  UNL     1       6.870  16.420  36.207  1.00  0.00     0.110 A 
HETATM   22  N5  UNL     1       7.243  16.351  34.928  1.00  0.00    -0.271 N 
HETATM   23  N6  UNL     1       7.675  15.105  34.739  1.00  0.00    -0.005 NA
ATOM     24  H5  UNL     1       7.205  17.099  34.236  1.00  0.00     0.185 HD
HETATM   25  N7  UNL     1       7.585  14.397  35.851  1.00  0.00    -0.225 N 
HETATM   26  N8  UNL     1       7.088  15.217  36.748  1.00  0.00    -0.275 N 
ATOM     27  H7  UNL     1       7.847  13.420  35.985  1.00  0.00     0.205 HD
ATOM     28  H8  UNL     1       6.895  14.970  37.719  1.00  0.00     0.189 HD
ENDBRANCH  20  21
ENDBRANCH  19  20
ENDBRANCH  18  19
ENDBRANCH  17  18
ENDBRANCH  16  17
ENDBRANCH  14  16
ENDBRANCH   9  14
BRANCH  10  29
HETATM   29  O2  UNL     1       5.985  17.845  29.290  1.00  0.00    -0.268 OA
ATOM     30  H2  UNL     1       5.554  17.722  28.452  1.00  0.00     0.246 HD
ENDBRANCH  10  29
BRANCH   1  31
HETATM   31  N1  UNL     1       9.991  15.017  27.174  1.00  0.00    -0.234 N 
ATOM     32  H12 UNL     1       9.665  14.546  26.330  1.00  0.00     0.174 HD
ATOM     33  H11 UNL     1      10.912  15.455  27.183  1.00  0.00     0.174 HD
ENDBRANCH   1  31
TORSDOF 9
ENDMDL
MODEL 2
REMARK VINA RESULT: -8.468870574      3.057      7.132
REMARK  9 active torsions:
REMARK  status: ('A' for Active; 'I' for Inactive)
REMARK    1  A    between atoms: N1_1  and  C1_4 
REMARK    2  A    between atoms: C4_12  and  N4_13 
REMARK    3  A    between atoms: N4_13  and  C5_15 
REMARK    4  A    between atoms: C5_15  and  C6_16 
REMARK    5  A    between atoms: C6_16  and  S1_17 
REMARK    6  A    between atoms: S1_17  and  C7_18 
REMARK    7  A    between atoms: C7_18  and  C8_19 
REMARK    8  A    between atoms: C8_19  and  C9_20 
REMARK    9  A    between atoms: N9_28  and  O2_29 
ROOT
HETATM    1  C1  UNL     1       4.438  18.002  36.673  1.00  0.00     0.680 A 
HETATM    2  N2  UNL     1       5.224  17.298  37.514  1.00  0.00    -0.154 N 
ATOM      3  H2  UNL     1       5.089  17.353  38.523  1.00  0.00     0.187 HD
HETATM    4  C2  UNL     1       6.187  16.523  36.989  1.00  0.00     0.290 A 
HETATM    5  O1  UNL     1       6.916  15.869  37.778  1.00  0.00    -0.265 OA
HETATM    6  C3  UNL     1       6.398  16.425  35.634  1.00  0.00     0.165 A 
HETATM    7  N3  UNL     1       7.256  15.752  34.831  1.00  0.00    -0.180 N 
ATOM      8  H3  UNL     1       7.986  15.124  35.168  1.00  0.00     0.184 HD
HETATM    9  C4  UNL     1       7.026  16.016  33.542  1.00  0.00     0.707 A 
HETATM   10  N9  UNL     1       5.982  16.890  33.530  1.00  0.00    -0.032 N 
HETATM   11  C10 UNL     1       5.591  17.147  34.790  1.00  0.00     0.199 A 
HETATM   12  N10 UNL     1       4.636  17.912  35.351  1.00  0.00    -0.171 N 
ATOM     13  H10 UNL     1       4.029  18.454  34.735  1.00  0.00     0.186 HD
ENDROOT
BRANCH   9  14
HETATM   14  N4  UNL     1       7.676  15.521  32.382  1.00  0.00    -0.223 N 
ATOM     15  H4  UNL     1       7.251  15.716  31.476  1.00  0.00     0.177 HD
BRANCH  14  16
HETATM   16  C5  UNL     1       8.890  14.767  32.401  1.00  0.00     0.148 C 
BRANCH  16  17
HETATM   17  C6  UNL     1       9.095  13.898  31.192  1.00  0.00     0.094 C 
BRANCH  17  18
HETATM   18  S1  UNL     1       9.409  14.905  29.726  1.00  0.00    -0.167 SA
BRANCH  18  19
HETATM   19  C7  UNL     1       8.017  14.679  28.559  1.00  0.00     0.081 C 
BRANCH  19  20
HETATM   20  C8  UNL     1       6.754  14.544  29.394  1.00  0.00     0.089 C 
BRANCH  20  21
HETATM   21  C9  UNL     1       6.062  15.845  29.355  1.00  0.00     0.110 A 
HETATM   22  N5  UNL     1       4.746  16.063  29.410  1.00  0.00    -0.271 N 
HETATM   23  N6  UNL     1       4.591  17.385  29.341  1.00  0.00    -0.005 NA
ATOM     24  H5  UNL     1       4.010  15.362  29.488  1.00  0.00     0.185 HD
HETATM   25  N7  UNL     1       5.759  17.996  29.246  1.00  0.00    -0.225 N 
HETATM   26  N8  UNL     1       6.656  17.038  29.255  1.00  0.00    -0.275 N 
ATOM     27  H7  UNL     1       5.927  19.000  29.180  1.00  0.00     0.205 HD
ATOM     28  H8  UNL     1       7.664  17.184  29.194  1.00  0.00     0.189 HD
ENDBRANCH  20  21
ENDBRANCH  19  20
ENDBRANCH  18  19
ENDBRANCH  17  18
ENDBRANCH  16  17
ENDBRANCH  14  16
ENDBRANCH   9  14
BRANCH  10  29
HETATM   29  O2  UNL     1       5.424  17.421  32.397  1.00  0.00    -0.268 OA
ATOM     30  H2  UNL     1       5.443  18.342  32.166  1.00  0.00     0.246 HD
ENDBRANCH  10  29
BRANCH   1  31
HETATM   31  N1  UNL     1       3.525  18.733  37.213  1.00  0.00    -0.234 N 
ATOM     32  H12 UNL     1       3.323  19.692  36.930  1.00  0.00     0.174 HD
ATOM     33  H11 UNL     1       2.985  18.306  37.965  1.00  0.00     0.174 HD
ENDBRANCH   1  31
TORSDOF 9
ENDMDL
MODEL 3
REMARK VINA RESULT: -8.422480333      1.951      2.543
REMARK  9 active torsions:
REMARK  status: ('A' for Active; 'I' for Inactive)
REMARK    1  A    between atoms: N1_1  and  C1_4 
REMARK    2  A    between atoms: C4_12  and  N4_13 
REMARK    3  A    between atoms: N4_13  and  C5_15 
REMARK    4  A    between atoms: C5_15  and  C6_16 
REMARK    5  A    between atoms: C6_16  and  S1_17 
REMARK    6  A    between atoms: S1_17  and  C7_18 
REMARK    7  A    between atoms: C7_18  and  C8_19 
REMARK    8  A    between atoms: C8_19  and  C9_20 
REMARK    9  A    between atoms: N9_28  and  O2_29 
ROOT
HETATM    1  C1  UNL     1      10.174  13.568  31.975  1.00  0.00     0.680 A 
HETATM    2  N2  UNL     1       9.714  13.283  30.739  1.00  0.00    -0.154 N 
ATOM      3  H2  UNL     1      10.212  12.630  30.134  1.00  0.00     0.187 HD
HETATM    4  C2  UNL     1       8.583  13.879  30.326  1.00  0.00     0.290 A 
HETATM    5  O1  UNL     1       8.159  13.609  29.173  1.00  0.00    -0.265 OA
HETATM    6  C3  UNL     1       7.886  14.764  31.114  1.00  0.00     0.165 A 
HETATM    7  N3  UNL     1       6.756  15.498  30.984  1.00  0.00    -0.180 N 
ATOM      8  H3  UNL     1       6.167  15.504  30.150  1.00  0.00     0.184 HD
HETATM    9  C4  UNL     1       6.510  16.215  32.085  1.00  0.00     0.707 A 
HETATM   10  N9  UNL     1       7.525  15.922  32.943  1.00  0.00    -0.032 N 
HETATM   11  C10 UNL     1       8.366  15.045  32.370  1.00  0.00     0.199 A 
HETATM   12  N10 UNL     1       9.501  14.428  32.750  1.00  0.00    -0.171 N 
ATOM     13  H10 UNL     1       9.869  14.628  33.681  1.00  0.00     0.186 HD
ENDROOT
BRANCH   9  14
HETATM   14  N4  UNL     1       5.439  17.099  32.373  1.00  0.00    -0.223 N 
ATOM     15  H4  UNL     1       5.534  18.074  32.087  1.00  0.00     0.177 HD
BRANCH  14  16
HETATM   16  C5  UNL     1       4.235  16.713  33.039  1.00  0.00     0.148 C 
BRANCH  16  17
HETATM   17  C6  UNL     1       3.581  17.819  33.820  1.00  0.00     0.094 C 
BRANCH  17  18
HETATM   18  S1  UNL     1       4.693  18.442  35.100  1.00  0.00    -0.167 SA
BRANCH  18  19
HETATM   19  C7  UNL     1       4.218  17.686  36.698  1.00  0.00     0.081 C 
BRANCH  19  20
HETATM   20  C8  UNL     1       5.507  17.328  37.420  1.00  0.00     0.089 C 
BRANCH  20  21
HETATM   21  C9  UNL     1       5.997  16.064  36.840  1.00  0.00     0.110 A 
HETATM   22  N5  UNL     1       5.380  15.294  35.941  1.00  0.00    -0.271 N 
HETATM   23  N6  UNL     1       6.196  14.266  35.718  1.00  0.00    -0.005 NA
ATOM     24  H5  UNL     1       4.469  15.460  35.513  1.00  0.00     0.185 HD
HETATM   25  N7  UNL     1       7.296  14.366  36.443  1.00  0.00    -0.225 N 
HETATM   26  N8  UNL     1       7.162  15.476  37.130  1.00  0.00    -0.275 N 
ATOM     27  H7  UNL     1       8.083  13.717  36.464  1.00  0.00     0.205 HD
ATOM     28  H8  UNL     1       7.849  15.839  37.791  1.00  0.00     0.189 HD
ENDBRANCH  20  21
ENDBRANCH  19  20
ENDBRANCH  18  19
ENDBRANCH  17  18
ENDBRANCH  16  17
ENDBRANCH  14  16
ENDBRANCH   9  14
BRANCH  10  29
HETATM   29  O2  UNL     1       7.658  16.450  34.201  1.00  0.00    -0.268 OA
ATOM     30  H2  UNL     1       8.484  16.703  34.596  1.00  0.00     0.246 HD
ENDBRANCH  10  29
BRANCH   1  31
HETATM   31  N1  UNL     1      11.261  12.976  32.336  1.00  0.00    -0.234 N 
ATOM     32  H12 UNL     1      11.418  11.972  32.244  1.00  0.00     0.174 HD
ATOM     33  H11 UNL     1      11.991  13.566  32.734  1.00  0.00     0.174 HD
ENDBRANCH   1  31
TORSDOF 9
ENDMDL
MODEL 4
REMARK VINA RESULT: -8.374580866      3.524      7.682
REMARK  9 active torsions:
REMARK  status: ('A' for Active; 'I' for Inactive)
REMARK    1  A    between atoms: N1_1  and  C1_4 
REMARK    2  A    between atoms: C4_12  and  N4_13 
REMARK    3  A    between atoms: N4_13  and  C5_15 
REMARK    4  A    between atoms: C5_15  and  C6_16 
REMARK    5  A    between atoms: C6_16  and  S1_17 
REMARK    6  A    between atoms: S1_17  and  C7_18 
REMARK    7  A    between atoms: C7_18  and  C8_19 
REMARK    8  A    between atoms: C8_19  and  C9_20 
REMARK    9  A    between atoms: N9_28  and  O2_29 
ROOT
HETATM    1  C1  UNL     1       4.265  18.291  36.923  1.00  0.00     0.680 A 
HETATM    2  N2  UNL     1       5.003  17.404  37.622  1.00  0.00    -0.154 N 
ATOM      3  H2  UNL     1       4.976  17.391  38.641  1.00  0.00     0.187 HD
HETATM    4  C2  UNL     1       5.774  16.538  36.943  1.00  0.00     0.290 A 
HETATM    5  O1  UNL     1       6.459  15.714  37.601  1.00  0.00    -0.265 OA
HETATM    6  C3  UNL     1       5.835  16.527  35.570  1.00  0.00     0.165 A 
HETATM    7  N3  UNL     1       6.493  15.803  34.633  1.00  0.00    -0.180 N 
ATOM      8  H3  UNL     1       7.140  15.043  34.844  1.00  0.00     0.184 HD
HETATM    9  C4  UNL     1       6.186  16.210  33.398  1.00  0.00     0.707 A 
HETATM   10  N9  UNL     1       5.301  17.232  33.561  1.00  0.00    -0.032 N 
HETATM   11  C10 UNL     1       5.079  17.435  34.870  1.00  0.00     0.199 A 
HETATM   12  N10 UNL     1       4.319  18.286  35.584  1.00  0.00    -0.171 N 
ATOM     13  H10 UNL     1       3.752  18.967  35.078  1.00  0.00     0.186 HD
ENDROOT
BRANCH   9  14
HETATM   14  N4  UNL     1       6.634  15.723  32.142  1.00  0.00    -0.223 N 
ATOM     15  H4  UNL     1       5.948  15.634  31.392  1.00  0.00     0.177 HD
BRANCH  14  16
HETATM   16  C5  UNL     1       7.985  15.350  31.860  1.00  0.00     0.148 C 
BRANCH  16  17
HETATM   17  C6  UNL     1       8.244  15.020  30.417  1.00  0.00     0.094 C 
BRANCH  17  18
HETATM   18  S1  UNL     1       6.727  15.156  29.447  1.00  0.00    -0.167 SA
BRANCH  18  19
HETATM   19  C7  UNL     1       6.483  16.913  28.996  1.00  0.00     0.081 C 
BRANCH  19  20
HETATM   20  C8  UNL     1       4.983  17.160  28.969  1.00  0.00     0.089 C 
BRANCH  20  21
HETATM   21  C9  UNL     1       4.747  18.320  28.088  1.00  0.00     0.110 A 
HETATM   22  N5  UNL     1       5.665  19.123  27.547  1.00  0.00    -0.271 N 
HETATM   23  N6  UNL     1       4.989  20.022  26.833  1.00  0.00    -0.005 NA
ATOM     24  H5  UNL     1       6.677  19.062  27.657  1.00  0.00     0.185 HD
HETATM   25  N7  UNL     1       3.687  19.809  26.910  1.00  0.00    -0.225 N 
HETATM   26  N8  UNL     1       3.550  18.759  27.685  1.00  0.00    -0.275 N 
ATOM     27  H7  UNL     1       2.945  20.346  26.461  1.00  0.00     0.205 HD
ATOM     28  H8  UNL     1       2.658  18.338  27.944  1.00  0.00     0.189 HD
ENDBRANCH  20  21
ENDBRANCH  19  20
ENDBRANCH  18  19
ENDBRANCH  17  18
ENDBRANCH  16  17
ENDBRANCH  14  16
ENDBRANCH   9  14
BRANCH  10  29
HETATM   29  O2  UNL     1       4.731  17.939  32.535  1.00  0.00    -0.268 OA
ATOM     30  H2  UNL     1       4.432  17.558  31.717  1.00  0.00     0.246 HD
ENDBRANCH  10  29
BRANCH   1  31
HETATM   31  N1  UNL     1       3.538  19.104  37.609  1.00  0.00    -0.234 N 
ATOM     32  H12 UNL     1       2.706  18.822  38.127  1.00  0.00     0.174 HD
ATOM     33  H11 UNL     1       3.832  20.080  37.620  1.00  0.00     0.174 HD
ENDBRANCH   1  31
TORSDOF 9
ENDMDL
MODEL 5
REMARK VINA RESULT: -8.349257744      3.203      7.478
REMARK  9 active torsions:
REMARK  status: ('A' for Active; 'I' for Inactive)
REMARK    1  A    between atoms: N1_1  and  C1_4 
REMARK    2  A    between atoms: C4_12  and  N4_13 
REMARK    3  A    between atoms: N4_13  and  C5_15 
REMARK    4  A    between atoms: C5_15  and  C6_16 
REMARK    5  A    between atoms: C6_16  and  S1_17 
REMARK    6  A    between atoms: S1_17  and  C7_18 
REMARK    7  A    between atoms: C7_18  and  C8_19 
REMARK    8  A    between atoms: C8_19  and  C9_20 
REMARK    9  A    between atoms: N9_28  and  O2_29 
ROOT
HETATM    1  C1  UNL     1       4.547  17.079  35.943  1.00  0.00     0.680 A 
HETATM    2  N2  UNL     1       4.107  17.746  34.857  1.00  0.00    -0.154 N 
ATOM      3  H2  UNL     1       3.276  18.336  34.907  1.00  0.00     0.187 HD
HETATM    4  C2  UNL     1       4.789  17.614  33.707  1.00  0.00     0.290 A 
HETATM    5  O1  UNL     1       4.374  18.239  32.698  1.00  0.00    -0.265 OA
HETATM    6  C3  UNL     1       5.911  16.828  33.602  1.00  0.00     0.165 A 
HETATM    7  N3  UNL     1       6.783  16.506  32.617  1.00  0.00    -0.180 N 
ATOM      8  H3  UNL     1       6.723  16.854  31.660  1.00  0.00     0.184 HD
HETATM    9  C4  UNL     1       7.733  15.675  33.058  1.00  0.00     0.707 A 
HETATM   10  N9  UNL     1       7.448  15.463  34.372  1.00  0.00    -0.032 N 
HETATM   11  C10 UNL     1       6.349  16.154  34.717  1.00  0.00     0.199 A 
HETATM   12  N10 UNL     1       5.640  16.311  35.850  1.00  0.00    -0.171 N 
ATOM     13  H10 UNL     1       5.954  15.816  36.686  1.00  0.00     0.186 HD
ENDROOT
BRANCH   9  14
HETATM   14  N4  UNL     1       8.835  15.107  32.369  1.00  0.00    -0.223 N 
ATOM     15  H4  UNL     1       9.771  15.287  32.734  1.00  0.00     0.177 HD
BRANCH  14  16
HETATM   16  C5  UNL     1       8.720  14.298  31.197  1.00  0.00     0.148 C 
BRANCH  16  17
HETATM   17  C6  UNL     1       8.634  15.078  29.915  1.00  0.00     0.094 C 
BRANCH  17  18
HETATM   18  S1  UNL     1       6.922  15.208  29.359  1.00  0.00    -0.167 SA
BRANCH  18  19
HETATM   19  C7  UNL     1       6.498  16.981  29.196  1.00  0.00     0.081 C 
BRANCH  19  20
HETATM   20  C8  UNL     1       4.999  17.059  28.951  1.00  0.00     0.089 C 
BRANCH  20  21
HETATM   21  C9  UNL     1       4.756  18.242  28.105  1.00  0.00     0.110 A 
HETATM   22  N5  UNL     1       5.656  19.130  27.679  1.00  0.00    -0.271 N 
HETATM   23  N6  UNL     1       4.980  20.017  26.950  1.00  0.00    -0.005 NA
ATOM     24  H5  UNL     1       6.658  19.129  27.871  1.00  0.00     0.185 HD
HETATM   25  N7  UNL     1       3.695  19.714  26.907  1.00  0.00    -0.225 N 
HETATM   26  N8  UNL     1       3.568  18.621  27.622  1.00  0.00    -0.275 N 
ATOM     27  H7  UNL     1       2.956  20.224  26.421  1.00  0.00     0.205 HD
ATOM     28  H8  UNL     1       2.689  18.130  27.786  1.00  0.00     0.189 HD
ENDBRANCH  20  21
ENDBRANCH  19  20
ENDBRANCH  18  19
ENDBRANCH  17  18
ENDBRANCH  16  17
ENDBRANCH  14  16
ENDBRANCH   9  14
BRANCH  10  29
HETATM   29  O2  UNL     1       8.182  14.662  35.208  1.00  0.00    -0.268 OA
ATOM     30  H2  UNL     1       8.373  14.861  36.117  1.00  0.00     0.246 HD
ENDBRANCH  10  29
BRANCH   1  31
HETATM   31  N1  UNL     1       3.867  17.231  37.028  1.00  0.00    -0.234 N 
ATOM     32  H12 UNL     1       3.389  16.469  37.511  1.00  0.00     0.174 HD
ATOM     33  H11 UNL     1       3.819  18.176  37.407  1.00  0.00     0.174 HD
ENDBRANCH   1  31
TORSDOF 9
ENDMDL
