MODEL 1
REMARK VINA RESULT: -7.671089342      0.000      0.000
REMARK  7 active torsions:
REMARK  status: ('A' for Active; 'I' for Inactive)
REMARK    1  A    between atoms: O1_2  and  N1_3 
REMARK       I    between atoms: C2_5  and  N3_7 
REMARK       I    between atoms: N3_7  and  C3_9 
REMARK       I    between atoms: C3_9  and  N5_13 
REMARK    2  A    between atoms: N5_13  and  C4_15 
REMARK    3  A    between atoms: C4_15  and  C5_16 
REMARK    4  A    between atoms: C5_16  and  C6_17 
REMARK    5  A    between atoms: C6_17  and  C7_18 
REMARK    6  A    between atoms: C7_18  and  O2_19 
REMARK    7  A    between atoms: O2_19  and  C8_20 
ROOT
HETATM    1  C4  UNL     1       4.947  18.339  36.034  1.00  0.00     0.138 C 
ENDROOT
BRANCH   1   2
HETATM    2  N5  UNL     1       4.801  16.993  36.533  1.00  0.00    -0.226 N 
HETATM    3  C3  UNL     1       5.664  16.579  37.583  1.00  0.00     0.674 C 
HETATM    4  N3  UNL     1       6.843  15.869  37.224  1.00  0.00    -0.162 N 
HETATM    5  N4  UNL     1       5.333  16.868  38.786  1.00  0.00    -0.235 N 
HETATM    6  C2  UNL     1       6.688  14.613  36.587  1.00  0.00     0.226 C 
ATOM      7  H3  UNL     1       7.768  16.252  37.418  1.00  0.00     0.187 HD
HETATM    8  N1  UNL     1       6.913  13.543  37.257  1.00  0.00    -0.238 N 
HETATM    9  N2  UNL     1       6.288  14.562  35.217  1.00  0.00    -0.061 NA
ATOM     10  H1  UNL     1       6.807  12.628  36.816  1.00  0.00     0.197 HD
ATOM     11  H42 UNL     1       5.952  16.571  39.539  1.00  0.00     0.174 HD
ATOM     12  H41 UNL     1       4.487  17.377  39.043  1.00  0.00     0.174 HD
ATOM     13  H5  UNL     1       4.102  16.359  36.144  1.00  0.00     0.177 HD
BRANCH   8  14
HETATM   14  O1  UNL     1       7.294  13.638  38.565  1.00  0.00    -0.283 OA
HETATM   15  C1  UNL     1       6.964  12.686  39.544  1.00  0.00     0.237 C 
ENDBRANCH   8  14
ENDBRANCH   1   2
BRANCH   1  16
HETATM   16  C5  UNL     1       4.548  18.397  34.601  1.00  0.00     0.022 C 
BRANCH  16  17
HETATM   17  C6  UNL     1       3.836  17.136  34.199  1.00  0.00     0.028 C 
BRANCH  17  18
HETATM   18  C7  UNL     1       4.389  16.647  32.897  1.00  0.00     0.179 C 
BRANCH  18  19
HETATM   19  O2  UNL     1       5.552  17.403  32.562  1.00  0.00    -0.321 OA
BRANCH  19  20
HETATM   20  C8  UNL     1       6.741  16.755  32.244  1.00  0.00     0.232 C 
HETATM   21  N6  UNL     1       7.089  16.628  30.988  1.00  0.00    -0.340 N 
HETATM   22  C9  UNL     1       8.331  15.951  30.631  1.00  0.00     0.179 C 
ATOM     23  H6  UNL     1       6.488  17.004  30.255  1.00  0.00     0.164 HD
HETATM   24  S1  UNL     1       8.128  15.264  28.981  1.00  0.00    -0.068 SA
HETATM   25  C10 UNL     1       8.460  14.779  31.602  1.00  0.00     0.129 C 
HETATM   26  C11 UNL     1       9.568  13.845  31.192  1.00  0.00     0.033 C 
HETATM   27  N7  UNL     1       8.674  15.347  32.918  1.00  0.00    -0.131 NA
HETATM   28  N8  UNL     1       7.626  16.206  33.211  1.00  0.00    -0.269 N 
ATOM     29  H8  UNL     1       7.481  16.462  34.187  1.00  0.00     0.186 HD
ENDBRANCH  19  20
ENDBRANCH  18  19
ENDBRANCH  17  18
ENDBRANCH  16  17
ENDBRANCH   1  16
TORSDOF 7
ENDMDL
MODEL 2
REMARK VINA RESULT: -7.475953485      2.881      7.248
REMARK  7 active torsions:
REMARK  status: ('A' for Active; 'I' for Inactive)
REMARK    1  A    between atoms: O1_2  and  N1_3 
REMARK       I    between atoms: C2_5  and  N3_7 
REMARK       I    between atoms: N3_7  and  C3_9 
REMARK       I    between atoms: C3_9  and  N5_13 
REMARK    2  A    between atoms: N5_13  and  C4_15 
REMARK    3  A    between atoms: C4_15  and  C5_16 
REMARK    4  A    between atoms: C5_16  and  C6_17 
REMARK    5  A    between atoms: C6_17  and  C7_18 
REMARK    6  A    between atoms: C7_18  and  O2_19 
REMARK    7  A    between atoms: O2_19  and  C8_20 
ROOT
HETATM    1  C4  UNL     1       9.154  14.137  30.300  1.00  0.00     0.138 C 
ENDROOT
BRANCH   1   2
HETATM    2  N5  UNL     1       7.874  14.694  30.665  1.00  0.00    -0.226 N 
HETATM    3  C3  UNL     1       6.992  15.069  29.616  1.00  0.00     0.674 C 
HETATM    4  N3  UNL     1       6.997  16.431  29.208  1.00  0.00    -0.162 N 
HETATM    5  N4  UNL     1       6.248  14.163  29.100  1.00  0.00    -0.235 N 
HETATM    6  C2  UNL     1       6.601  17.405  30.158  1.00  0.00     0.226 C 
ATOM      7  H3  UNL     1       7.276  16.698  28.265  1.00  0.00     0.187 HD
HETATM    8  N1  UNL     1       5.446  17.951  30.047  1.00  0.00    -0.238 N 
HETATM    9  N2  UNL     1       7.492  17.760  31.217  1.00  0.00    -0.061 NA
ATOM     10  H1  UNL     1       5.143  18.655  30.721  1.00  0.00     0.197 HD
ATOM     11  H42 UNL     1       5.615  14.432  28.347  1.00  0.00     0.174 HD
ATOM     12  H41 UNL     1       6.244  13.185  29.393  1.00  0.00     0.174 HD
ATOM     13  H5  UNL     1       7.611  14.815  31.644  1.00  0.00     0.177 HD
BRANCH   8  14
HETATM   14  O1  UNL     1       4.626  17.582  29.018  1.00  0.00    -0.283 OA
HETATM   15  C1  UNL     1       4.291  18.428  27.949  1.00  0.00     0.237 C 
ENDBRANCH   8  14
ENDBRANCH   1   2
BRANCH   1  16
HETATM   16  C5  UNL     1       9.671  13.282  31.403  1.00  0.00     0.022 C 
BRANCH  16  17
HETATM   17  C6  UNL     1      10.183  14.130  32.533  1.00  0.00     0.028 C 
BRANCH  17  18
HETATM   18  C7  UNL     1       9.149  14.198  33.613  1.00  0.00     0.179 C 
BRANCH  18  19
HETATM   19  O2  UNL     1       8.413  15.414  33.488  1.00  0.00    -0.321 OA
BRANCH  19  20
HETATM   20  C8  UNL     1       7.229  15.591  34.195  1.00  0.00     0.232 C 
HETATM   21  N6  UNL     1       6.213  16.178  33.613  1.00  0.00    -0.340 N 
HETATM   22  C9  UNL     1       4.961  16.376  34.336  1.00  0.00     0.179 C 
ATOM     23  H6  UNL     1       6.297  16.499  32.649  1.00  0.00     0.164 HD
HETATM   24  S1  UNL     1       4.138  17.810  33.628  1.00  0.00    -0.068 SA
HETATM   25  C10 UNL     1       5.358  16.735  35.766  1.00  0.00     0.129 C 
HETATM   26  C11 UNL     1       4.172  17.210  36.563  1.00  0.00     0.033 C 
HETATM   27  N7  UNL     1       5.974  15.555  36.339  1.00  0.00    -0.131 NA
HETATM   28  N8  UNL     1       7.039  15.172  35.540  1.00  0.00    -0.269 N 
ATOM     29  H8  UNL     1       7.734  14.545  35.944  1.00  0.00     0.186 HD
ENDBRANCH  19  20
ENDBRANCH  18  19
ENDBRANCH  17  18
ENDBRANCH  16  17
ENDBRANCH   1  16
TORSDOF 7
ENDMDL
MODEL 3
REMARK VINA RESULT: -7.412134080      1.064      1.598
REMARK  7 active torsions:
REMARK  status: ('A' for Active; 'I' for Inactive)
REMARK    1  A    between atoms: O1_2  and  N1_3 
REMARK       I    between atoms: C2_5  and  N3_7 
REMARK       I    between atoms: N3_7  and  C3_9 
REMARK       I    between atoms: C3_9  and  N5_13 
REMARK    2  A    between atoms: N5_13  and  C4_15 
REMARK    3  A    between atoms: C4_15  and  C5_16 
REMARK    4  A    between atoms: C5_16  and  C6_17 
REMARK    5  A    between atoms: C6_17  and  C7_18 
REMARK    6  A    between atoms: C7_18  and  O2_19 
REMARK    7  A    between atoms: O2_19  and  C8_20 
ROOT
HETATM    1  C4  UNL     1       5.048  18.520  36.141  1.00  0.00     0.138 C 
ENDROOT
BRANCH   1   2
HETATM    2  N5  UNL     1       4.872  17.136  36.507  1.00  0.00    -0.226 N 
HETATM    3  C3  UNL     1       5.677  16.623  37.560  1.00  0.00     0.674 C 
HETATM    4  N3  UNL     1       6.871  15.940  37.203  1.00  0.00    -0.162 N 
HETATM    5  N4  UNL     1       5.281  16.805  38.765  1.00  0.00    -0.235 N 
HETATM    6  C2  UNL     1       6.749  14.747  36.448  1.00  0.00     0.226 C 
ATOM      7  H3  UNL     1       7.786  16.297  37.480  1.00  0.00     0.187 HD
HETATM    8  N1  UNL     1       6.934  13.620  37.029  1.00  0.00    -0.238 N 
HETATM    9  N2  UNL     1       6.423  14.823  35.059  1.00  0.00    -0.061 NA
ATOM     10  H1  UNL     1       6.850  12.750  36.502  1.00  0.00     0.197 HD
ATOM     11  H42 UNL     1       5.858  16.437  39.521  1.00  0.00     0.174 HD
ATOM     12  H41 UNL     1       4.423  17.294  39.021  1.00  0.00     0.174 HD
ATOM     13  H5  UNL     1       4.194  16.545  36.026  1.00  0.00     0.177 HD
BRANCH   8  14
HETATM   14  O1  UNL     1       7.245  13.594  38.359  1.00  0.00    -0.283 OA
HETATM   15  C1  UNL     1       6.874  12.553  39.225  1.00  0.00     0.237 C 
ENDBRANCH   8  14
ENDBRANCH   1   2
BRANCH   1  16
HETATM   16  C5  UNL     1       4.572  18.743  34.748  1.00  0.00     0.022 C 
BRANCH  16  17
HETATM   17  C6  UNL     1       4.097  17.454  34.139  1.00  0.00     0.028 C 
BRANCH  17  18
HETATM   18  C7  UNL     1       4.519  17.397  32.704  1.00  0.00     0.179 C 
BRANCH  18  19
HETATM   19  O2  UNL     1       5.937  17.257  32.632  1.00  0.00    -0.321 OA
BRANCH  19  20
HETATM   20  C8  UNL     1       6.519  16.548  31.587  1.00  0.00     0.232 C 
HETATM   21  N6  UNL     1       7.268  15.508  31.853  1.00  0.00    -0.340 N 
HETATM   22  C9  UNL     1       7.890  14.749  30.773  1.00  0.00     0.179 C 
ATOM     23  H6  UNL     1       7.419  15.226  32.822  1.00  0.00     0.164 HD
HETATM   24  S1  UNL     1       9.379  13.981  31.426  1.00  0.00    -0.068 SA
HETATM   25  C10 UNL     1       8.324  15.783  29.735  1.00  0.00     0.129 C 
HETATM   26  C11 UNL     1       9.202  15.165  28.679  1.00  0.00     0.033 C 
HETATM   27  N7  UNL     1       7.113  16.356  29.182  1.00  0.00    -0.131 NA
HETATM   28  N8  UNL     1       6.354  16.882  30.215  1.00  0.00    -0.269 N 
ATOM     29  H8  UNL     1       5.627  17.555  29.975  1.00  0.00     0.186 HD
ENDBRANCH  19  20
ENDBRANCH  18  19
ENDBRANCH  17  18
ENDBRANCH  16  17
ENDBRANCH   1  16
TORSDOF 7
ENDMDL
MODEL 4
REMARK VINA RESULT: -7.274815510      3.303      7.460
REMARK  7 active torsions:
REMARK  status: ('A' for Active; 'I' for Inactive)
REMARK    1  A    between atoms: O1_2  and  N1_3 
REMARK       I    between atoms: C2_5  and  N3_7 
REMARK       I    between atoms: N3_7  and  C3_9 
REMARK       I    between atoms: C3_9  and  N5_13 
REMARK    2  A    between atoms: N5_13  and  C4_15 
REMARK    3  A    between atoms: C4_15  and  C5_16 
REMARK    4  A    between atoms: C5_16  and  C6_17 
REMARK    5  A    between atoms: C6_17  and  C7_18 
REMARK    6  A    between atoms: C7_18  and  O2_19 
REMARK    7  A    between atoms: O2_19  and  C8_20 
ROOT
HETATM    1  C4  UNL     1       8.697  13.953  30.455  1.00  0.00     0.138 C 
ENDROOT
BRANCH   1   2
HETATM    2  N5  UNL     1       7.453  14.635  30.721  1.00  0.00    -0.226 N 
HETATM    3  C3  UNL     1       6.661  15.024  29.608  1.00  0.00     0.674 C 
HETATM    4  N3  UNL     1       6.804  16.356  29.132  1.00  0.00    -0.162 N 
HETATM    5  N4  UNL     1       5.868  14.156  29.099  1.00  0.00    -0.235 N 
HETATM    6  C2  UNL     1       6.447  17.411  30.008  1.00  0.00     0.226 C 
ATOM      7  H3  UNL     1       7.153  16.546  28.192  1.00  0.00     0.187 HD
HETATM    8  N1  UNL     1       5.352  18.045  29.806  1.00  0.00    -0.238 N 
HETATM    9  N2  UNL     1       7.312  17.748  31.093  1.00  0.00    -0.061 NA
ATOM     10  H1  UNL     1       5.077  18.808  30.425  1.00  0.00     0.197 HD
ATOM     11  H42 UNL     1       5.299  14.435  28.300  1.00  0.00     0.174 HD
ATOM     12  H41 UNL     1       5.765  13.200  29.441  1.00  0.00     0.174 HD
ATOM     13  H5  UNL     1       7.153  14.832  31.677  1.00  0.00     0.177 HD
BRANCH   8  14
HETATM   14  O1  UNL     1       4.555  17.689  28.754  1.00  0.00    -0.283 OA
HETATM   15  C1  UNL     1       4.165  18.577  27.738  1.00  0.00     0.237 C 
ENDBRANCH   8  14
ENDBRANCH   1   2
BRANCH   1  16
HETATM   16  C5  UNL     1       9.545  13.945  31.678  1.00  0.00     0.022 C 
BRANCH  16  17
HETATM   17  C6  UNL     1       9.296  15.177  32.502  1.00  0.00     0.028 C 
BRANCH  17  18
HETATM   18  C7  UNL     1       8.458  14.821  33.690  1.00  0.00     0.179 C 
BRANCH  18  19
HETATM   19  O2  UNL     1       7.102  15.192  33.441  1.00  0.00    -0.321 OA
BRANCH  19  20
HETATM   20  C8  UNL     1       6.501  16.192  34.197  1.00  0.00     0.232 C 
HETATM   21  N6  UNL     1       6.783  16.293  35.472  1.00  0.00    -0.340 N 
HETATM   22  C9  UNL     1       6.163  17.334  36.286  1.00  0.00     0.179 C 
ATOM     23  H6  UNL     1       7.439  15.640  35.899  1.00  0.00     0.164 HD
HETATM   24  S1  UNL     1       6.106  16.744  37.984  1.00  0.00    -0.068 SA
HETATM   25  C10 UNL     1       4.722  17.446  35.791  1.00  0.00     0.129 C 
HETATM   26  C11 UNL     1       3.893  18.307  36.706  1.00  0.00     0.033 C 
HETATM   27  N7  UNL     1       4.782  17.970  34.441  1.00  0.00    -0.131 NA
HETATM   28  N8  UNL     1       5.577  17.135  33.671  1.00  0.00    -0.269 N 
ATOM     29  H8  UNL     1       5.493  17.203  32.657  1.00  0.00     0.186 HD
ENDBRANCH  19  20
ENDBRANCH  18  19
ENDBRANCH  17  18
ENDBRANCH  16  17
ENDBRANCH   1  16
TORSDOF 7
ENDMDL
MODEL 5
REMARK VINA RESULT: -7.261865277      3.216      6.381
REMARK  7 active torsions:
REMARK  status: ('A' for Active; 'I' for Inactive)
REMARK    1  A    between atoms: O1_2  and  N1_3 
REMARK       I    between atoms: C2_5  and  N3_7 
REMARK       I    between atoms: N3_7  and  C3_9 
REMARK       I    between atoms: C3_9  and  N5_13 
REMARK    2  A    between atoms: N5_13  and  C4_15 
REMARK    3  A    between atoms: C4_15  and  C5_16 
REMARK    4  A    between atoms: C5_16  and  C6_17 
REMARK    5  A    between atoms: C6_17  and  C7_18 
REMARK    6  A    between atoms: C7_18  and  O2_19 
REMARK    7  A    between atoms: O2_19  and  C8_20 
ROOT
HETATM    1  C4  UNL     1       7.201  15.570  28.874  1.00  0.00     0.138 C 
ENDROOT
BRANCH   1   2
HETATM    2  N5  UNL     1       8.310  15.763  29.776  1.00  0.00    -0.226 N 
HETATM    3  C3  UNL     1       9.251  14.705  29.903  1.00  0.00     0.674 C 
HETATM    4  N3  UNL     1       9.076  13.795  30.981  1.00  0.00    -0.162 N 
HETATM    5  N4  UNL     1      10.197  14.633  29.042  1.00  0.00    -0.235 N 
HETATM    6  C2  UNL     1       9.175  14.307  32.299  1.00  0.00     0.226 C 
ATOM      7  H3  UNL     1       8.886  12.807  30.812  1.00  0.00     0.187 HD
HETATM    8  N1  UNL     1      10.227  14.060  32.987  1.00  0.00    -0.238 N 
HETATM    9  N2  UNL     1       8.102  15.085  32.834  1.00  0.00    -0.061 NA
ATOM     10  H1  UNL     1      10.317  14.419  33.938  1.00  0.00     0.197 HD
ATOM     11  H42 UNL     1      10.872  13.874  29.133  1.00  0.00     0.174 HD
ATOM     12  H41 UNL     1      10.322  15.286  28.269  1.00  0.00     0.174 HD
ATOM     13  H5  UNL     1       8.415  16.628  30.306  1.00  0.00     0.177 HD
BRANCH   8  14
HETATM   14  O1  UNL     1      11.228  13.310  32.436  1.00  0.00    -0.283 OA
HETATM   15  C1  UNL     1      12.578  13.424  32.803  1.00  0.00     0.237 C 
ENDBRANCH   8  14
ENDBRANCH   1   2
BRANCH   1  16
HETATM   16  C5  UNL     1       5.954  15.317  29.646  1.00  0.00     0.022 C 
BRANCH  16  17
HETATM   17  C6  UNL     1       5.099  16.552  29.688  1.00  0.00     0.028 C 
BRANCH  17  18
HETATM   18  C7  UNL     1       5.373  17.304  30.953  1.00  0.00     0.179 C 
BRANCH  18  19
HETATM   19  O2  UNL     1       4.585  16.757  32.010  1.00  0.00    -0.321 OA
BRANCH  19  20
HETATM   20  C8  UNL     1       4.826  17.130  33.328  1.00  0.00     0.232 C 
HETATM   21  N6  UNL     1       5.772  16.527  34.004  1.00  0.00    -0.340 N 
HETATM   22  C9  UNL     1       6.042  16.901  35.389  1.00  0.00     0.179 C 
ATOM     23  H6  UNL     1       6.323  15.792  33.561  1.00  0.00     0.164 HD
HETATM   24  S1  UNL     1       6.746  15.468  36.218  1.00  0.00    -0.068 SA
HETATM   25  C10 UNL     1       4.678  17.172  36.020  1.00  0.00     0.129 C 
HETATM   26  C11 UNL     1       4.785  17.326  37.514  1.00  0.00     0.033 C 
HETATM   27  N7  UNL     1       4.147  18.357  35.378  1.00  0.00    -0.131 NA
HETATM   28  N8  UNL     1       4.099  18.143  34.010  1.00  0.00    -0.269 N 
ATOM     29  H8  UNL     1       3.501  18.754  33.454  1.00  0.00     0.186 HD
ENDBRANCH  19  20
ENDBRANCH  18  19
ENDBRANCH  17  18
ENDBRANCH  16  17
ENDBRANCH   1  16
TORSDOF 7
ENDMDL
