MODEL 1
REMARK VINA RESULT: -7.965316400      0.000      0.000
REMARK  10 active torsions:
REMARK  status: ('A' for Active; 'I' for Inactive)
REMARK    1  A    between atoms: C1_4  and  C2_6 
REMARK    2  A    between atoms: C3_10  and  C4_11 
REMARK    3  A    between atoms: N5_14  and  C5_15 
REMARK    4  A    between atoms: C5_15  and  C6_16 
REMARK    5  A    between atoms: C6_16  and  C7_17 
REMARK    6  A    between atoms: C8_21  and  N7_22 
REMARK    7  A    between atoms: N7_22  and  C9_24 
REMARK    8  A    between atoms: C9_24  and  C10_25 
REMARK    9  A    between atoms: C10_25  and  C11_26 
REMARK   10  A    between atoms: C11_26  and  N8_27 
ROOT
HETATM    1  C4  UNL     1       5.783  16.535  31.132  1.00  0.00     0.125 A 
HETATM    2  N4  UNL     1       6.425  15.336  30.935  1.00  0.00    -0.278 N 
ATOM      3  H4  UNL     1       6.661  14.684  31.684  1.00  0.00     0.189 HD
HETATM    4  N5  UNL     1       6.699  15.131  29.672  1.00  0.00    -0.232 N 
HETATM    5  N6  UNL     1       6.261  16.156  29.010  1.00  0.00    -0.267 N 
ATOM      6  H6  UNL     1       6.334  16.276  28.000  1.00  0.00     0.190 HD
HETATM    7  C8  UNL     1       5.691  17.046  29.861  1.00  0.00     0.148 A 
ENDROOT
BRANCH   1   8
HETATM    8  C3  UNL     1       5.351  17.043  32.417  1.00  0.00     0.114 A 
HETATM    9  N3  UNL     1       4.552  18.145  32.537  1.00  0.00    -0.256 N 
HETATM   10  O1  UNL     1       4.307  18.399  33.765  1.00  0.00    -0.232 OA
ATOM     11  H3  UNL     1       4.197  18.691  31.751  1.00  0.00     0.195 HD
HETATM   12  C2  UNL     1       4.881  17.547  34.566  1.00  0.00     0.166 A 
HETATM   13  C12 UNL     1       5.561  16.662  33.697  1.00  0.00     0.116 A 
HETATM   14  N9  UNL     1       6.321  15.576  34.163  1.00  0.00    -0.097 NA
BRANCH  12  15
HETATM   15  C1  UNL     1       4.870  17.462  36.009  1.00  0.00     0.148 C 
HETATM   16  N1  UNL     1       5.883  17.865  36.673  1.00  0.00    -0.385 N 
ATOM     17  H12 UNL     1       5.876  17.805  37.691  1.00  0.00     0.157 HD
ATOM     18  H11 UNL     1       6.693  18.244  36.181  1.00  0.00     0.157 HD
HETATM   19  N2  UNL     1       3.751  16.938  36.689  1.00  0.00    -0.080 NA
ENDBRANCH  12  15
ENDBRANCH   1   8
BRANCH   7  20
HETATM   20  N7  UNL     1       5.184  18.139  29.474  1.00  0.00    -0.373 N 
ATOM     21  H7  UNL     1       5.296  18.969  30.056  1.00  0.00     0.161 HD
BRANCH  20  22
HETATM   22  C9  UNL     1       4.462  18.245  28.248  1.00  0.00     0.123 C 
BRANCH  22  23
HETATM   23  C10 UNL     1       4.641  19.584  27.567  1.00  0.00     0.047 C 
BRANCH  23  24
HETATM   24  C11 UNL     1       3.414  19.889  26.710  1.00  0.00     0.231 C 
BRANCH  24  25
HETATM   25  N8  UNL     1       2.223  19.376  27.328  1.00  0.00    -0.079 N 
ATOM     26  H83 UNL     1       2.434  18.848  28.174  1.00  0.00     0.274 HD
ATOM     27  H82 UNL     1       1.664  20.119  27.746  1.00  0.00     0.274 HD
ATOM     28  H81 UNL     1       1.681  18.824  26.662  1.00  0.00     0.274 HD
ENDBRANCH  24  25
ENDBRANCH  23  24
ENDBRANCH  22  23
ENDBRANCH  20  22
ENDBRANCH   7  20
BRANCH   4  29
HETATM   29  C5  UNL     1       7.382  13.927  29.171  1.00  0.00     0.170 C 
BRANCH  29  30
HETATM   30  C6  UNL     1       8.773  13.854  29.692  1.00  0.00     0.034 C 
BRANCH  30  31
HETATM   31  C7  UNL     1       9.691  14.927  29.197  1.00  0.00     0.088 C 
HETATM   32  S1  UNL     1       9.895  14.918  27.412  1.00  0.00    -0.098 SA
ENDBRANCH  30  31
ENDBRANCH  29  30
ENDBRANCH   4  29
TORSDOF 10
ENDMDL
MODEL 2
REMARK VINA RESULT: -7.797811927      1.095      1.160
REMARK  10 active torsions:
REMARK  status: ('A' for Active; 'I' for Inactive)
REMARK    1  A    between atoms: C1_4  and  C2_6 
REMARK    2  A    between atoms: C3_10  and  C4_11 
REMARK    3  A    between atoms: N5_14  and  C5_15 
REMARK    4  A    between atoms: C5_15  and  C6_16 
REMARK    5  A    between atoms: C6_16  and  C7_17 
REMARK    6  A    between atoms: C8_21  and  N7_22 
REMARK    7  A    between atoms: N7_22  and  C9_24 
REMARK    8  A    between atoms: C9_24  and  C10_25 
REMARK    9  A    between atoms: C10_25  and  C11_26 
REMARK   10  A    between atoms: C11_26  and  N8_27 
ROOT
HETATM    1  C4  UNL     1       5.928  16.609  31.101  1.00  0.00     0.125 A 
HETATM    2  N4  UNL     1       6.673  15.473  30.894  1.00  0.00    -0.278 N 
ATOM      3  H4  UNL     1       6.960  14.835  31.637  1.00  0.00     0.189 HD
HETATM    4  N5  UNL     1       6.970  15.308  29.630  1.00  0.00    -0.232 N 
HETATM    5  N6  UNL     1       6.448  16.299  28.978  1.00  0.00    -0.267 N 
ATOM      6  H6  UNL     1       6.516  16.437  27.970  1.00  0.00     0.190 HD
HETATM    7  C8  UNL     1       5.798  17.125  29.835  1.00  0.00     0.148 A 
ENDROOT
BRANCH   1   8
HETATM    8  C3  UNL     1       5.447  17.062  32.389  1.00  0.00     0.114 A 
HETATM    9  N3  UNL     1       4.580  18.110  32.519  1.00  0.00    -0.256 N 
HETATM   10  O1  UNL     1       4.302  18.323  33.748  1.00  0.00    -0.232 OA
ATOM     11  H3  UNL     1       4.205  18.651  31.740  1.00  0.00     0.195 HD
HETATM   12  C2  UNL     1       4.915  17.490  34.541  1.00  0.00     0.166 A 
HETATM   13  C12 UNL     1       5.661  16.667  33.665  1.00  0.00     0.116 A 
HETATM   14  N9  UNL     1       6.479  15.619  34.120  1.00  0.00    -0.097 NA
BRANCH  12  15
HETATM   15  C1  UNL     1       4.889  17.373  35.981  1.00  0.00     0.148 C 
HETATM   16  N1  UNL     1       5.920  17.697  36.660  1.00  0.00    -0.385 N 
ATOM     17  H12 UNL     1       5.902  17.614  37.676  1.00  0.00     0.157 HD
ATOM     18  H11 UNL     1       6.755  18.035  36.182  1.00  0.00     0.157 HD
HETATM   19  N2  UNL     1       3.734  16.905  36.642  1.00  0.00    -0.080 NA
ENDBRANCH  12  15
ENDBRANCH   1   8
BRANCH   7  20
HETATM   20  N7  UNL     1       5.201  18.175  29.458  1.00  0.00    -0.373 N 
ATOM     21  H7  UNL     1       5.212  18.996  30.065  1.00  0.00     0.161 HD
BRANCH  20  22
HETATM   22  C9  UNL     1       4.512  18.246  28.210  1.00  0.00     0.123 C 
BRANCH  22  23
HETATM   23  C10 UNL     1       4.648  19.592  27.533  1.00  0.00     0.047 C 
BRANCH  23  24
HETATM   24  C11 UNL     1       3.404  19.867  26.690  1.00  0.00     0.231 C 
BRANCH  24  25
HETATM   25  N8  UNL     1       2.227  19.363  27.342  1.00  0.00    -0.079 N 
ATOM     26  H83 UNL     1       2.425  18.518  27.879  1.00  0.00     0.274 HD
ATOM     27  H82 UNL     1       1.933  19.966  28.109  1.00  0.00     0.274 HD
ATOM     28  H81 UNL     1       1.476  19.215  26.667  1.00  0.00     0.274 HD
ENDBRANCH  24  25
ENDBRANCH  23  24
ENDBRANCH  22  23
ENDBRANCH  20  22
ENDBRANCH   7  20
BRANCH   4  29
HETATM   29  C5  UNL     1       7.757  14.174  29.119  1.00  0.00     0.170 C 
BRANCH  29  30
HETATM   30  C6  UNL     1       9.148  14.218  29.644  1.00  0.00     0.034 C 
BRANCH  30  31
HETATM   31  C7  UNL     1       9.421  13.294  30.789  1.00  0.00     0.088 C 
HETATM   32  S1  UNL     1       9.769  14.153  32.327  1.00  0.00    -0.098 SA
ENDBRANCH  30  31
ENDBRANCH  29  30
ENDBRANCH   4  29
TORSDOF 10
ENDMDL
MODEL 3
REMARK VINA RESULT: -7.541857848      3.529      5.549
REMARK  10 active torsions:
REMARK  status: ('A' for Active; 'I' for Inactive)
REMARK    1  A    between atoms: C1_4  and  C2_6 
REMARK    2  A    between atoms: C3_10  and  C4_11 
REMARK    3  A    between atoms: N5_14  and  C5_15 
REMARK    4  A    between atoms: C5_15  and  C6_16 
REMARK    5  A    between atoms: C6_16  and  C7_17 
REMARK    6  A    between atoms: C8_21  and  N7_22 
REMARK    7  A    between atoms: N7_22  and  C9_24 
REMARK    8  A    between atoms: C9_24  and  C10_25 
REMARK    9  A    between atoms: C10_25  and  C11_26 
REMARK   10  A    between atoms: C11_26  and  N8_27 
ROOT
HETATM    1  C4  UNL     1       6.608  16.407  32.038  1.00  0.00     0.125 A 
HETATM    2  N4  UNL     1       5.698  16.447  33.067  1.00  0.00    -0.278 N 
ATOM      3  H4  UNL     1       5.757  15.869  33.905  1.00  0.00     0.189 HD
HETATM    4  N5  UNL     1       4.747  17.318  32.843  1.00  0.00    -0.232 N 
HETATM    5  N6  UNL     1       4.988  17.866  31.693  1.00  0.00    -0.267 N 
ATOM      6  H6  UNL     1       4.413  18.585  31.254  1.00  0.00     0.190 HD
HETATM    7  C8  UNL     1       6.118  17.341  31.159  1.00  0.00     0.148 A 
ENDROOT
BRANCH   1   8
HETATM    8  C3  UNL     1       7.771  15.545  31.993  1.00  0.00     0.114 A 
HETATM    9  N3  UNL     1       8.392  15.215  30.822  1.00  0.00    -0.256 N 
HETATM   10  O1  UNL     1       9.389  14.446  31.036  1.00  0.00    -0.232 OA
ATOM     11  H3  UNL     1       8.099  15.539  29.900  1.00  0.00     0.195 HD
HETATM   12  C2  UNL     1       9.546  14.185  32.303  1.00  0.00     0.166 A 
HETATM   13  C12 UNL     1       8.497  14.897  32.932  1.00  0.00     0.116 A 
HETATM   14  N9  UNL     1       8.300  14.885  34.323  1.00  0.00    -0.097 NA
BRANCH  12  15
HETATM   15  C1  UNL     1      10.531  13.372  32.980  1.00  0.00     0.148 C 
HETATM   16  N1  UNL     1      11.547  12.945  32.335  1.00  0.00    -0.385 N 
ATOM     17  H12 UNL     1      12.242  12.371  32.813  1.00  0.00     0.157 HD
ATOM     18  H11 UNL     1      11.657  13.180  31.349  1.00  0.00     0.157 HD
HETATM   19  N2  UNL     1      10.379  13.048  34.344  1.00  0.00    -0.080 NA
ENDBRANCH  12  15
ENDBRANCH   1   8
BRANCH   7  20
HETATM   20  N7  UNL     1       6.579  17.699  30.036  1.00  0.00    -0.373 N 
ATOM     21  H7  UNL     1       7.291  18.428  30.003  1.00  0.00     0.161 HD
BRANCH  20  22
HETATM   22  C9  UNL     1       6.132  17.112  28.814  1.00  0.00     0.123 C 
BRANCH  22  23
HETATM   23  C10 UNL     1       4.697  17.457  28.480  1.00  0.00     0.047 C 
BRANCH  23  24
HETATM   24  C11 UNL     1       4.637  18.859  27.874  1.00  0.00     0.231 C 
BRANCH  24  25
HETATM   25  N8  UNL     1       3.311  19.153  27.408  1.00  0.00    -0.079 N 
ATOM     26  H83 UNL     1       2.770  19.666  28.105  1.00  0.00     0.274 HD
ATOM     27  H82 UNL     1       3.317  19.857  26.670  1.00  0.00     0.274 HD
ATOM     28  H81 UNL     1       2.835  18.300  27.113  1.00  0.00     0.274 HD
ENDBRANCH  24  25
ENDBRANCH  23  24
ENDBRANCH  22  23
ENDBRANCH  20  22
ENDBRANCH   7  20
BRANCH   4  29
HETATM   29  C5  UNL     1       3.639  17.575  33.777  1.00  0.00     0.170 C 
BRANCH  29  30
HETATM   30  C6  UNL     1       3.726  16.673  34.957  1.00  0.00     0.034 C 
BRANCH  30  31
HETATM   31  C7  UNL     1       3.889  17.368  36.273  1.00  0.00     0.088 C 
HETATM   32  S1  UNL     1       5.068  18.723  36.219  1.00  0.00    -0.098 SA
ENDBRANCH  30  31
ENDBRANCH  29  30
ENDBRANCH   4  29
TORSDOF 10
ENDMDL
MODEL 4
REMARK VINA RESULT: -7.419615099      3.549      7.341
REMARK  10 active torsions:
REMARK  status: ('A' for Active; 'I' for Inactive)
REMARK    1  A    between atoms: C1_4  and  C2_6 
REMARK    2  A    between atoms: C3_10  and  C4_11 
REMARK    3  A    between atoms: N5_14  and  C5_15 
REMARK    4  A    between atoms: C5_15  and  C6_16 
REMARK    5  A    between atoms: C6_16  and  C7_17 
REMARK    6  A    between atoms: C8_21  and  N7_22 
REMARK    7  A    between atoms: N7_22  and  C9_24 
REMARK    8  A    between atoms: C9_24  and  C10_25 
REMARK    9  A    between atoms: C10_25  and  C11_26 
REMARK   10  A    between atoms: C11_26  and  N8_27 
ROOT
HETATM    1  C4  UNL     1       7.037  15.779  32.442  1.00  0.00     0.125 A 
HETATM    2  N4  UNL     1       6.265  15.855  33.576  1.00  0.00    -0.278 N 
ATOM      3  H4  UNL     1       5.292  16.163  33.586  1.00  0.00     0.189 HD
HETATM    4  N5  UNL     1       6.928  15.484  34.643  1.00  0.00    -0.232 N 
HETATM    5  N6  UNL     1       8.123  15.160  34.261  1.00  0.00    -0.267 N 
ATOM      6  H6  UNL     1       8.866  14.832  34.878  1.00  0.00     0.190 HD
HETATM    7  C8  UNL     1       8.241  15.324  32.920  1.00  0.00     0.148 A 
ENDROOT
BRANCH   1   8
HETATM    8  C3  UNL     1       6.588  16.122  31.108  1.00  0.00     0.114 A 
HETATM    9  N3  UNL     1       6.933  15.389  30.008  1.00  0.00    -0.256 N 
HETATM   10  O1  UNL     1       6.420  15.886  28.950  1.00  0.00    -0.232 OA
ATOM     11  H3  UNL     1       7.521  14.555  30.030  1.00  0.00     0.195 HD
HETATM   12  C2  UNL     1       5.711  16.950  29.200  1.00  0.00     0.166 A 
HETATM   13  C12 UNL     1       5.815  17.110  30.602  1.00  0.00     0.116 A 
HETATM   14  N9  UNL     1       5.187  18.159  31.296  1.00  0.00    -0.097 NA
BRANCH  12  15
HETATM   15  C1  UNL     1       4.967  17.814  28.311  1.00  0.00     0.148 C 
HETATM   16  N1  UNL     1       5.192  19.070  28.317  1.00  0.00    -0.385 N 
ATOM     17  H12 UNL     1       4.667  19.680  27.690  1.00  0.00     0.157 HD
ATOM     18  H11 UNL     1       5.895  19.456  28.948  1.00  0.00     0.157 HD
HETATM   19  N2  UNL     1       3.996  17.280  27.439  1.00  0.00    -0.080 NA
ENDBRANCH  12  15
ENDBRANCH   1   8
BRANCH   7  20
HETATM   20  N7  UNL     1       9.311  15.082  32.288  1.00  0.00    -0.373 N 
ATOM     21  H7  UNL     1      10.050  15.785  32.279  1.00  0.00     0.161 HD
BRANCH  20  22
HETATM   22  C9  UNL     1       9.514  13.855  31.589  1.00  0.00     0.123 C 
BRANCH  22  23
HETATM   23  C10 UNL     1      10.522  12.948  32.261  1.00  0.00     0.047 C 
BRANCH  23  24
HETATM   24  C11 UNL     1      11.545  13.794  33.017  1.00  0.00     0.231 C 
BRANCH  24  25
HETATM   25  N8  UNL     1      12.882  13.368  32.711  1.00  0.00    -0.079 N 
ATOM     26  H83 UNL     1      12.986  12.357  32.798  1.00  0.00     0.274 HD
ATOM     27  H82 UNL     1      13.088  13.458  31.716  1.00  0.00     0.274 HD
ATOM     28  H81 UNL     1      13.561  13.870  33.285  1.00  0.00     0.274 HD
ENDBRANCH  24  25
ENDBRANCH  23  24
ENDBRANCH  22  23
ENDBRANCH  20  22
ENDBRANCH   7  20
BRANCH   4  29
HETATM   29  C5  UNL     1       6.349  15.462  35.995  1.00  0.00     0.170 C 
BRANCH  29  30
HETATM   30  C6  UNL     1       6.768  16.663  36.767  1.00  0.00     0.034 C 
BRANCH  30  31
HETATM   31  C7  UNL     1       5.905  17.870  36.578  1.00  0.00     0.088 C 
HETATM   32  S1  UNL     1       4.162  17.473  36.394  1.00  0.00    -0.098 SA
ENDBRANCH  30  31
ENDBRANCH  29  30
ENDBRANCH   4  29
TORSDOF 10
ENDMDL
MODEL 5
REMARK VINA RESULT: -7.333760210      1.158      1.447
REMARK  10 active torsions:
REMARK  status: ('A' for Active; 'I' for Inactive)
REMARK    1  A    between atoms: C1_4  and  C2_6 
REMARK    2  A    between atoms: C3_10  and  C4_11 
REMARK    3  A    between atoms: N5_14  and  C5_15 
REMARK    4  A    between atoms: C5_15  and  C6_16 
REMARK    5  A    between atoms: C6_16  and  C7_17 
REMARK    6  A    between atoms: C8_21  and  N7_22 
REMARK    7  A    between atoms: N7_22  and  C9_24 
REMARK    8  A    between atoms: C9_24  and  C10_25 
REMARK    9  A    between atoms: C10_25  and  C11_26 
REMARK   10  A    between atoms: C11_26  and  N8_27 
ROOT
HETATM    1  C4  UNL     1       6.190  16.536  32.340  1.00  0.00     0.125 A 
HETATM    2  N4  UNL     1       7.246  15.662  32.432  1.00  0.00    -0.278 N 
ATOM      3  H4  UNL     1       7.544  15.215  33.299  1.00  0.00     0.189 HD
HETATM    4  N5  UNL     1       7.824  15.473  31.272  1.00  0.00    -0.232 N 
HETATM    5  N6  UNL     1       7.189  16.194  30.402  1.00  0.00    -0.267 N 
ATOM      6  H6  UNL     1       7.416  16.248  29.409  1.00  0.00     0.190 HD
HETATM    7  C8  UNL     1       6.177  16.865  31.007  1.00  0.00     0.148 A 
ENDROOT
BRANCH   1   8
HETATM    8  C3  UNL     1       5.353  16.945  33.449  1.00  0.00     0.114 A 
HETATM    9  N3  UNL     1       4.051  17.325  33.283  1.00  0.00    -0.256 N 
HETATM   10  O1  UNL     1       3.523  17.642  34.402  1.00  0.00    -0.232 OA
ATOM     11  H3  UNL     1       3.566  17.352  32.386  1.00  0.00     0.195 HD
HETATM   12  C2  UNL     1       4.359  17.519  35.393  1.00  0.00     0.166 A 
HETATM   13  C12 UNL     1       5.552  17.066  34.782  1.00  0.00     0.116 A 
HETATM   14  N9  UNL     1       6.725  16.803  35.509  1.00  0.00    -0.097 NA
BRANCH  12  15
HETATM   15  C1  UNL     1       4.184  17.767  36.806  1.00  0.00     0.148 C 
HETATM   16  N1  UNL     1       4.797  17.039  37.656  1.00  0.00    -0.385 N 
ATOM     17  H12 UNL     1       4.673  17.213  38.653  1.00  0.00     0.157 HD
ATOM     18  H11 UNL     1       5.406  16.287  37.333  1.00  0.00     0.157 HD
HETATM   19  N2  UNL     1       3.341  18.806  37.253  1.00  0.00    -0.080 NA
ENDBRANCH  12  15
ENDBRANCH   1   8
BRANCH   7  20
HETATM   20  N7  UNL     1       5.400  17.645  30.384  1.00  0.00    -0.373 N 
ATOM     21  H7  UNL     1       4.615  18.064  30.883  1.00  0.00     0.161 HD
BRANCH  20  22
HETATM   22  C9  UNL     1       5.589  17.956  29.004  1.00  0.00     0.123 C 
BRANCH  22  23
HETATM   23  C10 UNL     1       4.302  17.932  28.209  1.00  0.00     0.047 C 
BRANCH  23  24
HETATM   24  C11 UNL     1       4.090  19.290  27.540  1.00  0.00     0.231 C 
BRANCH  24  25
HETATM   25  N8  UNL     1       2.695  19.517  27.285  1.00  0.00    -0.079 N 
ATOM     26  H83 UNL     1       2.233  18.679  26.934  1.00  0.00     0.274 HD
ATOM     27  H82 UNL     1       2.166  19.633  28.149  1.00  0.00     0.274 HD
ATOM     28  H81 UNL     1       2.568  20.311  26.655  1.00  0.00     0.274 HD
ENDBRANCH  24  25
ENDBRANCH  23  24
ENDBRANCH  22  23
ENDBRANCH  20  22
ENDBRANCH   7  20
BRANCH   4  29
HETATM   29  C5  UNL     1       8.980  14.585  31.074  1.00  0.00     0.170 C 
BRANCH  29  30
HETATM   30  C6  UNL     1       8.729  13.633  29.959  1.00  0.00     0.034 C 
BRANCH  30  31
HETATM   31  C7  UNL     1       8.545  14.267  28.616  1.00  0.00     0.088 C 
HETATM   32  S1  UNL     1      10.018  15.104  28.018  1.00  0.00    -0.098 SA
ENDBRANCH  30  31
ENDBRANCH  29  30
ENDBRANCH   4  29
TORSDOF 10
ENDMDL
