MODEL 1
REMARK VINA RESULT: -8.802928073      0.000      0.000
REMARK  10 active torsions:
REMARK  status: ('A' for Active; 'I' for Inactive)
REMARK    1  A    between atoms: C3_3  and  C4_4 
REMARK    2  A    between atoms: C4_4  and  C5_5 
REMARK    3  A    between atoms: C5_5  and  C6_6 
REMARK    4  A    between atoms: C6_6  and  N1_7 
REMARK    5  A    between atoms: N1_7  and  C7_9 
REMARK    6  A    between atoms: C9_13  and  N3_14 
REMARK    7  A    between atoms: C10_19  and  N5_20 
REMARK    8  A    between atoms: N7_26  and  C12_27 
REMARK    9  A    between atoms: C13_30  and  C14_31 
REMARK   10  A    between atoms: C14_31  and  O3_32 
ROOT
HETATM    1  C1  UNL     1      31.273  15.153   7.867  1.00  0.00     0.012 C 
HETATM    2  C2  UNL     1      31.259  15.658   8.959  1.00  0.00    -0.117 C 
HETATM    3  C3  UNL     1      31.238  16.309  10.302  1.00  0.00     0.093 C 
ENDROOT
BRANCH   3   4
HETATM    4  C4  UNL     1      32.316  17.353  10.331  1.00  0.00     0.014 C 
BRANCH   4   5
HETATM    5  C5  UNL     1      32.820  17.558  11.734  1.00  0.00     0.021 C 
BRANCH   5   6
HETATM    6  C6  UNL     1      32.467  16.375  12.582  1.00  0.00     0.138 C 
BRANCH   6   7
HETATM    7  N1  UNL     1      31.950  16.720  13.894  1.00  0.00    -0.226 N 
ATOM      8  H1  UNL     1      32.472  17.353  14.499  1.00  0.00     0.177 HD
BRANCH   7   9
HETATM    9  C7  UNL     1      30.717  16.174  14.331  1.00  0.00     0.686 A 
HETATM   10  N2  UNL     1      29.788  15.575  13.572  1.00  0.00    -0.184 N 
HETATM   11  C8  UNL     1      28.774  15.194  14.327  1.00  0.00     0.138 A 
ATOM     12  H2  UNL     1      29.855  15.435  12.563  1.00  0.00     0.184 HD
HETATM   13  C9  UNL     1      27.590  14.556  14.091  1.00  0.00     0.146 A 
HETATM   14  C11 UNL     1      29.072  15.568  15.631  1.00  0.00     0.175 A 
HETATM   15  N4  UNL     1      26.763  14.317  15.127  1.00  0.00    -0.175 N 
HETATM   16  C10 UNL     1      27.094  14.695  16.365  1.00  0.00     0.679 A 
ATOM     17  H4  UNL     1      25.875  13.842  14.964  1.00  0.00     0.186 HD
HETATM   18  N6  UNL     1      28.236  15.318  16.640  1.00  0.00    -0.173 N 
ATOM     19  H6  UNL     1      28.466  15.597  17.593  1.00  0.00     0.186 HD
HETATM   20  N7  UNL     1      30.277  16.171  15.603  1.00  0.00    -0.112 N 
BRANCH  13  21
HETATM   21  N3  UNL     1      27.298  14.203  12.889  1.00  0.00    -0.383 N 
ATOM     22  H32 UNL     1      26.708  14.775  12.284  1.00  0.00     0.157 HD
ATOM     23  H31 UNL     1      27.667  13.323  12.526  1.00  0.00     0.157 HD
ENDBRANCH  13  21
BRANCH  16  24
HETATM   24  N5  UNL     1      26.265  14.445  17.344  1.00  0.00    -0.234 N 
ATOM     25  H52 UNL     1      25.891  13.500  17.441  1.00  0.00     0.174 HD
ATOM     26  H51 UNL     1      26.015  15.199  17.983  1.00  0.00     0.174 HD
ENDBRANCH  16  24
BRANCH  20  27
HETATM   27  C12 UNL     1      30.995  16.721  16.689  1.00  0.00     0.431 C 
HETATM   28  O1  UNL     1      32.276  16.265  16.872  1.00  0.00    -0.182 OA
HETATM   29  O2  UNL     1      32.825  17.126  17.680  1.00  0.00    -0.201 OA
HETATM   30  C13 UNL     1      32.107  18.300  17.615  1.00  0.00     0.325 C 
HETATM   31  O4  UNL     1      31.210  18.111  16.544  1.00  0.00    -0.306 OA
BRANCH  30  32
HETATM   32  C14 UNL     1      32.970  19.520  17.387  1.00  0.00     0.228 C 
BRANCH  32  33
HETATM   33  O3  UNL     1      34.233  19.266  17.859  1.00  0.00    -0.396 OA
ATOM     34  H3  UNL     1      34.699  20.089  17.952  1.00  0.00     0.209 HD
ENDBRANCH  32  33
ENDBRANCH  30  32
ENDBRANCH  20  27
ENDBRANCH   7   9
ENDBRANCH   6   7
ENDBRANCH   5   6
ENDBRANCH   4   5
ENDBRANCH   3   4
TORSDOF 10
ENDMDL
MODEL 2
REMARK VINA RESULT: -8.524724761      1.472      1.622
REMARK  10 active torsions:
REMARK  status: ('A' for Active; 'I' for Inactive)
REMARK    1  A    between atoms: C3_3  and  C4_4 
REMARK    2  A    between atoms: C4_4  and  C5_5 
REMARK    3  A    between atoms: C5_5  and  C6_6 
REMARK    4  A    between atoms: C6_6  and  N1_7 
REMARK    5  A    between atoms: N1_7  and  C7_9 
REMARK    6  A    between atoms: C9_13  and  N3_14 
REMARK    7  A    between atoms: C10_19  and  N5_20 
REMARK    8  A    between atoms: N7_26  and  C12_27 
REMARK    9  A    between atoms: C13_30  and  C14_31 
REMARK   10  A    between atoms: C14_31  and  O3_32 
ROOT
HETATM    1  C1  UNL     1      34.863  13.760   7.953  1.00  0.00     0.012 C 
HETATM    2  C2  UNL     1      34.111  14.171   8.798  1.00  0.00    -0.117 C 
HETATM    3  C3  UNL     1      33.160  14.682   9.827  1.00  0.00     0.093 C 
ENDROOT
BRANCH   3   4
HETATM    4  C4  UNL     1      32.703  16.047   9.402  1.00  0.00     0.014 C 
BRANCH   4   5
HETATM    5  C5  UNL     1      32.171  16.821  10.578  1.00  0.00     0.021 C 
BRANCH   5   6
HETATM    6  C6  UNL     1      31.380  15.914  11.471  1.00  0.00     0.138 C 
BRANCH   6   7
HETATM    7  N1  UNL     1      31.438  16.270  12.877  1.00  0.00    -0.226 N 
ATOM      8  H1  UNL     1      32.222  16.816  13.234  1.00  0.00     0.177 HD
BRANCH   7   9
HETATM    9  C7  UNL     1      30.403  15.857  13.753  1.00  0.00     0.686 A 
HETATM   10  N2  UNL     1      29.294  15.179  13.423  1.00  0.00    -0.184 N 
HETATM   11  C8  UNL     1      28.561  14.971  14.502  1.00  0.00     0.138 A 
ATOM     12  H2  UNL     1      29.052  14.870  12.480  1.00  0.00     0.184 HD
HETATM   13  C9  UNL     1      27.369  14.353  14.747  1.00  0.00     0.146 A 
HETATM   14  C11 UNL     1      29.238  15.545  15.571  1.00  0.00     0.175 A 
HETATM   15  N4  UNL     1      26.899  14.324  16.009  1.00  0.00    -0.175 N 
HETATM   16  C10 UNL     1      27.587  14.889  17.006  1.00  0.00     0.679 A 
ATOM     17  H4  UNL     1      26.010  13.866  16.205  1.00  0.00     0.186 HD
HETATM   18  N6  UNL     1      28.751  15.502  16.812  1.00  0.00    -0.173 N 
ATOM     19  H6  UNL     1      29.257  15.926  17.589  1.00  0.00     0.186 HD
HETATM   20  N7  UNL     1      30.370  16.084  15.079  1.00  0.00    -0.112 N 
BRANCH  13  21
HETATM   21  N3  UNL     1      26.730  13.817  13.768  1.00  0.00    -0.383 N 
ATOM     22  H32 UNL     1      26.165  14.369  13.122  1.00  0.00     0.157 HD
ATOM     23  H31 UNL     1      26.787  12.807  13.631  1.00  0.00     0.157 HD
ENDBRANCH  13  21
BRANCH  16  24
HETATM   24  N5  UNL     1      27.098  14.841  18.217  1.00  0.00    -0.234 N 
ATOM     25  H52 UNL     1      27.095  13.947  18.708  1.00  0.00     0.174 HD
ATOM     26  H51 UNL     1      26.733  15.696  18.636  1.00  0.00     0.174 HD
ENDBRANCH  16  24
BRANCH  20  27
HETATM   27  C12 UNL     1      31.378  16.777  15.786  1.00  0.00     0.431 C 
HETATM   28  O1  UNL     1      31.914  17.880  15.171  1.00  0.00    -0.182 OA
HETATM   29  O2  UNL     1      32.543  18.518  16.116  1.00  0.00    -0.201 OA
HETATM   30  C13 UNL     1      32.028  18.115  17.329  1.00  0.00     0.325 C 
HETATM   31  O4  UNL     1      30.901  17.334  16.996  1.00  0.00    -0.306 OA
BRANCH  30  32
HETATM   32  C14 UNL     1      31.640  19.266  18.228  1.00  0.00     0.228 C 
BRANCH  32  33
HETATM   33  O3  UNL     1      32.731  19.640  18.969  1.00  0.00    -0.396 OA
ATOM     34  H3  UNL     1      33.391  19.999  18.388  1.00  0.00     0.209 HD
ENDBRANCH  32  33
ENDBRANCH  30  32
ENDBRANCH  20  27
ENDBRANCH   7   9
ENDBRANCH   6   7
ENDBRANCH   5   6
ENDBRANCH   4   5
ENDBRANCH   3   4
TORSDOF 10
ENDMDL
MODEL 3
REMARK VINA RESULT: -8.174106308      1.828      2.428
REMARK  10 active torsions:
REMARK  status: ('A' for Active; 'I' for Inactive)
REMARK    1  A    between atoms: C3_3  and  C4_4 
REMARK    2  A    between atoms: C4_4  and  C5_5 
REMARK    3  A    between atoms: C5_5  and  C6_6 
REMARK    4  A    between atoms: C6_6  and  N1_7 
REMARK    5  A    between atoms: N1_7  and  C7_9 
REMARK    6  A    between atoms: C9_13  and  N3_14 
REMARK    7  A    between atoms: C10_19  and  N5_20 
REMARK    8  A    between atoms: N7_26  and  C12_27 
REMARK    9  A    between atoms: C13_30  and  C14_31 
REMARK   10  A    between atoms: C14_31  and  O3_32 
ROOT
HETATM    1  C1  UNL     1      35.259  14.016   7.624  1.00  0.00     0.012 C 
HETATM    2  C2  UNL     1      34.412  14.071   8.478  1.00  0.00    -0.117 C 
HETATM    3  C3  UNL     1      33.345  14.150   9.518  1.00  0.00     0.093 C 
ENDROOT
BRANCH   3   4
HETATM    4  C4  UNL     1      32.937  15.587   9.659  1.00  0.00     0.014 C 
BRANCH   4   5
HETATM    5  C5  UNL     1      31.692  15.868   8.863  1.00  0.00     0.021 C 
BRANCH   5   6
HETATM    6  C6  UNL     1      30.505  15.929   9.775  1.00  0.00     0.138 C 
BRANCH   6   7
HETATM    7  N1  UNL     1      30.845  16.003  11.185  1.00  0.00    -0.226 N 
ATOM      8  H1  UNL     1      31.745  16.385  11.474  1.00  0.00     0.177 HD
BRANCH   7   9
HETATM    9  C7  UNL     1      29.923  15.542  12.158  1.00  0.00     0.686 A 
HETATM   10  N2  UNL     1      28.804  14.837  11.935  1.00  0.00    -0.184 N 
HETATM   11  C8  UNL     1      28.199  14.588  13.083  1.00  0.00     0.138 A 
ATOM     12  H2  UNL     1      28.470  14.538  11.018  1.00  0.00     0.184 HD
HETATM   13  C9  UNL     1      27.059  13.929  13.442  1.00  0.00     0.146 A 
HETATM   14  C11 UNL     1      28.972  15.162  14.084  1.00  0.00     0.175 A 
HETATM   15  N4  UNL     1      26.730  13.863  14.746  1.00  0.00    -0.175 N 
HETATM   16  C10 UNL     1      27.505  14.431  15.675  1.00  0.00     0.679 A 
ATOM     17  H4  UNL     1      25.880  13.375  15.028  1.00  0.00     0.186 HD
HETATM   18  N6  UNL     1      28.624  15.081  15.370  1.00  0.00    -0.173 N 
ATOM     19  H6  UNL     1      29.199  15.506  16.097  1.00  0.00     0.186 HD
HETATM   20  N7  UNL     1      30.028  15.744  13.484  1.00  0.00    -0.112 N 
BRANCH  13  21
HETATM   21  N3  UNL     1      26.332  13.391  12.526  1.00  0.00    -0.383 N 
ATOM     22  H32 UNL     1      25.553  13.887  12.092  1.00  0.00     0.157 HD
ATOM     23  H31 UNL     1      26.539  12.439  12.223  1.00  0.00     0.157 HD
ENDBRANCH  13  21
BRANCH  16  24
HETATM   24  N5  UNL     1      27.152  14.345  16.931  1.00  0.00    -0.234 N 
ATOM     25  H52 UNL     1      26.178  14.137  17.153  1.00  0.00     0.174 HD
ATOM     26  H51 UNL     1      27.859  14.487  17.652  1.00  0.00     0.174 HD
ENDBRANCH  16  24
BRANCH  20  27
HETATM   27  C12 UNL     1      31.087  16.454  14.094  1.00  0.00     0.431 C 
HETATM   28  O1  UNL     1      31.094  17.816  13.921  1.00  0.00    -0.182 OA
HETATM   29  O2  UNL     1      31.926  18.262  14.817  1.00  0.00    -0.201 OA
HETATM   30  C13 UNL     1      32.054  17.308  15.804  1.00  0.00     0.325 C 
HETATM   31  O4  UNL     1      31.064  16.350  15.504  1.00  0.00    -0.306 OA
BRANCH  30  32
HETATM   32  C14 UNL     1      31.867  17.860  17.198  1.00  0.00     0.228 C 
BRANCH  32  33
HETATM   33  O3  UNL     1      32.989  18.563  17.555  1.00  0.00    -0.396 OA
ATOM     34  H3  UNL     1      33.142  19.246  16.914  1.00  0.00     0.209 HD
ENDBRANCH  32  33
ENDBRANCH  30  32
ENDBRANCH  20  27
ENDBRANCH   7   9
ENDBRANCH   6   7
ENDBRANCH   5   6
ENDBRANCH   4   5
ENDBRANCH   3   4
TORSDOF 10
ENDMDL
MODEL 4
REMARK VINA RESULT: -8.075427053      3.233      6.743
REMARK  10 active torsions:
REMARK  status: ('A' for Active; 'I' for Inactive)
REMARK    1  A    between atoms: C3_3  and  C4_4 
REMARK    2  A    between atoms: C4_4  and  C5_5 
REMARK    3  A    between atoms: C5_5  and  C6_6 
REMARK    4  A    between atoms: C6_6  and  N1_7 
REMARK    5  A    between atoms: N1_7  and  C7_9 
REMARK    6  A    between atoms: C9_13  and  N3_14 
REMARK    7  A    between atoms: C10_19  and  N5_20 
REMARK    8  A    between atoms: N7_26  and  C12_27 
REMARK    9  A    between atoms: C13_30  and  C14_31 
REMARK   10  A    between atoms: C14_31  and  O3_32 
ROOT
HETATM    1  C1  UNL     1      26.997  15.159  17.427  1.00  0.00     0.012 C 
HETATM    2  C2  UNL     1      27.673  14.545  16.642  1.00  0.00    -0.117 C 
HETATM    3  C3  UNL     1      28.509  13.804  15.653  1.00  0.00     0.093 C 
ENDROOT
BRANCH   3   4
HETATM    4  C4  UNL     1      27.733  13.701  14.372  1.00  0.00     0.014 C 
BRANCH   4   5
HETATM    5  C5  UNL     1      27.781  15.000  13.614  1.00  0.00     0.021 C 
BRANCH   5   6
HETATM    6  C6  UNL     1      28.214  14.751  12.201  1.00  0.00     0.138 C 
BRANCH   6   7
HETATM    7  N1  UNL     1      29.123  15.754  11.676  1.00  0.00    -0.226 N 
ATOM      8  H1  UNL     1      28.987  16.738  11.906  1.00  0.00     0.177 HD
BRANCH   7   9
HETATM    9  C7  UNL     1      30.201  15.361  10.843  1.00  0.00     0.686 A 
HETATM   10  N2  UNL     1      30.114  14.785   9.635  1.00  0.00    -0.184 N 
HETATM   11  C8  UNL     1      31.327  14.565   9.159  1.00  0.00     0.138 A 
ATOM     12  H2  UNL     1      29.244  14.552   9.155  1.00  0.00     0.184 HD
HETATM   13  C9  UNL     1      31.821  14.020   8.009  1.00  0.00     0.146 A 
HETATM   14  C11 UNL     1      32.228  15.024  10.111  1.00  0.00     0.175 A 
HETATM   15  N4  UNL     1      33.156  13.949   7.845  1.00  0.00    -0.175 N 
HETATM   16  C10 UNL     1      33.985  14.404   8.789  1.00  0.00     0.679 A 
ATOM     17  H4  UNL     1      33.538  13.543   6.991  1.00  0.00     0.186 HD
HETATM   18  N6  UNL     1      33.546  14.943   9.923  1.00  0.00    -0.173 N 
ATOM     19  H6  UNL     1      34.199  15.284  10.629  1.00  0.00     0.186 HD
HETATM   20  N7  UNL     1      31.505  15.509  11.139  1.00  0.00    -0.112 N 
BRANCH  13  21
HETATM   21  N3  UNL     1      31.000  13.589   7.117  1.00  0.00    -0.383 N 
ATOM     22  H32 UNL     1      30.465  14.223   6.523  1.00  0.00     0.157 HD
ATOM     23  H31 UNL     1      30.877  12.583   6.999  1.00  0.00     0.157 HD
ENDBRANCH  13  21
BRANCH  16  24
HETATM   24  N5  UNL     1      35.274  14.318   8.592  1.00  0.00    -0.234 N 
ATOM     25  H52 UNL     1      35.650  13.467   8.175  1.00  0.00     0.174 HD
ATOM     26  H51 UNL     1      35.867  15.103   8.861  1.00  0.00     0.174 HD
ENDBRANCH  16  24
BRANCH  20  27
HETATM   27  C12 UNL     1      31.983  16.083  12.339  1.00  0.00     0.431 C 
HETATM   28  O1  UNL     1      31.826  17.440  12.476  1.00  0.00    -0.182 OA
HETATM   29  O2  UNL     1      32.017  17.671  13.743  1.00  0.00    -0.201 OA
HETATM   30  C13 UNL     1      31.817  16.496  14.434  1.00  0.00     0.325 C 
HETATM   31  O4  UNL     1      31.293  15.604  13.477  1.00  0.00    -0.306 OA
BRANCH  30  32
HETATM   32  C14 UNL     1      30.876  16.643  15.608  1.00  0.00     0.228 C 
BRANCH  32  33
HETATM   33  O3  UNL     1      29.822  17.438  15.237  1.00  0.00    -0.396 OA
ATOM     34  H3  UNL     1      30.134  18.326  15.112  1.00  0.00     0.209 HD
ENDBRANCH  32  33
ENDBRANCH  30  32
ENDBRANCH  20  27
ENDBRANCH   7   9
ENDBRANCH   6   7
ENDBRANCH   5   6
ENDBRANCH   4   5
ENDBRANCH   3   4
TORSDOF 10
ENDMDL
MODEL 5
REMARK VINA RESULT: -8.040523469      3.964      5.917
REMARK  10 active torsions:
REMARK  status: ('A' for Active; 'I' for Inactive)
REMARK    1  A    between atoms: C3_3  and  C4_4 
REMARK    2  A    between atoms: C4_4  and  C5_5 
REMARK    3  A    between atoms: C5_5  and  C6_6 
REMARK    4  A    between atoms: C6_6  and  N1_7 
REMARK    5  A    between atoms: N1_7  and  C7_9 
REMARK    6  A    between atoms: C9_13  and  N3_14 
REMARK    7  A    between atoms: C10_19  and  N5_20 
REMARK    8  A    between atoms: N7_26  and  C12_27 
REMARK    9  A    between atoms: C13_30  and  C14_31 
REMARK   10  A    between atoms: C14_31  and  O3_32 
ROOT
HETATM    1  C1  UNL     1      35.733  12.968   5.402  1.00  0.00     0.012 C 
HETATM    2  C2  UNL     1      34.899  13.080   6.262  1.00  0.00    -0.117 C 
HETATM    3  C3  UNL     1      33.867  13.245   7.328  1.00  0.00     0.093 C 
ENDROOT
BRANCH   3   4
HETATM    4  C4  UNL     1      34.501  13.967   8.481  1.00  0.00     0.014 C 
BRANCH   4   5
HETATM    5  C5  UNL     1      33.654  15.135   8.908  1.00  0.00     0.021 C 
BRANCH   5   6
HETATM    6  C6  UNL     1      33.484  15.126  10.397  1.00  0.00     0.138 C 
BRANCH   6   7
HETATM    7  N1  UNL     1      32.654  16.204  10.904  1.00  0.00    -0.226 N 
ATOM      8  H1  UNL     1      32.649  17.109  10.435  1.00  0.00     0.177 HD
BRANCH   7   9
HETATM    9  C7  UNL     1      31.850  15.994  12.053  1.00  0.00     0.686 A 
HETATM   10  N2  UNL     1      32.237  16.092  13.333  1.00  0.00    -0.184 N 
HETATM   11  C8  UNL     1      31.215  15.828  14.128  1.00  0.00     0.138 A 
ATOM     12  H2  UNL     1      33.177  16.334  13.647  1.00  0.00     0.184 HD
HETATM   13  C9  UNL     1      31.040  15.782  15.481  1.00  0.00     0.146 A 
HETATM   14  C11 UNL     1      30.125  15.549  13.313  1.00  0.00     0.175 A 
HETATM   15  N4  UNL     1      29.824  15.468  15.969  1.00  0.00    -0.175 N 
HETATM   16  C10 UNL     1      28.805  15.208  15.145  1.00  0.00     0.679 A 
ATOM     17  H4  UNL     1      29.681  15.429  16.978  1.00  0.00     0.186 HD
HETATM   18  N6  UNL     1      28.931  15.242  13.821  1.00  0.00    -0.173 N 
ATOM     19  H6  UNL     1      28.138  15.040  13.213  1.00  0.00     0.186 HD
HETATM   20  N7  UNL     1      30.547  15.659  12.038  1.00  0.00    -0.112 N 
BRANCH  13  21
HETATM   21  N3  UNL     1      32.039  16.037  16.250  1.00  0.00    -0.383 N 
ATOM     22  H32 UNL     1      32.844  15.414  16.318  1.00  0.00     0.157 HD
ATOM     23  H31 UNL     1      32.028  16.889  16.812  1.00  0.00     0.157 HD
ENDBRANCH  13  21
BRANCH  16  24
HETATM   24  N5  UNL     1      27.640  14.908  15.656  1.00  0.00    -0.234 N 
ATOM     25  H52 UNL     1      27.465  15.128  16.637  1.00  0.00     0.174 HD
ATOM     26  H51 UNL     1      26.941  14.463  15.062  1.00  0.00     0.174 HD
ENDBRANCH  16  24
BRANCH  20  27
HETATM   27  C12 UNL     1      29.795  15.465  10.857  1.00  0.00     0.431 C 
HETATM   28  O1  UNL     1      29.687  16.543  10.014  1.00  0.00    -0.182 OA
HETATM   29  O2  UNL     1      29.262  16.045   8.888  1.00  0.00    -0.201 OA
HETATM   30  C13 UNL     1      29.555  14.698   8.871  1.00  0.00     0.325 C 
HETATM   31  O4  UNL     1      30.372  14.497  10.003  1.00  0.00    -0.306 OA
BRANCH  30  32
HETATM   32  C14 UNL     1      30.261  14.255   7.611  1.00  0.00     0.228 C 
BRANCH  32  33
HETATM   33  O3  UNL     1      30.305  15.305   6.731  1.00  0.00    -0.396 OA
ATOM     34  H3  UNL     1      31.158  15.325   6.315  1.00  0.00     0.209 HD
ENDBRANCH  32  33
ENDBRANCH  30  32
ENDBRANCH  20  27
ENDBRANCH   7   9
ENDBRANCH   6   7
ENDBRANCH   5   6
ENDBRANCH   4   5
ENDBRANCH   3   4
TORSDOF 10
ENDMDL
