MODEL 1
REMARK VINA RESULT: -7.395146805      0.000      0.000
REMARK  10 active torsions:
REMARK  status: ('A' for Active; 'I' for Inactive)
REMARK    1  A    between atoms: N2_4  and  N3_6 
REMARK    2  A    between atoms: N3_6  and  C1_8 
REMARK    3  A    between atoms: C1_8  and  C2_9 
REMARK    4  A    between atoms: C2_9  and  C3_10 
REMARK    5  A    between atoms: C3_10  and  C4_11 
REMARK    6  A    between atoms: C4_11  and  C5_12 
REMARK    7  A    between atoms: C6_13  and  C7_14 
REMARK    8  A    between atoms: N6_22  and  C11_23 
REMARK    9  A    between atoms: N9_29  and  N10_30 
REMARK   10  A    between atoms: C13_33  and  N11_34 
ROOT
HETATM    1  C7  UNL     1      28.778  14.918  11.599  1.00  0.00     0.164 A 
HETATM    2  N4  UNL     1      29.480  15.632  12.494  1.00  0.00    -0.319 N 
ATOM      3  H4  UNL     1      30.281  16.197  12.210  1.00  0.00     0.169 HD
HETATM    4  C8  UNL     1      29.085  15.573  13.790  1.00  0.00     0.144 A 
HETATM    5  C9  UNL     1      28.010  14.822  14.211  1.00  0.00     0.122 A 
HETATM    6  N5  UNL     1      27.899  14.989  15.534  1.00  0.00    -0.346 N 
ATOM      7  H5  UNL     1      27.193  14.556  16.128  1.00  0.00     0.167 HD
HETATM    8  C10 UNL     1      28.876  15.825  15.956  1.00  0.00     0.188 A 
HETATM    9  N6  UNL     1      29.604  16.184  14.887  1.00  0.00    -0.289 N 
HETATM   10  C13 UNL     1      27.299  14.094  13.268  1.00  0.00     0.132 A 
HETATM   11  N12 UNL     1      27.726  14.181  11.990  1.00  0.00    -0.320 N 
ATOM     12  H12 UNL     1      27.220  13.655  11.279  1.00  0.00     0.169 HD
ENDROOT
BRANCH   1  13
HETATM   13  C6  UNL     1      29.188  14.971  10.204  1.00  0.00    -0.030 C 
HETATM   14  C5  UNL     1      29.546  15.011   9.053  1.00  0.00    -0.098 C 
BRANCH  14  15
HETATM   15  C4  UNL     1      30.005  15.065   7.664  1.00  0.00     0.094 C 
BRANCH  15  16
HETATM   16  C3  UNL     1      31.485  14.776   7.686  1.00  0.00     0.014 C 
BRANCH  16  17
HETATM   17  C2  UNL     1      32.250  15.705   8.566  1.00  0.00     0.022 C 
BRANCH  17  18
HETATM   18  C1  UNL     1      33.171  14.998   9.532  1.00  0.00     0.141 C 
BRANCH  18  19
HETATM   19  N3  UNL     1      32.765  15.373  10.866  1.00  0.00    -0.323 N 
ATOM     20  H3  UNL     1      31.983  14.875  11.290  1.00  0.00     0.181 HD
BRANCH  19  21
HETATM   21  N2  UNL     1      33.383  16.375  11.605  1.00  0.00    -0.254 N 
HETATM   22  N1  UNL     1      32.780  17.467  11.822  1.00  0.00    -0.331 N 
ATOM     23  H12 UNL     1      31.840  17.595  11.446  1.00  0.00     0.178 HD
ATOM     24  H11 UNL     1      33.233  18.202  12.364  1.00  0.00     0.178 HD
ATOM     25  H2  UNL     1      34.324  16.230  11.973  1.00  0.00     0.207 HD
ENDBRANCH  19  21
ENDBRANCH  18  19
ENDBRANCH  17  18
ENDBRANCH  16  17
ENDBRANCH  15  16
ENDBRANCH  14  15
ENDBRANCH   1  13
BRANCH  10  26
HETATM   26  N11 UNL     1      26.287  13.377  13.611  1.00  0.00    -0.383 N 
ATOM     27 2H11 UNL     1      25.797  13.508  14.496  1.00  0.00     0.157 HD
ATOM     28 1H11 UNL     1      25.934  12.642  13.000  1.00  0.00     0.157 HD
ENDBRANCH  10  26
BRANCH   9  29
HETATM   29  C11 UNL     1      30.759  17.069  14.845  1.00  0.00     0.312 C 
HETATM   30  N7  UNL     1      30.911  17.696  16.142  1.00  0.00    -0.349 N 
HETATM   31  C12 UNL     1      31.761  17.021  16.841  1.00  0.00     0.192 C 
ATOM     32  H7  UNL     1      30.424  18.536  16.454  1.00  0.00     0.163 HD
HETATM   33  N8  UNL     1      32.212  15.921  16.051  1.00  0.00    -0.294 N 
HETATM   34  N9  UNL     1      31.996  16.324  14.729  1.00  0.00    -0.101 NA
ATOM     35  H8  UNL     1      32.605  15.038  16.378  1.00  0.00     0.183 HD
BRANCH  34  36
HETATM   36  N10 UNL     1      31.904  15.267  13.839  1.00  0.00    -0.342 NA
ATOM     37 2H10 UNL     1      31.967  15.553  12.862  1.00  0.00     0.172 HD
ATOM     38 1H10 UNL     1      32.685  14.617  13.917  1.00  0.00     0.172 HD
ENDBRANCH  34  36
ENDBRANCH   9  29
TORSDOF 10
ENDMDL
MODEL 2
REMARK VINA RESULT: -7.104820238      3.563      8.330
REMARK  10 active torsions:
REMARK  status: ('A' for Active; 'I' for Inactive)
REMARK    1  A    between atoms: N2_4  and  N3_6 
REMARK    2  A    between atoms: N3_6  and  C1_8 
REMARK    3  A    between atoms: C1_8  and  C2_9 
REMARK    4  A    between atoms: C2_9  and  C3_10 
REMARK    5  A    between atoms: C3_10  and  C4_11 
REMARK    6  A    between atoms: C4_11  and  C5_12 
REMARK    7  A    between atoms: C6_13  and  C7_14 
REMARK    8  A    between atoms: N6_22  and  C11_23 
REMARK    9  A    between atoms: N9_29  and  N10_30 
REMARK   10  A    between atoms: C13_33  and  N11_34 
ROOT
HETATM    1  C7  UNL     1      33.024  14.618   9.790  1.00  0.00     0.164 A 
HETATM    2  N4  UNL     1      32.088  14.057   9.007  1.00  0.00    -0.319 N 
ATOM      3  H4  UNL     1      31.116  13.988   9.309  1.00  0.00     0.169 HD
HETATM    4  C8  UNL     1      32.484  13.586   7.798  1.00  0.00     0.144 A 
HETATM    5  C9  UNL     1      33.786  13.662   7.355  1.00  0.00     0.122 A 
HETATM    6  N5  UNL     1      33.826  13.110   6.137  1.00  0.00    -0.346 N 
ATOM      7  H5  UNL     1      34.659  13.021   5.555  1.00  0.00     0.167 HD
HETATM    8  C10 UNL     1      32.585  12.690   5.801  1.00  0.00     0.188 A 
HETATM    9  N6  UNL     1      31.760  12.981   6.820  1.00  0.00    -0.289 N 
HETATM   10  C13 UNL     1      34.735  14.246   8.182  1.00  0.00     0.132 A 
HETATM   11  N12 UNL     1      34.298  14.701   9.375  1.00  0.00    -0.320 N 
ATOM     12  H12 UNL     1      34.977  15.135   9.999  1.00  0.00     0.169 HD
ENDROOT
BRANCH   1  13
HETATM   13  C6  UNL     1      32.616  15.129  11.089  1.00  0.00    -0.030 C 
HETATM   14  C5  UNL     1      32.274  15.570  12.158  1.00  0.00    -0.098 C 
BRANCH  14  15
HETATM   15  C4  UNL     1      31.866  16.129  13.448  1.00  0.00     0.094 C 
BRANCH  15  16
HETATM   16  C3  UNL     1      30.416  15.760  13.639  1.00  0.00     0.014 C 
BRANCH  16  17
HETATM   17  C2  UNL     1      29.852  16.250  14.929  1.00  0.00     0.022 C 
BRANCH  17  18
HETATM   18  C1  UNL     1      30.884  16.395  16.022  1.00  0.00     0.141 C 
BRANCH  18  19
HETATM   19  N3  UNL     1      30.941  17.792  16.380  1.00  0.00    -0.323 N 
ATOM     20  H3  UNL     1      30.170  18.395  16.094  1.00  0.00     0.181 HD
BRANCH  19  21
HETATM   21  N2  UNL     1      31.989  18.361  17.092  1.00  0.00    -0.254 N 
HETATM   22  N1  UNL     1      31.782  19.369  17.830  1.00  0.00    -0.331 N 
ATOM     23  H12 UNL     1      30.839  19.752  17.890  1.00  0.00     0.178 HD
ATOM     24  H11 UNL     1      32.552  19.787  18.353  1.00  0.00     0.178 HD
ATOM     25  H2  UNL     1      32.928  17.967  17.020  1.00  0.00     0.207 HD
ENDBRANCH  19  21
ENDBRANCH  18  19
ENDBRANCH  17  18
ENDBRANCH  16  17
ENDBRANCH  15  16
ENDBRANCH  14  15
ENDBRANCH   1  13
BRANCH  10  26
HETATM   26  N11 UNL     1      35.964  14.341   7.813  1.00  0.00    -0.383 N 
ATOM     27 2H11 UNL     1      36.470  13.565   7.385  1.00  0.00     0.157 HD
ATOM     28 1H11 UNL     1      36.483  15.210   7.938  1.00  0.00     0.157 HD
ENDBRANCH  10  26
BRANCH   9  29
HETATM   29  C11 UNL     1      30.332  12.721   6.920  1.00  0.00     0.312 C 
HETATM   30  N7  UNL     1      29.780  12.646   5.582  1.00  0.00    -0.349 N 
HETATM   31  C12 UNL     1      29.731  11.409   5.214  1.00  0.00     0.192 C 
ATOM     32  H7  UNL     1      29.478  13.442   5.021  1.00  0.00     0.163 HD
HETATM   33  N8  UNL     1      30.244  10.608   6.277  1.00  0.00    -0.294 N 
HETATM   34  N9  UNL     1      30.068  11.389   7.425  1.00  0.00    -0.101 NA
ATOM     35  H8  UNL     1      30.649   9.674   6.215  1.00  0.00     0.183 HD
BRANCH  34  36
HETATM   36  N10 UNL     1      30.908  11.035   8.466  1.00  0.00    -0.342 NA
ATOM     37 2H10 UNL     1      30.444  11.018   9.374  1.00  0.00     0.172 HD
ATOM     38 1H10 UNL     1      31.250  10.077   8.390  1.00  0.00     0.172 HD
ENDBRANCH  34  36
ENDBRANCH   9  29
TORSDOF 10
ENDMDL
MODEL 3
REMARK VINA RESULT: -6.960481197      3.499      8.347
REMARK  10 active torsions:
REMARK  status: ('A' for Active; 'I' for Inactive)
REMARK    1  A    between atoms: N2_4  and  N3_6 
REMARK    2  A    between atoms: N3_6  and  C1_8 
REMARK    3  A    between atoms: C1_8  and  C2_9 
REMARK    4  A    between atoms: C2_9  and  C3_10 
REMARK    5  A    between atoms: C3_10  and  C4_11 
REMARK    6  A    between atoms: C4_11  and  C5_12 
REMARK    7  A    between atoms: C6_13  and  C7_14 
REMARK    8  A    between atoms: N6_22  and  C11_23 
REMARK    9  A    between atoms: N9_29  and  N10_30 
REMARK   10  A    between atoms: C13_33  and  N11_34 
ROOT
HETATM    1  C7  UNL     1      33.013  14.696   9.915  1.00  0.00     0.164 A 
HETATM    2  N4  UNL     1      32.075  14.110   9.153  1.00  0.00    -0.319 N 
ATOM      3  H4  UNL     1      31.103  14.054   9.458  1.00  0.00     0.169 HD
HETATM    4  C8  UNL     1      32.470  13.592   7.962  1.00  0.00     0.144 A 
HETATM    5  C9  UNL     1      33.772  13.647   7.518  1.00  0.00     0.122 A 
HETATM    6  N5  UNL     1      33.811  13.050   6.321  1.00  0.00    -0.346 N 
ATOM      7  H5  UNL     1      34.643  12.937   5.742  1.00  0.00     0.167 HD
HETATM    8  C10 UNL     1      32.568  12.622   6.001  1.00  0.00     0.188 A 
HETATM    9  N6  UNL     1      31.744  12.953   7.008  1.00  0.00    -0.289 N 
HETATM   10  C13 UNL     1      34.723  14.259   8.322  1.00  0.00     0.132 A 
HETATM   11  N12 UNL     1      34.287  14.760   9.497  1.00  0.00    -0.320 N 
ATOM     12  H12 UNL     1      34.968  15.214  10.105  1.00  0.00     0.169 HD
ENDROOT
BRANCH   1  13
HETATM   13  C6  UNL     1      32.607  15.257  11.194  1.00  0.00    -0.030 C 
HETATM   14  C5  UNL     1      32.260  15.735  12.245  1.00  0.00    -0.098 C 
BRANCH  14  15
HETATM   15  C4  UNL     1      31.835  16.337  13.510  1.00  0.00     0.094 C 
BRANCH  15  16
HETATM   16  C3  UNL     1      30.637  15.552  13.981  1.00  0.00     0.014 C 
BRANCH  16  17
HETATM   17  C2  UNL     1      30.732  15.141  15.411  1.00  0.00     0.022 C 
BRANCH  17  18
HETATM   18  C1  UNL     1      29.389  14.994  16.086  1.00  0.00     0.141 C 
BRANCH  18  19
HETATM   19  N3  UNL     1      29.042  13.594  16.057  1.00  0.00    -0.323 N 
ATOM     20  H3  UNL     1      29.688  12.928  16.482  1.00  0.00     0.181 HD
BRANCH  19  21
HETATM   21  N2  UNL     1      27.877  13.102  15.482  1.00  0.00    -0.254 N 
HETATM   22  N1  UNL     1      27.405  13.645  14.440  1.00  0.00    -0.331 N 
ATOM     23  H12 UNL     1      27.893  14.444  14.035  1.00  0.00     0.178 HD
ATOM     24  H11 UNL     1      26.550  13.284  14.018  1.00  0.00     0.178 HD
ATOM     25  H2  UNL     1      27.400  12.302  15.900  1.00  0.00     0.207 HD
ENDBRANCH  19  21
ENDBRANCH  18  19
ENDBRANCH  17  18
ENDBRANCH  16  17
ENDBRANCH  15  16
ENDBRANCH  14  15
ENDBRANCH   1  13
BRANCH  10  26
HETATM   26  N11 UNL     1      35.953  14.335   7.950  1.00  0.00    -0.383 N 
ATOM     27 2H11 UNL     1      36.418  15.226   7.774  1.00  0.00     0.157 HD
ATOM     28 1H11 UNL     1      36.513  13.494   7.817  1.00  0.00     0.157 HD
ENDBRANCH  10  26
BRANCH   9  29
HETATM   29  C11 UNL     1      30.315  12.702   7.117  1.00  0.00     0.312 C 
HETATM   30  N7  UNL     1      29.765  12.567   5.783  1.00  0.00    -0.349 N 
HETATM   31  C12 UNL     1      29.713  11.316   5.472  1.00  0.00     0.192 C 
ATOM     32  H7  UNL     1      29.465  13.338   5.187  1.00  0.00     0.163 HD
HETATM   33  N8  UNL     1      30.222  10.562   6.571  1.00  0.00    -0.294 N 
HETATM   34  N9  UNL     1      30.047  11.395   7.682  1.00  0.00    -0.101 NA
ATOM     35  H8  UNL     1      30.625   9.625   6.552  1.00  0.00     0.183 HD
BRANCH  34  36
HETATM   36  N10 UNL     1      30.884  11.086   8.740  1.00  0.00    -0.342 NA
ATOM     37 2H10 UNL     1      31.679  11.719   8.826  1.00  0.00     0.172 HD
ATOM     38 1H10 UNL     1      30.432  11.197   9.647  1.00  0.00     0.172 HD
ENDBRANCH  34  36
ENDBRANCH   9  29
TORSDOF 10
ENDMDL
MODEL 4
REMARK VINA RESULT: -6.931123835      1.307      1.594
REMARK  10 active torsions:
REMARK  status: ('A' for Active; 'I' for Inactive)
REMARK    1  A    between atoms: N2_4  and  N3_6 
REMARK    2  A    between atoms: N3_6  and  C1_8 
REMARK    3  A    between atoms: C1_8  and  C2_9 
REMARK    4  A    between atoms: C2_9  and  C3_10 
REMARK    5  A    between atoms: C3_10  and  C4_11 
REMARK    6  A    between atoms: C4_11  and  C5_12 
REMARK    7  A    between atoms: C6_13  and  C7_14 
REMARK    8  A    between atoms: N6_22  and  C11_23 
REMARK    9  A    between atoms: N9_29  and  N10_30 
REMARK   10  A    between atoms: C13_33  and  N11_34 
ROOT
HETATM    1  C7  UNL     1      28.788  14.909  11.570  1.00  0.00     0.164 A 
HETATM    2  N4  UNL     1      29.487  15.630  12.463  1.00  0.00    -0.319 N 
ATOM      3  H4  UNL     1      30.292  16.188  12.179  1.00  0.00     0.169 HD
HETATM    4  C8  UNL     1      29.081  15.586  13.757  1.00  0.00     0.144 A 
HETATM    5  C9  UNL     1      28.001  14.843  14.177  1.00  0.00     0.122 A 
HETATM    6  N5  UNL     1      27.881  15.024  15.497  1.00  0.00    -0.346 N 
ATOM      7  H5  UNL     1      27.169  14.599  16.091  1.00  0.00     0.167 HD
HETATM    8  C10 UNL     1      28.857  15.861  15.918  1.00  0.00     0.188 A 
HETATM    9  N6  UNL     1      29.595  16.206  14.851  1.00  0.00    -0.289 N 
HETATM   10  C13 UNL     1      27.294  14.107  13.237  1.00  0.00     0.132 A 
HETATM   11  N12 UNL     1      27.732  14.180  11.962  1.00  0.00    -0.320 N 
ATOM     12  H12 UNL     1      27.228  13.647  11.252  1.00  0.00     0.169 HD
ENDROOT
BRANCH   1  13
HETATM   13  C6  UNL     1      29.209  14.946  10.178  1.00  0.00    -0.030 C 
HETATM   14  C5  UNL     1      29.542  14.968   9.019  1.00  0.00    -0.098 C 
BRANCH  14  15
HETATM   15  C4  UNL     1      29.929  14.975   7.607  1.00  0.00     0.094 C 
BRANCH  15  16
HETATM   16  C3  UNL     1      31.359  15.448   7.554  1.00  0.00     0.014 C 
BRANCH  16  17
HETATM   17  C2  UNL     1      32.317  14.495   8.184  1.00  0.00     0.022 C 
BRANCH  17  18
HETATM   18  C1  UNL     1      33.179  15.123   9.252  1.00  0.00     0.141 C 
BRANCH  18  19
HETATM   19  N3  UNL     1      34.369  14.317   9.376  1.00  0.00    -0.323 N 
ATOM     20  H3  UNL     1      34.681  14.056  10.312  1.00  0.00     0.181 HD
BRANCH  19  21
HETATM   21  N2  UNL     1      35.115  13.875   8.290  1.00  0.00    -0.254 N 
HETATM   22  N1  UNL     1      36.113  14.544   7.891  1.00  0.00    -0.331 N 
ATOM     23  H12 UNL     1      36.356  15.407   8.378  1.00  0.00     0.178 HD
ATOM     24  H11 UNL     1      36.661  14.220   7.094  1.00  0.00     0.178 HD
ATOM     25  H2  UNL     1      34.858  13.010   7.813  1.00  0.00     0.207 HD
ENDBRANCH  19  21
ENDBRANCH  18  19
ENDBRANCH  17  18
ENDBRANCH  16  17
ENDBRANCH  15  16
ENDBRANCH  14  15
ENDBRANCH   1  13
BRANCH  10  26
HETATM   26  N11 UNL     1      26.277  13.398  13.580  1.00  0.00    -0.383 N 
ATOM     27 2H11 UNL     1      26.205  12.948  14.493  1.00  0.00     0.157 HD
ATOM     28 1H11 UNL     1      25.495  13.259  12.941  1.00  0.00     0.157 HD
ENDBRANCH  10  26
BRANCH   9  29
HETATM   29  C11 UNL     1      30.753  17.086  14.808  1.00  0.00     0.312 C 
HETATM   30  N7  UNL     1      30.923  17.694  16.113  1.00  0.00    -0.349 N 
HETATM   31  C12 UNL     1      31.778  17.005  16.792  1.00  0.00     0.192 C 
ATOM     32  H7  UNL     1      30.443  18.531  16.442  1.00  0.00     0.163 HD
HETATM   33  N8  UNL     1      32.215  15.915  15.981  1.00  0.00    -0.294 N 
HETATM   34  N9  UNL     1      31.986  16.338  14.667  1.00  0.00    -0.101 NA
ATOM     35  H8  UNL     1      32.608  15.026  16.290  1.00  0.00     0.183 HD
BRANCH  34  36
HETATM   36  N10 UNL     1      31.878  15.295  13.764  1.00  0.00    -0.342 NA
ATOM     37 2H10 UNL     1      31.122  15.416  13.091  1.00  0.00     0.172 HD
ATOM     38 1H10 UNL     1      32.690  15.218  13.151  1.00  0.00     0.172 HD
ENDBRANCH  34  36
ENDBRANCH   9  29
TORSDOF 10
ENDMDL
MODEL 5
REMARK VINA RESULT: -6.911035826      4.703      8.453
REMARK  10 active torsions:
REMARK  status: ('A' for Active; 'I' for Inactive)
REMARK    1  A    between atoms: N2_4  and  N3_6 
REMARK    2  A    between atoms: N3_6  and  C1_8 
REMARK    3  A    between atoms: C1_8  and  C2_9 
REMARK    4  A    between atoms: C2_9  and  C3_10 
REMARK    5  A    between atoms: C3_10  and  C4_11 
REMARK    6  A    between atoms: C4_11  and  C5_12 
REMARK    7  A    between atoms: C6_13  and  C7_14 
REMARK    8  A    between atoms: N6_22  and  C11_23 
REMARK    9  A    between atoms: N9_29  and  N10_30 
REMARK   10  A    between atoms: C13_33  and  N11_34 
ROOT
HETATM    1  C7  UNL     1      32.422  12.963   8.220  1.00  0.00     0.164 A 
HETATM    2  N4  UNL     1      31.423  12.074   8.341  1.00  0.00    -0.319 N 
ATOM      3  H4  UNL     1      30.812  12.072   9.159  1.00  0.00     0.169 HD
HETATM    4  C8  UNL     1      31.256  11.179   7.336  1.00  0.00     0.144 A 
HETATM    5  C9  UNL     1      32.060  11.151   6.218  1.00  0.00     0.122 A 
HETATM    6  N5  UNL     1      31.623  10.156   5.437  1.00  0.00    -0.346 N 
ATOM      7  H5  UNL     1      32.023   9.891   4.537  1.00  0.00     0.167 HD
HETATM    8  C10 UNL     1      30.567   9.558   6.033  1.00  0.00     0.188 A 
HETATM    9  N6  UNL     1      30.340  10.185   7.199  1.00  0.00    -0.289 N 
HETATM   10  C13 UNL     1      33.086  12.079   6.115  1.00  0.00     0.132 A 
HETATM   11  N12 UNL     1      33.215  12.951   7.137  1.00  0.00    -0.320 N 
ATOM     12  H12 UNL     1      33.963  13.643   7.084  1.00  0.00     0.169 HD
ENDROOT
BRANCH   1  13
HETATM   13  C6  UNL     1      32.615  13.930   9.289  1.00  0.00    -0.030 C 
HETATM   14  C5  UNL     1      32.790  14.723  10.180  1.00  0.00    -0.098 C 
BRANCH  14  15
HETATM   15  C4  UNL     1      33.016  15.667  11.276  1.00  0.00     0.094 C 
BRANCH  15  16
HETATM   16  C3  UNL     1      31.684  15.873  11.951  1.00  0.00     0.014 C 
BRANCH  16  17
HETATM   17  C2  UNL     1      31.804  16.446  13.322  1.00  0.00     0.022 C 
BRANCH  17  18
HETATM   18  C1  UNL     1      30.612  16.158  14.202  1.00  0.00     0.141 C 
BRANCH  18  19
HETATM   19  N3  UNL     1      30.391  17.323  15.025  1.00  0.00    -0.323 N 
ATOM     20  H3  UNL     1      29.945  18.136  14.600  1.00  0.00     0.181 HD
BRANCH  19  21
HETATM   21  N2  UNL     1      30.752  17.399  16.365  1.00  0.00    -0.254 N 
HETATM   22  N1  UNL     1      31.687  18.172  16.728  1.00  0.00    -0.331 N 
ATOM     23  H12 UNL     1      32.165  18.733  16.023  1.00  0.00     0.178 HD
ATOM     24  H11 UNL     1      31.952  18.227  17.711  1.00  0.00     0.178 HD
ATOM     25  H2  UNL     1      30.264  16.830  17.057  1.00  0.00     0.207 HD
ENDBRANCH  19  21
ENDBRANCH  18  19
ENDBRANCH  17  18
ENDBRANCH  16  17
ENDBRANCH  15  16
ENDBRANCH  14  15
ENDBRANCH   1  13
BRANCH  10  26
HETATM   26  N11 UNL     1      33.863  12.094   5.089  1.00  0.00    -0.383 N 
ATOM     27 2H11 UNL     1      33.726  12.732   4.306  1.00  0.00     0.157 HD
ATOM     28 1H11 UNL     1      34.657  11.457   5.025  1.00  0.00     0.157 HD
ENDBRANCH  10  26
BRANCH   9  29
HETATM   29  C11 UNL     1      29.310   9.897   8.186  1.00  0.00     0.312 C 
HETATM   30  N7  UNL     1      28.220   9.204   7.530  1.00  0.00    -0.349 N 
HETATM   31  C12 UNL     1      28.376   7.931   7.682  1.00  0.00     0.192 C 
ATOM     32  H7  UNL     1      27.452   9.650   7.030  1.00  0.00     0.163 HD
HETATM   33  N8  UNL     1      29.566   7.716   8.438  1.00  0.00    -0.294 N 
HETATM   34  N9  UNL     1      29.755   8.908   9.147  1.00  0.00    -0.101 NA
ATOM     35  H8  UNL     1      30.150   6.880   8.458  1.00  0.00     0.183 HD
BRANCH  34  36
HETATM   36  N10 UNL     1      31.064   9.106   9.552  1.00  0.00    -0.342 NA
ATOM     37 2H10 UNL     1      31.459   8.310  10.053  1.00  0.00     0.172 HD
ATOM     38 1H10 UNL     1      31.710   9.200   8.769  1.00  0.00     0.172 HD
ENDBRANCH  34  36
ENDBRANCH   9  29
TORSDOF 10
ENDMDL
