MODEL 1
REMARK VINA RESULT: -7.775271538      0.000      0.000
REMARK  10 active torsions:
REMARK  status: ('A' for Active; 'I' for Inactive)
REMARK    1  A    between atoms: N2_3  and  N3_5 
REMARK    2  A    between atoms: C2_6  and  C3_7 
REMARK    3  A    between atoms: C8_15  and  N5_16 
REMARK    4  A    between atoms: N5_16  and  C9_18 
REMARK    5  A    between atoms: C9_18  and  C10_19 
REMARK    6  A    between atoms: C10_19  and  N6_20 
REMARK    7  A    between atoms: N6_20  and  C11_23 
REMARK    8  A    between atoms: C11_23  and  C12_24 
REMARK    9  A    between atoms: C12_24  and  N7_25 
REMARK   10  A    between atoms: C13_31  and  N9_32 
ROOT
HETATM    1  N1  UNL     1      32.655  18.122   9.495  1.00  0.00    -0.170 NA
HETATM    2  C1  UNL     1      32.606  17.667  10.584  1.00  0.00     0.198 C 
HETATM    3  N2  UNL     1      32.596  17.162  11.858  1.00  0.00    -0.226 N 
ATOM      4  H2  UNL     1      33.478  17.238  12.365  1.00  0.00     0.200 HD
ENDROOT
BRANCH   3   5
HETATM    5  N3  UNL     1      31.562  16.566  12.555  1.00  0.00    -0.209 N 
HETATM    6  C2  UNL     1      30.619  15.757  12.012  1.00  0.00     0.164 A 
HETATM    7  N4  UNL     1      29.718  15.453  13.004  1.00  0.00    -0.332 N 
HETATM    8  C7  UNL     1      30.102  16.055  14.116  1.00  0.00     0.125 A 
ATOM      9  H4  UNL     1      28.891  14.863  12.899  1.00  0.00     0.168 HD
HETATM   10  C8  UNL     1      29.549  16.078  15.406  1.00  0.00     0.147 A 
HETATM   11  C14 UNL     1      31.252  16.764  13.886  1.00  0.00     0.175 A 
HETATM   12  N8  UNL     1      30.169  16.790  16.345  1.00  0.00    -0.175 N 
HETATM   13  C13 UNL     1      31.287  17.477  16.113  1.00  0.00     0.679 A 
ATOM     14  H8  UNL     1      29.771  16.811  17.284  1.00  0.00     0.186 HD
HETATM   15  N10 UNL     1      31.840  17.472  14.882  1.00  0.00    -0.172 N 
ATOM     16  H10 UNL     1      32.695  17.998  14.703  1.00  0.00     0.186 HD
BRANCH   6  17
HETATM   17  C3  UNL     1      30.480  15.246  10.652  1.00  0.00     0.120 A 
HETATM   18  C4  UNL     1      29.535  15.375   9.685  1.00  0.00     0.043 A 
HETATM   19  C5  UNL     1      29.930  14.643   8.554  1.00  0.00     0.027 A 
HETATM   20  C6  UNL     1      31.126  14.098   8.912  1.00  0.00     0.142 A 
HETATM   21  O1  UNL     1      31.411  14.459  10.112  1.00  0.00    -0.319 OA
ENDBRANCH   6  17
BRANCH  10  22
HETATM   22  N5  UNL     1      28.460  15.401  15.602  1.00  0.00    -0.372 N 
ATOM     23  H5  UNL     1      27.548  15.857  15.612  1.00  0.00     0.161 HD
BRANCH  22  24
HETATM   24  C9  UNL     1      28.588  13.977  15.805  1.00  0.00     0.148 C 
BRANCH  24  25
HETATM   25  C10 UNL     1      27.728  13.173  14.885  1.00  0.00     0.251 C 
BRANCH  25  26
HETATM   26  N6  UNL     1      26.806  13.950  14.114  1.00  0.00    -0.072 N 
ATOM     27  H62 UNL     1      26.104  14.379  14.718  1.00  0.00     0.277 HD
ATOM     28  H61 UNL     1      27.258  14.790  13.753  1.00  0.00     0.277 HD
BRANCH  26  29
HETATM   29  C11 UNL     1      26.178  13.217  13.051  1.00  0.00     0.259 C 
BRANCH  29  30
HETATM   30  C12 UNL     1      26.878  13.359  11.727  1.00  0.00     0.257 C 
BRANCH  30  31
HETATM   31  N7  UNL     1      26.247  12.575  10.686  1.00  0.00    -0.078 N 
ATOM     32  H73 UNL     1      26.908  11.922  10.264  1.00  0.00     0.274 HD
ATOM     33  H72 UNL     1      25.586  11.905  11.079  1.00  0.00     0.274 HD
ATOM     34  H71 UNL     1      25.802  13.159   9.978  1.00  0.00     0.274 HD
ENDBRANCH  30  31
ENDBRANCH  29  30
ENDBRANCH  26  29
ENDBRANCH  25  26
ENDBRANCH  24  25
ENDBRANCH  22  24
ENDBRANCH  10  22
BRANCH  13  35
HETATM   35  N9  UNL     1      31.840  18.144  17.057  1.00  0.00    -0.234 N 
ATOM     36  H92 UNL     1      31.276  18.489  17.834  1.00  0.00     0.174 HD
ATOM     37  H91 UNL     1      32.843  18.329  17.034  1.00  0.00     0.174 HD
ENDBRANCH  13  35
ENDBRANCH   3   5
TORSDOF 10
ENDMDL
MODEL 2
REMARK VINA RESULT: -7.664959743      1.262      1.513
REMARK  10 active torsions:
REMARK  status: ('A' for Active; 'I' for Inactive)
REMARK    1  A    between atoms: N2_3  and  N3_5 
REMARK    2  A    between atoms: C2_6  and  C3_7 
REMARK    3  A    between atoms: C8_15  and  N5_16 
REMARK    4  A    between atoms: N5_16  and  C9_18 
REMARK    5  A    between atoms: C9_18  and  C10_19 
REMARK    6  A    between atoms: C10_19  and  N6_20 
REMARK    7  A    between atoms: N6_20  and  C11_23 
REMARK    8  A    between atoms: C11_23  and  C12_24 
REMARK    9  A    between atoms: C12_24  and  N7_25 
REMARK   10  A    between atoms: C13_31  and  N9_32 
ROOT
HETATM    1  N1  UNL     1      32.561  18.154   9.352  1.00  0.00    -0.170 NA
HETATM    2  C1  UNL     1      32.594  17.964  10.517  1.00  0.00     0.198 C 
HETATM    3  N2  UNL     1      32.646  17.794  11.876  1.00  0.00    -0.226 N 
ATOM      4  H2  UNL     1      33.093  18.551  12.394  1.00  0.00     0.200 HD
ENDROOT
BRANCH   3   5
HETATM    5  N3  UNL     1      32.179  16.746  12.646  1.00  0.00    -0.209 N 
HETATM    6  C2  UNL     1      31.913  15.498  12.186  1.00  0.00     0.164 A 
HETATM    7  N4  UNL     1      31.375  14.782  13.229  1.00  0.00    -0.332 N 
HETATM    8  C7  UNL     1      31.320  15.568  14.290  1.00  0.00     0.125 A 
ATOM      9  H4  UNL     1      31.070  13.809  13.191  1.00  0.00     0.168 HD
HETATM   10  C8  UNL     1      30.864  15.342  15.598  1.00  0.00     0.147 A 
HETATM   11  C14 UNL     1      31.812  16.807  13.976  1.00  0.00     0.175 A 
HETATM   12  N8  UNL     1      30.931  16.345  16.472  1.00  0.00    -0.175 N 
HETATM   13  C13 UNL     1      31.411  17.548  16.158  1.00  0.00     0.679 A 
ATOM     14  H8  UNL     1      30.600  16.186  17.423  1.00  0.00     0.186 HD
HETATM   15  N10 UNL     1      31.856  17.792  14.908  1.00  0.00    -0.172 N 
ATOM     16  H10 UNL     1      32.222  18.712  14.665  1.00  0.00     0.186 HD
BRANCH   6  17
HETATM   17  C3  UNL     1      32.109  14.915  10.863  1.00  0.00     0.120 A 
HETATM   18  C4  UNL     1      33.189  14.446  10.187  1.00  0.00     0.043 A 
HETATM   19  C5  UNL     1      32.782  14.002   8.919  1.00  0.00     0.027 A 
HETATM   20  C6  UNL     1      31.440  14.233   8.900  1.00  0.00     0.142 A 
HETATM   21  O1  UNL     1      31.088  14.754  10.022  1.00  0.00    -0.319 OA
ENDBRANCH   6  17
BRANCH  10  22
HETATM   22  N5  UNL     1      30.402  14.162  15.875  1.00  0.00    -0.372 N 
ATOM     23  H5  UNL     1      30.960  13.324  15.710  1.00  0.00     0.161 HD
BRANCH  22  24
HETATM   24  C9  UNL     1      29.070  14.079  16.426  1.00  0.00     0.148 C 
BRANCH  24  25
HETATM   25  C10 UNL     1      28.025  14.649  15.524  1.00  0.00     0.251 C 
BRANCH  25  26
HETATM   26  N6  UNL     1      27.441  13.697  14.627  1.00  0.00    -0.072 N 
ATOM     27  H62 UNL     1      27.915  12.796  14.700  1.00  0.00     0.277 HD
ATOM     28  H61 UNL     1      26.510  13.427  14.945  1.00  0.00     0.277 HD
BRANCH  26  29
HETATM   29  C11 UNL     1      27.400  14.137  13.261  1.00  0.00     0.259 C 
BRANCH  29  30
HETATM   30  C12 UNL     1      26.454  13.344  12.401  1.00  0.00     0.257 C 
BRANCH  30  31
HETATM   31  N7  UNL     1      25.136  13.236  12.991  1.00  0.00    -0.078 N 
ATOM     32  H73 UNL     1      25.128  12.555  13.751  1.00  0.00     0.274 HD
ATOM     33  H72 UNL     1      24.900  14.074  13.521  1.00  0.00     0.274 HD
ATOM     34  H71 UNL     1      24.419  13.023  12.298  1.00  0.00     0.274 HD
ENDBRANCH  30  31
ENDBRANCH  29  30
ENDBRANCH  26  29
ENDBRANCH  25  26
ENDBRANCH  24  25
ENDBRANCH  22  24
ENDBRANCH  10  22
BRANCH  13  35
HETATM   35  N9  UNL     1      31.451  18.476  17.041  1.00  0.00    -0.234 N 
ATOM     36  H92 UNL     1      31.576  19.446  16.753  1.00  0.00     0.174 HD
ATOM     37  H91 UNL     1      31.356  18.245  18.030  1.00  0.00     0.174 HD
ENDBRANCH  13  35
ENDBRANCH   3   5
TORSDOF 10
ENDMDL
MODEL 3
REMARK VINA RESULT: -7.661949722      2.441      4.140
REMARK  10 active torsions:
REMARK  status: ('A' for Active; 'I' for Inactive)
REMARK    1  A    between atoms: N2_3  and  N3_5 
REMARK    2  A    between atoms: C2_6  and  C3_7 
REMARK    3  A    between atoms: C8_15  and  N5_16 
REMARK    4  A    between atoms: N5_16  and  C9_18 
REMARK    5  A    between atoms: C9_18  and  C10_19 
REMARK    6  A    between atoms: C10_19  and  N6_20 
REMARK    7  A    between atoms: N6_20  and  C11_23 
REMARK    8  A    between atoms: C11_23  and  C12_24 
REMARK    9  A    between atoms: C12_24  and  N7_25 
REMARK   10  A    between atoms: C13_31  and  N9_32 
ROOT
HETATM    1  N1  UNL     1      32.609  17.623  17.609  1.00  0.00    -0.170 NA
HETATM    2  C1  UNL     1      31.825  17.577  16.728  1.00  0.00     0.198 C 
HETATM    3  N2  UNL     1      30.927  17.574  15.692  1.00  0.00    -0.226 N 
ATOM      4  H2  UNL     1      30.734  18.486  15.279  1.00  0.00     0.200 HD
ENDROOT
BRANCH   3   5
HETATM    5  N3  UNL     1      30.247  16.513  15.127  1.00  0.00    -0.209 N 
HETATM    6  C2  UNL     1      30.468  16.017  13.884  1.00  0.00     0.164 A 
HETATM    7  N4  UNL     1      29.527  15.041  13.658  1.00  0.00    -0.332 N 
HETATM    8  C7  UNL     1      28.760  14.944  14.730  1.00  0.00     0.125 A 
ATOM      9  H4  UNL     1      29.435  14.486  12.807  1.00  0.00     0.168 HD
HETATM   10  C8  UNL     1      27.664  14.117  15.024  1.00  0.00     0.147 A 
HETATM   11  C14 UNL     1      29.171  15.844  15.677  1.00  0.00     0.175 A 
HETATM   12  N8  UNL     1      27.075  14.249  16.212  1.00  0.00    -0.175 N 
HETATM   13  C13 UNL     1      27.481  15.128  17.128  1.00  0.00     0.679 A 
ATOM     14  H8  UNL     1      26.279  13.652  16.430  1.00  0.00     0.186 HD
HETATM   15  N10 UNL     1      28.532  15.935  16.871  1.00  0.00    -0.172 N 
ATOM     16  H10 UNL     1      28.844  16.609  17.570  1.00  0.00     0.186 HD
BRANCH   6  17
HETATM   17  C3  UNL     1      31.473  16.373  12.888  1.00  0.00     0.120 A 
HETATM   18  C4  UNL     1      32.017  15.732  11.822  1.00  0.00     0.043 A 
HETATM   19  C5  UNL     1      32.964  16.570  11.214  1.00  0.00     0.027 A 
HETATM   20  C6  UNL     1      32.938  17.704  11.968  1.00  0.00     0.142 A 
HETATM   21  O1  UNL     1      32.079  17.560  12.914  1.00  0.00    -0.319 OA
ENDBRANCH   6  17
BRANCH  10  22
HETATM   22  N5  UNL     1      27.292  13.272  14.114  1.00  0.00    -0.372 N 
ATOM     23  H5  UNL     1      27.311  12.267  14.286  1.00  0.00     0.161 HD
BRANCH  22  24
HETATM   24  C9  UNL     1      26.848  13.807  12.848  1.00  0.00     0.148 C 
BRANCH  24  25
HETATM   25  C10 UNL     1      25.673  13.078  12.282  1.00  0.00     0.251 C 
BRANCH  25  26
HETATM   26  N6  UNL     1      24.444  13.319  12.975  1.00  0.00    -0.072 N 
ATOM     27  H62 UNL     1      24.043  12.443  13.310  1.00  0.00     0.277 HD
ATOM     28  H61 UNL     1      24.619  13.780  13.868  1.00  0.00     0.277 HD
BRANCH  26  29
HETATM   29  C11 UNL     1      23.479  14.054  12.206  1.00  0.00     0.259 C 
BRANCH  29  30
HETATM   30  C12 UNL     1      22.055  13.664  12.496  1.00  0.00     0.257 C 
BRANCH  30  31
HETATM   31  N7  UNL     1      21.120  14.718  12.165  1.00  0.00    -0.078 N 
ATOM     32  H73 UNL     1      20.692  14.558  11.253  1.00  0.00     0.274 HD
ATOM     33  H72 UNL     1      20.284  14.665  12.748  1.00  0.00     0.274 HD
ATOM     34  H71 UNL     1      21.546  15.643  12.216  1.00  0.00     0.274 HD
ENDBRANCH  30  31
ENDBRANCH  29  30
ENDBRANCH  26  29
ENDBRANCH  25  26
ENDBRANCH  24  25
ENDBRANCH  22  24
ENDBRANCH  10  22
BRANCH  13  35
HETATM   35  N9  UNL     1      26.876  15.210  18.254  1.00  0.00    -0.234 N 
ATOM     36  H92 UNL     1      26.313  16.033  18.469  1.00  0.00     0.174 HD
ATOM     37  H91 UNL     1      26.956  14.454  18.934  1.00  0.00     0.174 HD
ENDBRANCH  13  35
ENDBRANCH   3   5
TORSDOF 10
ENDMDL
MODEL 4
REMARK VINA RESULT: -7.636078730      1.636      5.173
REMARK  10 active torsions:
REMARK  status: ('A' for Active; 'I' for Inactive)
REMARK    1  A    between atoms: N2_3  and  N3_5 
REMARK    2  A    between atoms: C2_6  and  C3_7 
REMARK    3  A    between atoms: C8_15  and  N5_16 
REMARK    4  A    between atoms: N5_16  and  C9_18 
REMARK    5  A    between atoms: C9_18  and  C10_19 
REMARK    6  A    between atoms: C10_19  and  N6_20 
REMARK    7  A    between atoms: N6_20  and  C11_23 
REMARK    8  A    between atoms: C11_23  and  C12_24 
REMARK    9  A    between atoms: C12_24  and  N7_25 
REMARK   10  A    between atoms: C13_31  and  N9_32 
ROOT
HETATM    1  N1  UNL     1      27.217  14.100  17.965  1.00  0.00    -0.170 NA
HETATM    2  C1  UNL     1      27.330  14.764  16.996  1.00  0.00     0.198 C 
HETATM    3  N2  UNL     1      27.418  15.564  15.886  1.00  0.00    -0.226 N 
ATOM      4  H2  UNL     1      26.607  16.157  15.709  1.00  0.00     0.200 HD
ENDROOT
BRANCH   3   5
HETATM    5  N3  UNL     1      28.447  15.683  14.972  1.00  0.00    -0.209 N 
HETATM    6  C2  UNL     1      28.495  15.066  13.765  1.00  0.00     0.164 A 
HETATM    7  N4  UNL     1      29.716  15.353  13.204  1.00  0.00    -0.332 N 
HETATM    8  C7  UNL     1      30.388  16.125  14.041  1.00  0.00     0.125 A 
ATOM      9  H4  UNL     1      30.048  15.027  12.296  1.00  0.00     0.168 HD
HETATM   10  C8  UNL     1      31.667  16.698  13.962  1.00  0.00     0.147 A 
HETATM   11  C14 UNL     1      29.636  16.360  15.162  1.00  0.00     0.175 A 
HETATM   12  N8  UNL     1      32.088  17.444  14.983  1.00  0.00    -0.175 N 
HETATM   13  C13 UNL     1      31.350  17.667  16.070  1.00  0.00     0.679 A 
ATOM     14  H8  UNL     1      33.017  17.862  14.930  1.00  0.00     0.186 HD
HETATM   15  N10 UNL     1      30.117  17.127  16.171  1.00  0.00    -0.172 N 
ATOM     16  H10 UNL     1      29.551  17.296  17.003  1.00  0.00     0.186 HD
BRANCH   6  17
HETATM   17  C3  UNL     1      27.508  14.228  13.092  1.00  0.00     0.120 A 
HETATM   18  C4  UNL     1      26.440  13.502  13.510  1.00  0.00     0.043 A 
HETATM   19  C5  UNL     1      25.845  12.876  12.403  1.00  0.00     0.027 A 
HETATM   20  C6  UNL     1      26.609  13.271  11.348  1.00  0.00     0.142 A 
HETATM   21  O1  UNL     1      27.548  14.040  11.772  1.00  0.00    -0.319 OA
ENDBRANCH   6  17
BRANCH  10  22
HETATM   22  N5  UNL     1      32.362  16.464  12.892  1.00  0.00    -0.372 N 
ATOM     23  H5  UNL     1      32.709  15.528  12.682  1.00  0.00     0.161 HD
BRANCH  22  24
HETATM   24  C9  UNL     1      32.626  17.576  12.011  1.00  0.00     0.148 C 
BRANCH  24  25
HETATM   25  C10 UNL     1      32.470  17.232  10.566  1.00  0.00     0.251 C 
BRANCH  25  26
HETATM   26  N6  UNL     1      32.507  15.827  10.290  1.00  0.00    -0.072 N 
ATOM     27  H62 UNL     1      33.453  15.533  10.046  1.00  0.00     0.277 HD
ATOM     28  H61 UNL     1      32.376  15.289  11.147  1.00  0.00     0.277 HD
BRANCH  26  29
HETATM   29  C11 UNL     1      31.573  15.410   9.283  1.00  0.00     0.259 C 
BRANCH  29  30
HETATM   30  C12 UNL     1      30.135  15.645   9.661  1.00  0.00     0.257 C 
BRANCH  30  31
HETATM   31  N7  UNL     1      29.283  14.533   9.296  1.00  0.00    -0.078 N 
ATOM     32  H73 UNL     1      29.471  14.222   8.343  1.00  0.00     0.274 HD
ATOM     33  H72 UNL     1      29.547  13.686   9.799  1.00  0.00     0.274 HD
ATOM     34  H71 UNL     1      28.293  14.746   9.426  1.00  0.00     0.274 HD
ENDBRANCH  30  31
ENDBRANCH  29  30
ENDBRANCH  26  29
ENDBRANCH  25  26
ENDBRANCH  24  25
ENDBRANCH  22  24
ENDBRANCH  10  22
BRANCH  13  35
HETATM   35  N9  UNL     1      31.808  18.393  17.021  1.00  0.00    -0.234 N 
ATOM     36  H92 UNL     1      32.763  18.253  17.352  1.00  0.00     0.174 HD
ATOM     37  H91 UNL     1      31.221  19.110  17.445  1.00  0.00     0.174 HD
ENDBRANCH  13  35
ENDBRANCH   3   5
TORSDOF 10
ENDMDL
MODEL 5
REMARK VINA RESULT: -7.611987576      2.361      4.100
REMARK  10 active torsions:
REMARK  status: ('A' for Active; 'I' for Inactive)
REMARK    1  A    between atoms: N2_3  and  N3_5 
REMARK    2  A    between atoms: C2_6  and  C3_7 
REMARK    3  A    between atoms: C8_15  and  N5_16 
REMARK    4  A    between atoms: N5_16  and  C9_18 
REMARK    5  A    between atoms: C9_18  and  C10_19 
REMARK    6  A    between atoms: C10_19  and  N6_20 
REMARK    7  A    between atoms: N6_20  and  C11_23 
REMARK    8  A    between atoms: C11_23  and  C12_24 
REMARK    9  A    between atoms: C12_24  and  N7_25 
REMARK   10  A    between atoms: C13_31  and  N9_32 
ROOT
HETATM    1  N1  UNL     1      32.525  17.510  17.484  1.00  0.00    -0.170 NA
HETATM    2  C1  UNL     1      31.720  17.474  16.621  1.00  0.00     0.198 C 
HETATM    3  N2  UNL     1      30.796  17.483  15.608  1.00  0.00    -0.226 N 
ATOM      4  H2  UNL     1      30.565  18.404  15.236  1.00  0.00     0.200 HD
ENDROOT
BRANCH   3   5
HETATM    5  N3  UNL     1      30.133  16.424  15.018  1.00  0.00    -0.209 N 
HETATM    6  C2  UNL     1      30.409  15.917  13.791  1.00  0.00     0.164 A 
HETATM    7  N4  UNL     1      29.471  14.948  13.526  1.00  0.00    -0.332 N 
HETATM    8  C7  UNL     1      28.653  14.866  14.562  1.00  0.00     0.125 A 
ATOM      9  H4  UNL     1      29.415  14.387  12.676  1.00  0.00     0.168 HD
HETATM   10  C8  UNL     1      27.536  14.051  14.808  1.00  0.00     0.147 A 
HETATM   11  C14 UNL     1      29.027  15.769  15.521  1.00  0.00     0.175 A 
HETATM   12  N8  UNL     1      26.893  14.197  15.965  1.00  0.00    -0.175 N 
HETATM   13  C13 UNL     1      27.262  15.079  16.894  1.00  0.00     0.679 A 
ATOM     14  H8  UNL     1      26.081  13.609  16.149  1.00  0.00     0.186 HD
HETATM   15  N10 UNL     1      28.332  15.874  16.682  1.00  0.00    -0.172 N 
ATOM     16  H10 UNL     1      28.616  16.550  17.390  1.00  0.00     0.186 HD
BRANCH   6  17
HETATM   17  C3  UNL     1      31.464  16.257  12.842  1.00  0.00     0.120 A 
HETATM   18  C4  UNL     1      32.163  15.555  11.913  1.00  0.00     0.043 A 
HETATM   19  C5  UNL     1      33.080  16.411  11.282  1.00  0.00     0.027 A 
HETATM   20  C6  UNL     1      32.876  17.617  11.881  1.00  0.00     0.142 A 
HETATM   21  O1  UNL     1      31.950  17.496  12.765  1.00  0.00    -0.319 OA
ENDBRANCH   6  17
BRANCH  10  22
HETATM   22  N5  UNL     1      27.200  13.202  13.887  1.00  0.00    -0.372 N 
ATOM     23  H5  UNL     1      27.496  12.227  13.932  1.00  0.00     0.161 HD
BRANCH  22  24
HETATM   24  C9  UNL     1      26.391  13.689  12.795  1.00  0.00     0.148 C 
BRANCH  24  25
HETATM   25  C10 UNL     1      26.963  13.373  11.452  1.00  0.00     0.251 C 
BRANCH  25  26
HETATM   26  N6  UNL     1      26.216  12.404  10.709  1.00  0.00    -0.072 N 
ATOM     27  H62 UNL     1      25.540  11.932  11.310  1.00  0.00     0.277 HD
ATOM     28  H61 UNL     1      25.576  12.864  10.061  1.00  0.00     0.277 HD
BRANCH  26  29
HETATM   29  C11 UNL     1      27.033  11.446  10.019  1.00  0.00     0.259 C 
BRANCH  29  30
HETATM   30  C12 UNL     1      26.242  10.401   9.280  1.00  0.00     0.257 C 
BRANCH  30  31
HETATM   31  N7  UNL     1      27.093   9.454   8.591  1.00  0.00    -0.078 N 
ATOM     32  H73 UNL     1      28.074   9.726   8.654  1.00  0.00     0.274 HD
ATOM     33  H72 UNL     1      27.137   8.567   9.092  1.00  0.00     0.274 HD
ATOM     34  H71 UNL     1      26.810   9.315   7.621  1.00  0.00     0.274 HD
ENDBRANCH  30  31
ENDBRANCH  29  30
ENDBRANCH  26  29
ENDBRANCH  25  26
ENDBRANCH  24  25
ENDBRANCH  22  24
ENDBRANCH  10  22
BRANCH  13  35
HETATM   35  N9  UNL     1      26.604  15.174  17.989  1.00  0.00    -0.234 N 
ATOM     36  H92 UNL     1      25.696  14.720  18.077  1.00  0.00     0.174 HD
ATOM     37  H91 UNL     1      26.988  15.704  18.772  1.00  0.00     0.174 HD
ENDBRANCH  13  35
ENDBRANCH   3   5
TORSDOF 10
ENDMDL
