MODEL 1
REMARK VINA RESULT: -8.134947517      0.000      0.000
REMARK  8 active torsions:
REMARK  status: ('A' for Active; 'I' for Inactive)
REMARK    1  A    between atoms: C4_5  and  N2_6 
REMARK    2  A    between atoms: N2_6  and  C5_8 
REMARK    3  A    between atoms: C5_8  and  C6_9 
REMARK    4  A    between atoms: C6_9  and  N3_10 
REMARK    5  A    between atoms: N3_10  and  C7_13 
REMARK    6  A    between atoms: C7_13  and  C8_14 
REMARK    7  A    between atoms: C8_14  and  N4_15 
REMARK    8  A    between atoms: N4_15  and  C9_17 
ROOT
HETATM    1  C7  UNL     1      32.264  17.068  10.929  1.00  0.00     0.252 C 
ENDROOT
BRANCH   1   2
HETATM    2  N3  UNL     1      31.627  16.026  10.178  1.00  0.00    -0.072 N 
ATOM      3  H32 UNL     1      30.679  16.298   9.915  1.00  0.00     0.277 HD
ATOM      4  H31 UNL     1      31.415  15.228  10.777  1.00  0.00     0.277 HD
BRANCH   2   5
HETATM    5  C6  UNL     1      32.384  15.606   9.010  1.00  0.00     0.251 C 
BRANCH   5   6
HETATM    6  C5  UNL     1      32.940  14.239   9.340  1.00  0.00     0.147 C 
BRANCH   6   7
HETATM    7  N2  UNL     1      34.349  14.237   9.110  1.00  0.00    -0.388 N 
ATOM      8  H2  UNL     1      34.982  14.524   9.857  1.00  0.00     0.159 HD
BRANCH   7   9
HETATM    9  C4  UNL     1      34.879  13.839   7.856  1.00  0.00     0.028 A 
HETATM   10  C3  UNL     1      34.201  12.986   7.011  1.00  0.00     0.031 A 
HETATM   11  C2  UNL     1      34.726  12.613   5.786  1.00  0.00     0.029 A 
HETATM   12  C1  UNL     1      35.948  13.071   5.350  1.00  0.00     0.046 A 
HETATM   13  N1  UNL     1      36.473  12.672   4.083  1.00  0.00    -0.102 NA
HETATM   14  C16 UNL     1      36.636  13.925   6.191  1.00  0.00     0.029 A 
HETATM   15  C15 UNL     1      36.116  14.301   7.412  1.00  0.00     0.031 A 
ENDBRANCH   7   9
ENDBRANCH   6   7
ENDBRANCH   5   6
ENDBRANCH   2   5
ENDBRANCH   1   2
BRANCH   1  16
HETATM   16  C8  UNL     1      32.733  16.434  12.245  1.00  0.00     0.150 C 
BRANCH  16  17
HETATM   17  N4  UNL     1      31.866  16.930  13.293  1.00  0.00    -0.355 N 
ATOM     18  H4  UNL     1      32.043  17.841  13.717  1.00  0.00     0.163 HD
BRANCH  17  19
HETATM   19  C9  UNL     1      30.737  16.118  13.739  1.00  0.00     0.215 A 
HETATM   20  N5  UNL     1      30.319  16.038  14.936  1.00  0.00    -0.344 N 
HETATM   21  C10 UNL     1      29.195  15.165  15.083  1.00  0.00     0.071 A 
ATOM     22  H5  UNL     1      30.742  16.545  15.714  1.00  0.00     0.164 HD
HETATM   23  C11 UNL     1      28.012  15.895  15.650  1.00  0.00     0.055 C 
HETATM   24  C13 UNL     1      29.654  13.994  15.917  1.00  0.00     0.167 C 
HETATM   25  C14 UNL     1      28.956  14.728  13.659  1.00  0.00     0.211 A 
HETATM   26  C12 UNL     1      27.582  15.515  17.001  1.00  0.00     0.138 C 
HETATM   27  N6  UNL     1      27.877  14.186  17.428  1.00  0.00    -0.340 N 
HETATM   28  N7  UNL     1      28.502  13.391  16.502  1.00  0.00    -0.143 NA
ATOM     29  H6  UNL     1      27.639  13.849  18.361  1.00  0.00     0.175 HD
HETATM   30  O1  UNL     1      29.977  15.330  12.919  1.00  0.00    -0.320 OA
ENDBRANCH  17  19
ENDBRANCH  16  17
ENDBRANCH   1  16
TORSDOF 8
ENDMDL
MODEL 2
REMARK VINA RESULT: -8.091621208      1.534      1.992
REMARK  8 active torsions:
REMARK  status: ('A' for Active; 'I' for Inactive)
REMARK    1  A    between atoms: C4_5  and  N2_6 
REMARK    2  A    between atoms: N2_6  and  C5_8 
REMARK    3  A    between atoms: C5_8  and  C6_9 
REMARK    4  A    between atoms: C6_9  and  N3_10 
REMARK    5  A    between atoms: N3_10  and  C7_13 
REMARK    6  A    between atoms: C7_13  and  C8_14 
REMARK    7  A    between atoms: C8_14  and  N4_15 
REMARK    8  A    between atoms: N4_15  and  C9_17 
ROOT
HETATM    1  C7  UNL     1      32.274  16.778  10.282  1.00  0.00     0.252 C 
ENDROOT
BRANCH   1   2
HETATM    2  N3  UNL     1      30.957  16.504   9.787  1.00  0.00    -0.072 N 
ATOM      3  H32 UNL     1      30.869  16.796   8.813  1.00  0.00     0.277 HD
ATOM      4  H31 UNL     1      30.273  17.129  10.214  1.00  0.00     0.277 HD
BRANCH   2   5
HETATM    5  C6  UNL     1      30.554  15.115   9.945  1.00  0.00     0.251 C 
BRANCH   5   6
HETATM    6  C5  UNL     1      30.856  14.438   8.627  1.00  0.00     0.147 C 
BRANCH   6   7
HETATM    7  N2  UNL     1      31.884  13.467   8.822  1.00  0.00    -0.388 N 
ATOM      8  H2  UNL     1      31.745  12.714   9.497  1.00  0.00     0.159 HD
BRANCH   7   9
HETATM    9  C4  UNL     1      33.097  13.537   8.089  1.00  0.00     0.028 A 
HETATM   10  C3  UNL     1      33.210  13.035   6.810  1.00  0.00     0.031 A 
HETATM   11  C2  UNL     1      34.397  13.118   6.104  1.00  0.00     0.029 A 
HETATM   12  C1  UNL     1      35.522  13.702   6.638  1.00  0.00     0.046 A 
HETATM   13  N1  UNL     1      36.738  13.776   5.893  1.00  0.00    -0.102 NA
HETATM   14  C16 UNL     1      35.418  14.208   7.922  1.00  0.00     0.029 A 
HETATM   15  C15 UNL     1      34.237  14.128   8.629  1.00  0.00     0.031 A 
ENDBRANCH   7   9
ENDBRANCH   6   7
ENDBRANCH   5   6
ENDBRANCH   2   5
ENDBRANCH   1   2
BRANCH   1  16
HETATM   16  C8  UNL     1      32.419  15.995  11.594  1.00  0.00     0.150 C 
BRANCH  16  17
HETATM   17  N4  UNL     1      32.392  16.960  12.673  1.00  0.00    -0.355 N 
ATOM     18  H4  UNL     1      32.960  17.806  12.620  1.00  0.00     0.163 HD
BRANCH  17  19
HETATM   19  C9  UNL     1      31.547  16.713  13.839  1.00  0.00     0.215 A 
HETATM   20  N5  UNL     1      30.684  15.786  13.935  1.00  0.00    -0.344 N 
HETATM   21  C10 UNL     1      30.001  15.782  15.192  1.00  0.00     0.071 A 
ATOM     22  H5  UNL     1      30.496  15.113  13.192  1.00  0.00     0.164 HD
HETATM   23  C11 UNL     1      30.190  14.476  15.908  1.00  0.00     0.055 C 
HETATM   24  C13 UNL     1      28.558  16.124  14.910  1.00  0.00     0.167 C 
HETATM   25  C14 UNL     1      30.675  16.922  15.914  1.00  0.00     0.211 A 
HETATM   26  C12 UNL     1      29.005  13.626  16.066  1.00  0.00     0.138 C 
HETATM   27  N6  UNL     1      27.735  14.277  16.087  1.00  0.00    -0.340 N 
HETATM   28  N7  UNL     1      27.769  15.645  15.996  1.00  0.00    -0.143 NA
ATOM     29  H6  UNL     1      26.859  13.760  16.165  1.00  0.00     0.175 HD
HETATM   30  O1  UNL     1      31.574  17.455  14.988  1.00  0.00    -0.320 OA
ENDBRANCH  17  19
ENDBRANCH  16  17
ENDBRANCH   1  16
TORSDOF 8
ENDMDL
MODEL 3
REMARK VINA RESULT: -8.035483816      1.173      1.575
REMARK  8 active torsions:
REMARK  status: ('A' for Active; 'I' for Inactive)
REMARK    1  A    between atoms: C4_5  and  N2_6 
REMARK    2  A    between atoms: N2_6  and  C5_8 
REMARK    3  A    between atoms: C5_8  and  C6_9 
REMARK    4  A    between atoms: C6_9  and  N3_10 
REMARK    5  A    between atoms: N3_10  and  C7_13 
REMARK    6  A    between atoms: C7_13  and  C8_14 
REMARK    7  A    between atoms: C8_14  and  N4_15 
REMARK    8  A    between atoms: N4_15  and  C9_17 
ROOT
HETATM    1  C7  UNL     1      32.310  17.431  10.151  1.00  0.00     0.252 C 
ENDROOT
BRANCH   1   2
HETATM    2  N3  UNL     1      31.845  16.079  10.058  1.00  0.00    -0.072 N 
ATOM      3  H32 UNL     1      30.826  16.044  10.111  1.00  0.00     0.277 HD
ATOM      4  H31 UNL     1      32.077  15.558  10.904  1.00  0.00     0.277 HD
BRANCH   2   5
HETATM    5  C6  UNL     1      32.323  15.380   8.876  1.00  0.00     0.251 C 
BRANCH   5   6
HETATM    6  C5  UNL     1      33.076  14.170   9.380  1.00  0.00     0.147 C 
BRANCH   6   7
HETATM    7  N2  UNL     1      34.460  14.311   9.060  1.00  0.00    -0.388 N 
ATOM      8  H2  UNL     1      35.092  14.742   9.735  1.00  0.00     0.159 HD
BRANCH   7   9
HETATM    9  C4  UNL     1      34.966  13.857   7.815  1.00  0.00     0.028 A 
HETATM   10  C3  UNL     1      34.281  12.954   7.031  1.00  0.00     0.031 A 
HETATM   11  C2  UNL     1      34.783  12.526   5.814  1.00  0.00     0.029 A 
HETATM   12  C1  UNL     1      35.987  12.978   5.325  1.00  0.00     0.046 A 
HETATM   13  N1  UNL     1      36.488  12.523   4.068  1.00  0.00    -0.102 NA
HETATM   14  C16 UNL     1      36.682  13.883   6.106  1.00  0.00     0.029 A 
HETATM   15  C15 UNL     1      36.186  14.313   7.318  1.00  0.00     0.031 A 
ENDBRANCH   7   9
ENDBRANCH   6   7
ENDBRANCH   5   6
ENDBRANCH   2   5
ENDBRANCH   1   2
BRANCH   1  16
HETATM   16  C8  UNL     1      32.714  17.655  11.615  1.00  0.00     0.150 C 
BRANCH  16  17
HETATM   17  N4  UNL     1      32.542  16.394  12.305  1.00  0.00    -0.355 N 
ATOM     18  H4  UNL     1      32.973  15.546  11.937  1.00  0.00     0.163 HD
BRANCH  17  19
HETATM   19  C9  UNL     1      31.749  16.345  13.530  1.00  0.00     0.215 A 
HETATM   20  N5  UNL     1      30.834  15.498  13.777  1.00  0.00    -0.344 N 
HETATM   21  C10 UNL     1      30.223  15.688  15.057  1.00  0.00     0.071 A 
ATOM     22  H5  UNL     1      30.563  14.759  13.129  1.00  0.00     0.164 HD
HETATM   23  C11 UNL     1      30.366  14.465  15.914  1.00  0.00     0.055 C 
HETATM   24  C13 UNL     1      28.792  16.097  14.804  1.00  0.00     0.167 C 
HETATM   25  C14 UNL     1      31.008  16.854  15.604  1.00  0.00     0.211 A 
HETATM   26  C12 UNL     1      29.139  13.724  16.229  1.00  0.00     0.138 C 
HETATM   27  N6  UNL     1      27.918  14.462  16.231  1.00  0.00    -0.340 N 
HETATM   28  N7  UNL     1      28.035  15.805  15.976  1.00  0.00    -0.143 NA
ATOM     29  H6  UNL     1      27.016  14.021  16.412  1.00  0.00     0.175 HD
HETATM   30  O1  UNL     1      31.888  17.211  14.580  1.00  0.00    -0.320 OA
ENDBRANCH  17  19
ENDBRANCH  16  17
ENDBRANCH   1  16
TORSDOF 8
ENDMDL
MODEL 4
REMARK VINA RESULT: -7.903627364      1.994      2.754
REMARK  8 active torsions:
REMARK  status: ('A' for Active; 'I' for Inactive)
REMARK    1  A    between atoms: C4_5  and  N2_6 
REMARK    2  A    between atoms: N2_6  and  C5_8 
REMARK    3  A    between atoms: C5_8  and  C6_9 
REMARK    4  A    between atoms: C6_9  and  N3_10 
REMARK    5  A    between atoms: N3_10  and  C7_13 
REMARK    6  A    between atoms: C7_13  and  C8_14 
REMARK    7  A    between atoms: C8_14  and  N4_15 
REMARK    8  A    between atoms: N4_15  and  C9_17 
ROOT
HETATM    1  C7  UNL     1      32.306  16.310  10.203  1.00  0.00     0.252 C 
ENDROOT
BRANCH   1   2
HETATM    2  N3  UNL     1      30.920  16.661  10.105  1.00  0.00    -0.072 N 
ATOM      3  H32 UNL     1      30.733  17.152   9.231  1.00  0.00     0.277 HD
ATOM      4  H31 UNL     1      30.687  17.401  10.769  1.00  0.00     0.277 HD
BRANCH   2   5
HETATM    5  C6  UNL     1      30.021  15.528  10.262  1.00  0.00     0.251 C 
BRANCH   5   6
HETATM    6  C5  UNL     1      29.560  15.164   8.869  1.00  0.00     0.147 C 
BRANCH   6   7
HETATM    7  N2  UNL     1      30.013  13.847   8.553  1.00  0.00    -0.388 N 
ATOM      8  H2  UNL     1      29.545  13.040   8.967  1.00  0.00     0.159 HD
BRANCH   7   9
HETATM    9  C4  UNL     1      31.106  13.648   7.671  1.00  0.00     0.028 A 
HETATM   10  C3  UNL     1      32.335  13.210   8.115  1.00  0.00     0.031 A 
HETATM   11  C2  UNL     1      33.391  13.012   7.242  1.00  0.00     0.029 A 
HETATM   12  C1  UNL     1      33.269  13.242   5.891  1.00  0.00     0.046 A 
HETATM   13  N1  UNL     1      34.371  13.033   5.007  1.00  0.00    -0.102 NA
HETATM   14  C16 UNL     1      32.040  13.683   5.437  1.00  0.00     0.029 A 
HETATM   15  C15 UNL     1      30.985  13.880   6.303  1.00  0.00     0.031 A 
ENDBRANCH   7   9
ENDBRANCH   6   7
ENDBRANCH   5   6
ENDBRANCH   2   5
ENDBRANCH   1   2
BRANCH   1  16
HETATM   16  C8  UNL     1      32.501  15.678  11.588  1.00  0.00     0.150 C 
BRANCH  16  17
HETATM   17  N4  UNL     1      32.409  16.745  12.563  1.00  0.00    -0.355 N 
ATOM     18  H4  UNL     1      32.933  17.609  12.427  1.00  0.00     0.163 HD
BRANCH  17  19
HETATM   19  C9  UNL     1      31.563  16.574  13.740  1.00  0.00     0.215 A 
HETATM   20  N5  UNL     1      30.689  15.663  13.890  1.00  0.00    -0.344 N 
HETATM   21  C10 UNL     1      30.008  15.737  15.145  1.00  0.00     0.071 A 
ATOM     22  H5  UNL     1      30.495  14.951  13.186  1.00  0.00     0.164 HD
HETATM   23  C11 UNL     1      30.184  14.473  15.934  1.00  0.00     0.055 C 
HETATM   24  C13 UNL     1      28.568  16.078  14.844  1.00  0.00     0.167 C 
HETATM   25  C14 UNL     1      30.694  16.909  15.800  1.00  0.00     0.211 A 
HETATM   26  C12 UNL     1      28.990  13.645  16.141  1.00  0.00     0.138 C 
HETATM   27  N6  UNL     1      27.727  14.310  16.125  1.00  0.00    -0.340 N 
HETATM   28  N7  UNL     1      27.776  15.670  15.956  1.00  0.00    -0.143 NA
ATOM     29  H6  UNL     1      26.846  13.807  16.233  1.00  0.00     0.175 HD
HETATM   30  O1  UNL     1      31.599  17.380  14.845  1.00  0.00    -0.320 OA
ENDBRANCH  17  19
ENDBRANCH  16  17
ENDBRANCH   1  16
TORSDOF 8
ENDMDL
MODEL 5
REMARK VINA RESULT: -7.810386709      3.196      9.100
REMARK  8 active torsions:
REMARK  status: ('A' for Active; 'I' for Inactive)
REMARK    1  A    between atoms: C4_5  and  N2_6 
REMARK    2  A    between atoms: N2_6  and  C5_8 
REMARK    3  A    between atoms: C5_8  and  C6_9 
REMARK    4  A    between atoms: C6_9  and  N3_10 
REMARK    5  A    between atoms: N3_10  and  C7_13 
REMARK    6  A    between atoms: C7_13  and  C8_14 
REMARK    7  A    between atoms: C8_14  and  N4_15 
REMARK    8  A    between atoms: N4_15  and  C9_17 
ROOT
HETATM    1  C7  UNL     1      31.265  15.358   9.810  1.00  0.00     0.252 C 
ENDROOT
BRANCH   1   2
HETATM    2  N3  UNL     1      31.368  16.752  10.126  1.00  0.00    -0.072 N 
ATOM      3  H32 UNL     1      30.507  17.089  10.555  1.00  0.00     0.277 HD
ATOM      4  H31 UNL     1      31.367  17.316   9.276  1.00  0.00     0.277 HD
BRANCH   2   5
HETATM    5  C6  UNL     1      32.518  17.076  10.956  1.00  0.00     0.251 C 
BRANCH   5   6
HETATM    6  C5  UNL     1      32.513  16.076  12.089  1.00  0.00     0.147 C 
BRANCH   6   7
HETATM    7  N2  UNL     1      31.804  16.627  13.199  1.00  0.00    -0.388 N 
ATOM      8  H2  UNL     1      31.936  17.608  13.445  1.00  0.00     0.159 HD
BRANCH   7   9
HETATM    9  C4  UNL     1      30.917  15.825  13.963  1.00  0.00     0.028 A 
HETATM   10  C3  UNL     1      31.266  15.318  15.197  1.00  0.00     0.031 A 
HETATM   11  C2  UNL     1      30.388  14.544  15.935  1.00  0.00     0.029 A 
HETATM   12  C1  UNL     1      29.125  14.243  15.479  1.00  0.00     0.046 A 
HETATM   13  N1  UNL     1      28.235  13.441  16.256  1.00  0.00    -0.102 NA
HETATM   14  C16 UNL     1      28.766  14.746  14.243  1.00  0.00     0.029 A 
HETATM   15  C15 UNL     1      29.638  15.518  13.504  1.00  0.00     0.031 A 
ENDBRANCH   7   9
ENDBRANCH   6   7
ENDBRANCH   5   6
ENDBRANCH   2   5
ENDBRANCH   1   2
BRANCH   1  16
HETATM   16  C8  UNL     1      29.781  15.080   9.534  1.00  0.00     0.150 C 
BRANCH  16  17
HETATM   17  N4  UNL     1      29.560  15.297   8.120  1.00  0.00    -0.355 N 
ATOM     18  H4  UNL     1      28.961  16.061   7.806  1.00  0.00     0.163 HD
BRANCH  17  19
HETATM   19  C9  UNL     1      30.201  14.416   7.147  1.00  0.00     0.215 A 
HETATM   20  N5  UNL     1      30.065  13.153   7.101  1.00  0.00    -0.344 N 
HETATM   21  C10 UNL     1      30.810  12.546   6.042  1.00  0.00     0.071 A 
ATOM     22  H5  UNL     1      29.483  12.627   7.753  1.00  0.00     0.164 HD
HETATM   23  C11 UNL     1      29.909  11.793   5.107  1.00  0.00     0.055 C 
HETATM   24  C13 UNL     1      31.876  11.694   6.687  1.00  0.00     0.167 C 
HETATM   25  C14 UNL     1      31.435  13.746   5.376  1.00  0.00     0.211 A 
HETATM   26  C12 UNL     1      30.045  10.332   5.084  1.00  0.00     0.138 C 
HETATM   27  N6  UNL     1      31.314   9.791   5.448  1.00  0.00    -0.340 N 
HETATM   28  N7  UNL     1      32.288  10.710   5.742  1.00  0.00    -0.143 NA
ATOM     29  H6  UNL     1      31.486   8.786   5.486  1.00  0.00     0.175 HD
HETATM   30  O1  UNL     1      31.038  14.838   6.151  1.00  0.00    -0.320 OA
ENDBRANCH  17  19
ENDBRANCH  16  17
ENDBRANCH   1  16
TORSDOF 8
ENDMDL
