MODEL 1
REMARK VINA RESULT: -7.430913626      0.000      0.000
REMARK  9 active torsions:
REMARK  status: ('A' for Active; 'I' for Inactive)
REMARK    1  A    between atoms: N5_15  and  C6_16 
REMARK    2  A    between atoms: C7_18  and  C8_19 
REMARK    3  A    between atoms: C8_19  and  S1_20 
REMARK    4  A    between atoms: S1_20  and  C9_21 
REMARK    5  A    between atoms: C9_21  and  C10_22 
REMARK    6  A    between atoms: C10_22  and  N6_23 
REMARK    7  A    between atoms: N6_23  and  C11_26 
REMARK    8  A    between atoms: C11_26  and  N7_27 
REMARK    9  A    between atoms: C13_32  and  N8_33 
ROOT
HETATM    1  C6  UNL     1      31.066  16.113  10.561  1.00  0.00     0.261 C 
HETATM    2  O1  UNL     1      31.206  15.239  11.644  1.00  0.00    -0.358 OA
HETATM    3  C7  UNL     1      32.105  15.817  12.535  1.00  0.00     0.135 C 
HETATM    4  C12 UNL     1      32.337  17.221  12.082  1.00  0.00     0.070 C 
HETATM    5  C13 UNL     1      32.341  16.914  10.557  1.00  0.00     0.234 C 
ENDROOT
BRANCH   1   6
HETATM    6  N5  UNL     1      30.757  15.408   9.358  1.00  0.00    -0.298 N 
HETATM    7  C3  UNL     1      31.597  14.648   8.699  1.00  0.00     0.142 A 
HETATM    8  N3  UNL     1      32.896  14.283   8.897  1.00  0.00    -0.336 N 
HETATM    9  C4  UNL     1      30.997  14.141   7.555  1.00  0.00     0.122 A 
HETATM   10  C2  UNL     1      33.490  13.481   8.000  1.00  0.00     0.183 A 
ATOM     11  H3  UNL     1      33.408  14.614   9.714  1.00  0.00     0.168 HD
HETATM   12  N2  UNL     1      32.905  12.998   6.906  1.00  0.00    -0.337 N 
HETATM   13  C1  UNL     1      31.623  13.330   6.665  1.00  0.00     0.131 A 
ATOM     14  H2  UNL     1      33.416  12.390   6.265  1.00  0.00     0.168 HD
HETATM   15  N1  UNL     1      31.133  12.864   5.585  1.00  0.00    -0.383 N 
ATOM     16  H12 UNL     1      31.603  12.255   4.916  1.00  0.00     0.157 HD
ATOM     17  H11 UNL     1      30.161  13.116   5.403  1.00  0.00     0.157 HD
HETATM   18  N4  UNL     1      29.728  14.657   7.576  1.00  0.00    -0.346 N 
HETATM   19  C5  UNL     1      29.604  15.415   8.660  1.00  0.00     0.188 A 
ATOM     20  H4  UNL     1      29.003  14.489   6.878  1.00  0.00     0.167 HD
ENDBRANCH   1   6
BRANCH   5  21
HETATM   21  N8  UNL     1      32.317  18.069   9.750  1.00  0.00    -0.071 N 
ATOM     22  H83 UNL     1      33.241  18.501   9.726  1.00  0.00     0.274 HD
ATOM     23  H82 UNL     1      32.216  17.811   8.769  1.00  0.00     0.274 HD
ATOM     24  H81 UNL     1      31.612  18.759  10.008  1.00  0.00     0.274 HD
ENDBRANCH   5  21
BRANCH   3  25
HETATM   25  C8  UNL     1      31.609  15.616  13.931  1.00  0.00     0.106 C 
BRANCH  25  26
HETATM   26  S1  UNL     1      29.843  15.742  14.105  1.00  0.00    -0.165 SA
BRANCH  26  27
HETATM   27  C9  UNL     1      29.223  14.550  15.331  1.00  0.00     0.101 C 
BRANCH  27  28
HETATM   28  C10 UNL     1      27.728  14.519  15.132  1.00  0.00     0.244 C 
BRANCH  28  29
HETATM   29  N6  UNL     1      27.303  13.317  14.513  1.00  0.00    -0.051 N 
ATOM     30  H62 UNL     1      28.027  12.600  14.492  1.00  0.00     0.279 HD
ATOM     31  H61 UNL     1      26.623  12.798  15.069  1.00  0.00     0.279 HD
BRANCH  29  32
HETATM   32  C11 UNL     1      26.802  13.678  13.172  1.00  0.00     0.460 C 
BRANCH  32  33
HETATM   33  N7  UNL     1      25.425  13.180  13.010  1.00  0.00    -0.056 N 
ATOM     34  H73 UNL     1      25.280  12.287  13.481  1.00  0.00     0.276 HD
ATOM     35  H72 UNL     1      24.751  13.734  13.537  1.00  0.00     0.276 HD
ATOM     36  H71 UNL     1      25.194  13.133  12.018  1.00  0.00     0.276 HD
ENDBRANCH  32  33
ENDBRANCH  29  32
ENDBRANCH  28  29
ENDBRANCH  27  28
ENDBRANCH  26  27
ENDBRANCH  25  26
ENDBRANCH   3  25
TORSDOF 9
ENDMDL
MODEL 2
REMARK VINA RESULT: -7.346299233      1.210      2.126
REMARK  9 active torsions:
REMARK  status: ('A' for Active; 'I' for Inactive)
REMARK    1  A    between atoms: N5_15  and  C6_16 
REMARK    2  A    between atoms: C7_18  and  C8_19 
REMARK    3  A    between atoms: C8_19  and  S1_20 
REMARK    4  A    between atoms: S1_20  and  C9_21 
REMARK    5  A    between atoms: C9_21  and  C10_22 
REMARK    6  A    between atoms: C10_22  and  N6_23 
REMARK    7  A    between atoms: N6_23  and  C11_26 
REMARK    8  A    between atoms: C11_26  and  N7_27 
REMARK    9  A    between atoms: C13_32  and  N8_33 
ROOT
HETATM    1  C6  UNL     1      31.517  16.046  11.700  1.00  0.00     0.261 C 
HETATM    2  O1  UNL     1      30.945  15.226  12.679  1.00  0.00    -0.358 OA
HETATM    3  C7  UNL     1      31.139  15.845  13.910  1.00  0.00     0.135 C 
HETATM    4  C12 UNL     1      31.642  17.225  13.637  1.00  0.00     0.070 C 
HETATM    5  C13 UNL     1      32.558  16.842  12.440  1.00  0.00     0.234 C 
ENDROOT
BRANCH   1   6
HETATM    6  N5  UNL     1      31.976  15.283  10.584  1.00  0.00    -0.298 N 
HETATM    7  C3  UNL     1      31.300  15.096   9.477  1.00  0.00     0.142 A 
HETATM    8  N3  UNL     1      30.082  15.517   9.031  1.00  0.00    -0.336 N 
HETATM    9  C4  UNL     1      32.008  14.277   8.609  1.00  0.00     0.122 A 
HETATM   10  C2  UNL     1      29.661  15.123   7.819  1.00  0.00     0.183 A 
ATOM     11  H3  UNL     1      29.499  16.121   9.610  1.00  0.00     0.168 HD
HETATM   12  N2  UNL     1      30.349  14.339   6.992  1.00  0.00    -0.337 N 
HETATM   13  C1  UNL     1      31.557  13.896   7.387  1.00  0.00     0.131 A 
ATOM     14  H2  UNL     1      29.969  14.079   6.082  1.00  0.00     0.168 HD
HETATM   15  N1  UNL     1      32.149  13.121   6.566  1.00  0.00    -0.383 N 
ATOM     16  H12 UNL     1      31.810  12.834   5.647  1.00  0.00     0.157 HD
ATOM     17  H11 UNL     1      33.064  12.786   6.865  1.00  0.00     0.157 HD
HETATM   18  N4  UNL     1      33.165  13.983   9.281  1.00  0.00    -0.346 N 
HETATM   19  C5  UNL     1      33.126  14.591  10.462  1.00  0.00     0.188 A 
ATOM     20  H4  UNL     1      33.925  13.398   8.936  1.00  0.00     0.167 HD
ENDBRANCH   1   6
BRANCH   5  21
HETATM   21  N8  UNL     1      33.064  17.956  11.740  1.00  0.00    -0.071 N 
ATOM     22  H83 UNL     1      32.317  18.625  11.555  1.00  0.00     0.274 HD
ATOM     23  H82 UNL     1      33.657  18.518  12.351  1.00  0.00     0.274 HD
ATOM     24  H81 UNL     1      33.560  17.734  10.876  1.00  0.00     0.274 HD
ENDBRANCH   5  21
BRANCH   3  25
HETATM   25  C8  UNL     1      29.893  15.715  14.726  1.00  0.00     0.106 C 
BRANCH  25  26
HETATM   26  S1  UNL     1      29.950  14.425  15.948  1.00  0.00    -0.165 SA
BRANCH  26  27
HETATM   27  C9  UNL     1      28.294  14.093  16.623  1.00  0.00     0.101 C 
BRANCH  27  28
HETATM   28  C10 UNL     1      27.342  14.344  15.480  1.00  0.00     0.244 C 
BRANCH  28  29
HETATM   29  N6  UNL     1      27.290  13.244  14.587  1.00  0.00    -0.051 N 
ATOM     30  H62 UNL     1      28.176  12.743  14.516  1.00  0.00     0.279 HD
ATOM     31  H61 UNL     1      26.730  12.468  14.938  1.00  0.00     0.279 HD
BRANCH  29  32
HETATM   32  C11 UNL     1      26.812  13.766  13.291  1.00  0.00     0.460 C 
BRANCH  32  33
HETATM   33  N7  UNL     1      25.505  13.167  12.971  1.00  0.00    -0.056 N 
ATOM     34  H73 UNL     1      25.495  12.159  13.124  1.00  0.00     0.276 HD
ATOM     35  H72 UNL     1      24.787  13.425  13.648  1.00  0.00     0.276 HD
ATOM     36  H71 UNL     1      25.241  13.414  12.017  1.00  0.00     0.276 HD
ENDBRANCH  32  33
ENDBRANCH  29  32
ENDBRANCH  28  29
ENDBRANCH  27  28
ENDBRANCH  26  27
ENDBRANCH  25  26
ENDBRANCH   3  25
TORSDOF 9
ENDMDL
MODEL 3
REMARK VINA RESULT: -7.330233360      2.574      7.171
REMARK  9 active torsions:
REMARK  status: ('A' for Active; 'I' for Inactive)
REMARK    1  A    between atoms: N5_15  and  C6_16 
REMARK    2  A    between atoms: C7_18  and  C8_19 
REMARK    3  A    between atoms: C8_19  and  S1_20 
REMARK    4  A    between atoms: S1_20  and  C9_21 
REMARK    5  A    between atoms: C9_21  and  C10_22 
REMARK    6  A    between atoms: C10_22  and  N6_23 
REMARK    7  A    between atoms: N6_23  and  C11_26 
REMARK    8  A    between atoms: C11_26  and  N7_27 
REMARK    9  A    between atoms: C13_32  and  N8_33 
ROOT
HETATM    1  C6  UNL     1      30.767  15.578  11.943  1.00  0.00     0.261 C 
HETATM    2  O1  UNL     1      29.682  15.525  11.063  1.00  0.00    -0.358 OA
HETATM    3  C7  UNL     1      30.099  16.063   9.850  1.00  0.00     0.135 C 
HETATM    4  C12 UNL     1      31.582  16.230   9.927  1.00  0.00     0.070 C 
HETATM    5  C13 UNL     1      31.628  16.692  11.411  1.00  0.00     0.234 C 
ENDROOT
BRANCH   1   6
HETATM    6  N5  UNL     1      30.334  15.703  13.299  1.00  0.00    -0.298 N 
HETATM    7  C3  UNL     1      29.243  15.165  13.788  1.00  0.00     0.142 A 
HETATM    8  N3  UNL     1      28.260  14.380  13.264  1.00  0.00    -0.336 N 
HETATM    9  C4  UNL     1      29.091  15.509  15.124  1.00  0.00     0.122 A 
HETATM   10  C2  UNL     1      27.241  14.002  14.050  1.00  0.00     0.183 A 
ATOM     11  H3  UNL     1      28.298  14.084  12.288  1.00  0.00     0.168 HD
HETATM   12  N2  UNL     1      27.104  14.335  15.332  1.00  0.00    -0.337 N 
HETATM   13  C1  UNL     1      28.049  15.110  15.896  1.00  0.00     0.131 A 
ATOM     14  H2  UNL     1      26.303  14.010  15.874  1.00  0.00     0.168 HD
HETATM   15  N1  UNL     1      27.842  15.422  17.115  1.00  0.00    -0.383 N 
ATOM     16  H12 UNL     1      27.059  15.123  17.695  1.00  0.00     0.157 HD
ATOM     17  H11 UNL     1      28.558  16.009  17.542  1.00  0.00     0.157 HD
HETATM   18  N4  UNL     1      30.176  16.298  15.401  1.00  0.00    -0.346 N 
HETATM   19  C5  UNL     1      30.906  16.405  14.296  1.00  0.00     0.188 A 
ATOM     20  H4  UNL     1      30.387  16.730  16.301  1.00  0.00     0.167 HD
ENDBRANCH   1   6
BRANCH   5  21
HETATM   21  N8  UNL     1      32.932  16.743  11.944  1.00  0.00    -0.071 N 
ATOM     22  H83 UNL     1      32.971  17.409  12.716  1.00  0.00     0.274 HD
ATOM     23  H82 UNL     1      33.143  15.880  12.443  1.00  0.00     0.274 HD
ATOM     24  H81 UNL     1      33.667  16.946  11.266  1.00  0.00     0.274 HD
ENDBRANCH   5  21
BRANCH   3  25
HETATM   25  C8  UNL     1      29.557  15.232   8.732  1.00  0.00     0.106 C 
BRANCH  25  26
HETATM   26  S1  UNL     1      30.728  14.891   7.438  1.00  0.00    -0.165 SA
BRANCH  26  27
HETATM   27  C9  UNL     1      30.853  13.103   7.126  1.00  0.00     0.101 C 
BRANCH  27  28
HETATM   28  C10 UNL     1      30.510  12.931   5.667  1.00  0.00     0.244 C 
BRANCH  28  29
HETATM   29  N6  UNL     1      29.286  12.239   5.491  1.00  0.00    -0.051 N 
ATOM     30  H62 UNL     1      28.539  12.587   6.091  1.00  0.00     0.279 HD
ATOM     31  H61 UNL     1      28.837  12.438   4.597  1.00  0.00     0.279 HD
BRANCH  29  32
HETATM   32  C11 UNL     1      29.571  10.804   5.691  1.00  0.00     0.460 C 
BRANCH  32  33
HETATM   33  N7  UNL     1      28.489  10.193   6.482  1.00  0.00    -0.056 N 
ATOM     34  H73 UNL     1      28.643   9.197   6.642  1.00  0.00     0.276 HD
ATOM     35  H72 UNL     1      28.501  10.500   7.454  1.00  0.00     0.276 HD
ATOM     36  H71 UNL     1      27.592  10.375   6.032  1.00  0.00     0.276 HD
ENDBRANCH  32  33
ENDBRANCH  29  32
ENDBRANCH  28  29
ENDBRANCH  27  28
ENDBRANCH  26  27
ENDBRANCH  25  26
ENDBRANCH   3  25
TORSDOF 9
ENDMDL
MODEL 4
REMARK VINA RESULT: -7.305281701      1.197      1.400
REMARK  9 active torsions:
REMARK  status: ('A' for Active; 'I' for Inactive)
REMARK    1  A    between atoms: N5_15  and  C6_16 
REMARK    2  A    between atoms: C7_18  and  C8_19 
REMARK    3  A    between atoms: C8_19  and  S1_20 
REMARK    4  A    between atoms: S1_20  and  C9_21 
REMARK    5  A    between atoms: C9_21  and  C10_22 
REMARK    6  A    between atoms: C10_22  and  N6_23 
REMARK    7  A    between atoms: N6_23  and  C11_26 
REMARK    8  A    between atoms: C11_26  and  N7_27 
REMARK    9  A    between atoms: C13_32  and  N8_33 
ROOT
HETATM    1  C6  UNL     1      31.126  16.237  10.449  1.00  0.00     0.261 C 
HETATM    2  O1  UNL     1      31.265  15.435  11.587  1.00  0.00    -0.358 OA
HETATM    3  C7  UNL     1      32.232  16.021  12.397  1.00  0.00     0.135 C 
HETATM    4  C12 UNL     1      32.519  17.375  11.834  1.00  0.00     0.070 C 
HETATM    5  C13 UNL     1      32.441  16.961  10.337  1.00  0.00     0.234 C 
ENDROOT
BRANCH   1   6
HETATM    6  N5  UNL     1      30.726  15.468   9.314  1.00  0.00    -0.298 N 
HETATM    7  C3  UNL     1      31.500  14.630   8.668  1.00  0.00     0.142 A 
HETATM    8  N3  UNL     1      32.792  14.223   8.826  1.00  0.00    -0.336 N 
HETATM    9  C4  UNL     1      30.821  14.075   7.592  1.00  0.00     0.122 A 
HETATM   10  C2  UNL     1      33.306  13.339   7.958  1.00  0.00     0.183 A 
ATOM     11  H3  UNL     1      33.358  14.585   9.593  1.00  0.00     0.168 HD
HETATM   12  N2  UNL     1      32.646  12.810   6.930  1.00  0.00    -0.337 N 
HETATM   13  C1  UNL     1      31.368  13.181   6.730  1.00  0.00     0.131 A 
ATOM     14  H2  UNL     1      33.099  12.139   6.308  1.00  0.00     0.168 HD
HETATM   15  N1  UNL     1      30.804  12.665   5.710  1.00  0.00    -0.383 N 
ATOM     16  H12 UNL     1      31.215  11.993   5.061  1.00  0.00     0.157 HD
ATOM     17  H11 UNL     1      29.835  12.946   5.559  1.00  0.00     0.157 HD
HETATM   18  N4  UNL     1      29.577  14.645   7.640  1.00  0.00    -0.346 N 
HETATM   19  C5  UNL     1      29.540  15.478   8.675  1.00  0.00     0.188 A 
ATOM     20  H4  UNL     1      28.810  14.462   6.992  1.00  0.00     0.167 HD
ENDBRANCH   1   6
BRANCH   5  21
HETATM   21  N8  UNL     1      32.444  18.056   9.450  1.00  0.00    -0.071 N 
ATOM     22  H83 UNL     1      33.397  18.263   9.150  1.00  0.00     0.274 HD
ATOM     23  H82 UNL     1      32.032  17.787   8.556  1.00  0.00     0.274 HD
ATOM     24  H81 UNL     1      31.994  18.900   9.805  1.00  0.00     0.274 HD
ENDBRANCH   5  21
BRANCH   3  25
HETATM   25  C8  UNL     1      31.786  15.949  13.822  1.00  0.00     0.106 C 
BRANCH  25  26
HETATM   26  S1  UNL     1      30.067  15.547  14.032  1.00  0.00    -0.165 SA
BRANCH  26  27
HETATM   27  C9  UNL     1      29.660  15.319  15.791  1.00  0.00     0.101 C 
BRANCH  27  28
HETATM   28  C10 UNL     1      29.021  13.956  15.876  1.00  0.00     0.244 C 
BRANCH  28  29
HETATM   29  N6  UNL     1      27.606  14.037  15.882  1.00  0.00    -0.051 N 
ATOM     30  H62 UNL     1      27.208  14.170  14.953  1.00  0.00     0.279 HD
ATOM     31  H61 UNL     1      27.154  13.146  16.090  1.00  0.00     0.279 HD
BRANCH  29  32
HETATM   32  C11 UNL     1      27.241  15.107  16.831  1.00  0.00     0.460 C 
BRANCH  32  33
HETATM   33  N7  UNL     1      25.912  14.828  17.402  1.00  0.00    -0.056 N 
ATOM     34  H73 UNL     1      25.180  15.392  16.969  1.00  0.00     0.276 HD
ATOM     35  H72 UNL     1      25.564  13.908  17.134  1.00  0.00     0.276 HD
ATOM     36  H71 UNL     1      25.943  14.949  18.414  1.00  0.00     0.276 HD
ENDBRANCH  32  33
ENDBRANCH  29  32
ENDBRANCH  28  29
ENDBRANCH  27  28
ENDBRANCH  26  27
ENDBRANCH  25  26
ENDBRANCH   3  25
TORSDOF 9
ENDMDL
MODEL 5
REMARK VINA RESULT: -7.285627377      2.643      7.181
REMARK  9 active torsions:
REMARK  status: ('A' for Active; 'I' for Inactive)
REMARK    1  A    between atoms: N5_15  and  C6_16 
REMARK    2  A    between atoms: C7_18  and  C8_19 
REMARK    3  A    between atoms: C8_19  and  S1_20 
REMARK    4  A    between atoms: S1_20  and  C9_21 
REMARK    5  A    between atoms: C9_21  and  C10_22 
REMARK    6  A    between atoms: C10_22  and  N6_23 
REMARK    7  A    between atoms: N6_23  and  C11_26 
REMARK    8  A    between atoms: C11_26  and  N7_27 
REMARK    9  A    between atoms: C13_32  and  N8_33 
ROOT
HETATM    1  C6  UNL     1      31.630  15.597  10.681  1.00  0.00     0.261 C 
HETATM    2  O1  UNL     1      30.877  14.531  10.178  1.00  0.00    -0.358 OA
HETATM    3  C7  UNL     1      30.632  14.789   8.833  1.00  0.00     0.135 C 
HETATM    4  C12 UNL     1      31.483  15.952   8.443  1.00  0.00     0.070 C 
HETATM    5  C13 UNL     1      31.306  16.749   9.767  1.00  0.00     0.234 C 
ENDROOT
BRANCH   1   6
HETATM    6  N5  UNL     1      31.380  15.802  12.072  1.00  0.00    -0.298 N 
HETATM    7  C3  UNL     1      30.236  15.569  12.669  1.00  0.00     0.142 A 
HETATM    8  N3  UNL     1      29.029  15.095  12.247  1.00  0.00    -0.336 N 
HETATM    9  C4  UNL     1      30.313  15.908  14.013  1.00  0.00     0.122 A 
HETATM   10  C2  UNL     1      28.026  14.990  13.131  1.00  0.00     0.183 A 
ATOM     11  H3  UNL     1      28.891  14.825  11.273  1.00  0.00     0.168 HD
HETATM   12  N2  UNL     1      28.110  15.315  14.420  1.00  0.00    -0.337 N 
HETATM   13  C1  UNL     1      29.281  15.789  14.885  1.00  0.00     0.131 A 
ATOM     14  H2  UNL     1      27.307  15.207  15.039  1.00  0.00     0.168 HD
HETATM   15  N1  UNL     1      29.285  16.114  16.118  1.00  0.00    -0.383 N 
ATOM     16  H12 UNL     1      28.510  16.025  16.774  1.00  0.00     0.157 HD
ATOM     17  H11 UNL     1      30.172  16.473  16.470  1.00  0.00     0.157 HD
HETATM   18  N4  UNL     1      31.594  16.364  14.179  1.00  0.00    -0.346 N 
HETATM   19  C5  UNL     1      32.215  16.296  13.006  1.00  0.00     0.188 A 
ATOM     20  H4  UNL     1      32.001  16.699  15.052  1.00  0.00     0.167 HD
ENDBRANCH   1   6
BRANCH   5  21
HETATM   21  N8  UNL     1      32.170  17.857   9.877  1.00  0.00    -0.071 N 
ATOM     22  H83 UNL     1      33.087  17.628   9.494  1.00  0.00     0.274 HD
ATOM     23  H82 UNL     1      31.886  18.592   9.230  1.00  0.00     0.274 HD
ATOM     24  H81 UNL     1      32.267  18.236  10.820  1.00  0.00     0.274 HD
ENDBRANCH   5  21
BRANCH   3  25
HETATM   25  C8  UNL     1      30.796  13.524   8.054  1.00  0.00     0.106 C 
BRANCH  25  26
HETATM   26  S1  UNL     1      31.066  13.766   6.313  1.00  0.00    -0.165 SA
BRANCH  26  27
HETATM   27  C9  UNL     1      32.729  13.210   5.827  1.00  0.00     0.101 C 
BRANCH  27  28
HETATM   28  C10 UNL     1      33.455  12.952   7.124  1.00  0.00     0.244 C 
BRANCH  28  29
HETATM   29  N6  UNL     1      34.861  13.012   6.961  1.00  0.00    -0.051 N 
ATOM     30  H62 UNL     1      35.327  12.129   7.167  1.00  0.00     0.279 HD
ATOM     31  H61 UNL     1      35.150  13.086   5.985  1.00  0.00     0.279 HD
BRANCH  29  32
HETATM   32  C11 UNL     1      35.343  14.131   7.796  1.00  0.00     0.460 C 
BRANCH  32  33
HETATM   33  N7  UNL     1      34.577  14.172   9.054  1.00  0.00    -0.056 N 
ATOM     34  H73 UNL     1      34.205  15.101   9.249  1.00  0.00     0.276 HD
ATOM     35  H72 UNL     1      33.692  13.671   8.982  1.00  0.00     0.276 HD
ATOM     36  H71 UNL     1      35.157  13.822   9.817  1.00  0.00     0.276 HD
ENDBRANCH  32  33
ENDBRANCH  29  32
ENDBRANCH  28  29
ENDBRANCH  27  28
ENDBRANCH  26  27
ENDBRANCH  25  26
ENDBRANCH   3  25
TORSDOF 9
ENDMDL
