MODEL 1
REMARK VINA RESULT: -7.448120921      0.000      0.000
REMARK  10 active torsions:
REMARK  status: ('A' for Active; 'I' for Inactive)
REMARK    1  A    between atoms: C2_2  and  C3_3 
REMARK    2  A    between atoms: C3_3  and  S1_4 
REMARK    3  A    between atoms: S1_4  and  C4_5 
REMARK    4  A    between atoms: C4_5  and  C5_6 
REMARK    5  A    between atoms: C6_10  and  C7_11 
REMARK    6  A    between atoms: C7_11  and  O1_12 
REMARK    7  A    between atoms: C8_15  and  O3_16 
REMARK    8  A    between atoms: O3_16  and  C9_17 
REMARK    9  A    between atoms: C11_20  and  C13_22 
REMARK   10  A    between atoms: C13_22  and  O5_23 
ROOT
HETATM    1  C5  UNL     1      30.264  15.168  15.706  1.00  0.00     0.161 C 
HETATM    2  N1  UNL     1      30.297  13.740  16.058  1.00  0.00    -0.119 NA
HETATM    3  N2  UNL     1      28.969  13.265  16.147  1.00  0.00    -0.037 NA
HETATM    4  N3  UNL     1      28.346  13.221  14.897  1.00  0.00    -0.096 NA
HETATM    5  C6  UNL     1      27.614  14.439  14.597  1.00  0.00     0.258 C 
HETATM    6  O2  UNL     1      28.417  15.515  14.321  1.00  0.00    -0.335 OA
HETATM    7  C8  UNL     1      29.782  15.224  14.283  1.00  0.00     0.284 C 
ENDROOT
BRANCH   7   8
HETATM    8  O3  UNL     1      30.446  16.112  13.475  1.00  0.00    -0.349 OA
BRANCH   8   9
HETATM    9  C9  UNL     1      31.427  15.517  12.689  1.00  0.00     0.184 C 
HETATM   10  C10 UNL     1      32.522  16.468  12.257  1.00  0.00     0.204 C 
HETATM   11  O4  UNL     1      31.579  17.009  11.352  1.00  0.00    -0.373 OA
HETATM   12  C11 UNL     1      31.123  15.698  11.202  1.00  0.00     0.106 C 
HETATM   13  C12 UNL     1      32.069  14.947  10.299  1.00  0.00     0.051 C 
BRANCH  12  14
HETATM   14  C13 UNL     1      29.694  15.537  10.809  1.00  0.00     0.204 C 
BRANCH  14  15
HETATM   15  O5  UNL     1      29.477  16.294   9.644  1.00  0.00    -0.398 OA
ATOM     16  H5  UNL     1      29.080  17.119   9.901  1.00  0.00     0.209 HD
ENDBRANCH  14  15
ENDBRANCH  12  14
ENDBRANCH   8   9
ENDBRANCH   7   8
BRANCH   1  17
HETATM   17  C4  UNL     1      31.605  15.790  15.918  1.00  0.00     0.101 C 
BRANCH  17  18
HETATM   18  S1  UNL     1      31.458  17.523  16.383  1.00  0.00    -0.167 SA
BRANCH  18  19
HETATM   19  C3  UNL     1      32.573  17.899  17.769  1.00  0.00     0.073 C 
BRANCH  19  20
HETATM   20  C2  UNL     1      32.627  19.419  17.967  1.00  0.00     0.006 C 
HETATM   21  C1  UNL     1      34.028  19.791  18.344  1.00  0.00     0.006 C 
ENDBRANCH  19  20
ENDBRANCH  18  19
ENDBRANCH  17  18
ENDBRANCH   1  17
BRANCH   5  22
HETATM   22  C7  UNL     1      26.666  14.117  13.448  1.00  0.00     0.214 C 
BRANCH  22  23
HETATM   23  O1  UNL     1      26.319  12.778  13.495  1.00  0.00    -0.397 OA
ATOM     24  H1  UNL     1      25.588  12.618  12.910  1.00  0.00     0.209 HD
ENDBRANCH  22  23
ENDBRANCH   5  22
TORSDOF 10
ENDMDL
MODEL 2
REMARK VINA RESULT: -6.997168015      0.982      1.630
REMARK  10 active torsions:
REMARK  status: ('A' for Active; 'I' for Inactive)
REMARK    1  A    between atoms: C2_2  and  C3_3 
REMARK    2  A    between atoms: C3_3  and  S1_4 
REMARK    3  A    between atoms: S1_4  and  C4_5 
REMARK    4  A    between atoms: C4_5  and  C5_6 
REMARK    5  A    between atoms: C6_10  and  C7_11 
REMARK    6  A    between atoms: C7_11  and  O1_12 
REMARK    7  A    between atoms: C8_15  and  O3_16 
REMARK    8  A    between atoms: O3_16  and  C9_17 
REMARK    9  A    between atoms: C11_20  and  C13_22 
REMARK   10  A    between atoms: C13_22  and  O5_23 
ROOT
HETATM    1  C5  UNL     1      30.178  15.134  15.609  1.00  0.00     0.161 C 
HETATM    2  N1  UNL     1      29.818  13.917  16.354  1.00  0.00    -0.119 NA
HETATM    3  N2  UNL     1      28.426  13.704  16.228  1.00  0.00    -0.037 NA
HETATM    4  N3  UNL     1      28.070  13.340  14.927  1.00  0.00    -0.096 NA
HETATM    5  C6  UNL     1      27.706  14.483  14.109  1.00  0.00     0.258 C 
HETATM    6  O2  UNL     1      28.769  15.271  13.753  1.00  0.00    -0.335 OA
HETATM    7  C8  UNL     1      30.013  14.783  14.156  1.00  0.00     0.284 C 
ENDROOT
BRANCH   7   8
HETATM    8  O3  UNL     1      31.007  15.240  13.328  1.00  0.00    -0.349 OA
BRANCH   8   9
HETATM    9  C9  UNL     1      30.528  15.921  12.214  1.00  0.00     0.184 C 
HETATM   10  C10 UNL     1      30.251  15.026  11.025  1.00  0.00     0.204 C 
HETATM   11  O4  UNL     1      31.654  14.955  10.859  1.00  0.00    -0.373 OA
HETATM   12  C11 UNL     1      31.668  16.291  11.265  1.00  0.00     0.106 C 
HETATM   13  C12 UNL     1      31.233  17.160  10.113  1.00  0.00     0.051 C 
BRANCH  12  14
HETATM   14  C13 UNL     1      32.921  16.770  11.914  1.00  0.00     0.204 C 
BRANCH  14  15
HETATM   15  O5  UNL     1      32.856  18.173  11.998  1.00  0.00    -0.398 OA
ATOM     16  H5  UNL     1      32.566  18.401  12.874  1.00  0.00     0.209 HD
ENDBRANCH  14  15
ENDBRANCH  12  14
ENDBRANCH   8   9
ENDBRANCH   7   8
BRANCH   1  17
HETATM   17  C4  UNL     1      31.555  15.582  15.972  1.00  0.00     0.101 C 
BRANCH  17  18
HETATM   18  S1  UNL     1      31.638  17.372  16.149  1.00  0.00    -0.167 SA
BRANCH  18  19
HETATM   19  C3  UNL     1      32.463  17.813  17.707  1.00  0.00     0.073 C 
BRANCH  19  20
HETATM   20  C2  UNL     1      32.528  19.341  17.821  1.00  0.00     0.006 C 
HETATM   21  C1  UNL     1      33.894  19.715  18.310  1.00  0.00     0.006 C 
ENDBRANCH  19  20
ENDBRANCH  18  19
ENDBRANCH  17  18
ENDBRANCH   1  17
BRANCH   5  22
HETATM   22  C7  UNL     1      26.957  13.942  12.897  1.00  0.00     0.214 C 
BRANCH  22  23
HETATM   23  O1  UNL     1      25.896  13.160  13.319  1.00  0.00    -0.397 OA
ATOM     24  H1  UNL     1      25.553  13.504  14.135  1.00  0.00     0.209 HD
ENDBRANCH  22  23
ENDBRANCH   5  22
TORSDOF 10
ENDMDL
MODEL 3
REMARK VINA RESULT: -6.890957198      6.150      8.635
REMARK  10 active torsions:
REMARK  status: ('A' for Active; 'I' for Inactive)
REMARK    1  A    between atoms: C2_2  and  C3_3 
REMARK    2  A    between atoms: C3_3  and  S1_4 
REMARK    3  A    between atoms: S1_4  and  C4_5 
REMARK    4  A    between atoms: C4_5  and  C5_6 
REMARK    5  A    between atoms: C6_10  and  C7_11 
REMARK    6  A    between atoms: C7_11  and  O1_12 
REMARK    7  A    between atoms: C8_15  and  O3_16 
REMARK    8  A    between atoms: O3_16  and  C9_17 
REMARK    9  A    between atoms: C11_20  and  C13_22 
REMARK   10  A    between atoms: C13_22  and  O5_23 
ROOT
HETATM    1  C5  UNL     1      30.517  14.134   7.991  1.00  0.00     0.161 C 
HETATM    2  N1  UNL     1      30.088  15.196   7.069  1.00  0.00    -0.119 NA
HETATM    3  N2  UNL     1      31.117  15.422   6.127  1.00  0.00    -0.037 NA
HETATM    4  N3  UNL     1      31.263  14.345   5.249  1.00  0.00    -0.096 NA
HETATM    5  C6  UNL     1      32.250  13.383   5.707  1.00  0.00     0.258 C 
HETATM    6  O2  UNL     1      31.840  12.638   6.781  1.00  0.00    -0.335 OA
HETATM    7  C8  UNL     1      30.522  12.869   7.178  1.00  0.00     0.284 C 
ENDROOT
BRANCH   7   8
HETATM    8  O3  UNL     1      30.002  11.766   7.808  1.00  0.00    -0.349 OA
BRANCH   8   9
HETATM    9  C9  UNL     1      30.148  10.592   7.077  1.00  0.00     0.184 C 
HETATM   10  C10 UNL     1      29.419  10.606   5.750  1.00  0.00     0.204 C 
HETATM   11  O4  UNL     1      28.229  10.448   6.499  1.00  0.00    -0.373 OA
HETATM   12  C11 UNL     1      28.988   9.633   7.342  1.00  0.00     0.106 C 
HETATM   13  C12 UNL     1      29.165   8.283   6.694  1.00  0.00     0.051 C 
BRANCH  12  14
HETATM   14  C13 UNL     1      28.533   9.543   8.758  1.00  0.00     0.204 C 
BRANCH  14  15
HETATM   15  O5  UNL     1      27.279   8.906   8.771  1.00  0.00    -0.398 OA
ATOM     16  H5  UNL     1      27.372   8.087   9.244  1.00  0.00     0.209 HD
ENDBRANCH  14  15
ENDBRANCH  12  14
ENDBRANCH   8   9
ENDBRANCH   7   8
BRANCH   1  17
HETATM   17  C4  UNL     1      29.622  14.083   9.186  1.00  0.00     0.101 C 
BRANCH  17  18
HETATM   18  S1  UNL     1      29.845  15.530  10.234  1.00  0.00    -0.167 SA
BRANCH  18  19
HETATM   19  C3  UNL     1      31.580  15.667  10.758  1.00  0.00     0.073 C 
BRANCH  19  20
HETATM   20  C2  UNL     1      32.070  17.096  10.492  1.00  0.00     0.006 C 
HETATM   21  C1  UNL     1      32.538  17.173   9.072  1.00  0.00     0.006 C 
ENDBRANCH  19  20
ENDBRANCH  18  19
ENDBRANCH  17  18
ENDBRANCH   1  17
BRANCH   5  22
HETATM   22  C7  UNL     1      32.615  12.515   4.508  1.00  0.00     0.214 C 
BRANCH  22  23
HETATM   23  O1  UNL     1      31.602  12.576   3.567  1.00  0.00    -0.397 OA
ATOM     24  H1  UNL     1      31.978  12.709   2.704  1.00  0.00     0.209 HD
ENDBRANCH  22  23
ENDBRANCH   5  22
TORSDOF 10
ENDMDL
MODEL 4
REMARK VINA RESULT: -6.841349506      2.676      4.650
REMARK  10 active torsions:
REMARK  status: ('A' for Active; 'I' for Inactive)
REMARK    1  A    between atoms: C2_2  and  C3_3 
REMARK    2  A    between atoms: C3_3  and  S1_4 
REMARK    3  A    between atoms: S1_4  and  C4_5 
REMARK    4  A    between atoms: C4_5  and  C5_6 
REMARK    5  A    between atoms: C6_10  and  C7_11 
REMARK    6  A    between atoms: C7_11  and  O1_12 
REMARK    7  A    between atoms: C8_15  and  O3_16 
REMARK    8  A    between atoms: O3_16  and  C9_17 
REMARK    9  A    between atoms: C11_20  and  C13_22 
REMARK   10  A    between atoms: C13_22  and  O5_23 
ROOT
HETATM    1  C5  UNL     1      31.647  16.902  14.525  1.00  0.00     0.161 C 
HETATM    2  N1  UNL     1      31.662  18.194  13.820  1.00  0.00    -0.119 NA
HETATM    3  N2  UNL     1      32.500  18.083  12.688  1.00  0.00    -0.037 NA
HETATM    4  N3  UNL     1      31.949  17.249  11.711  1.00  0.00    -0.096 NA
HETATM    5  C6  UNL     1      32.384  15.871  11.845  1.00  0.00     0.258 C 
HETATM    6  O2  UNL     1      31.837  15.218  12.919  1.00  0.00    -0.335 OA
HETATM    7  C8  UNL     1      30.891  15.961  13.628  1.00  0.00     0.284 C 
ENDROOT
BRANCH   7   8
HETATM    8  O3  UNL     1      30.002  15.134  14.265  1.00  0.00    -0.349 OA
BRANCH   8   9
HETATM    9  C9  UNL     1      28.976  14.684  13.440  1.00  0.00     0.184 C 
HETATM   10  C10 UNL     1      27.941  15.742  13.123  1.00  0.00     0.204 C 
HETATM   11  O4  UNL     1      27.476  15.562  14.447  1.00  0.00    -0.373 OA
HETATM   12  C11 UNL     1      27.778  14.211  14.262  1.00  0.00     0.106 C 
HETATM   13  C12 UNL     1      26.693  13.574  13.431  1.00  0.00     0.051 C 
BRANCH  12  14
HETATM   14  C13 UNL     1      28.101  13.434  15.491  1.00  0.00     0.204 C 
BRANCH  14  15
HETATM   15  O5  UNL     1      27.238  13.861  16.516  1.00  0.00    -0.398 OA
ATOM     16  H5  UNL     1      27.071  13.120  17.086  1.00  0.00     0.209 HD
ENDBRANCH  14  15
ENDBRANCH  12  14
ENDBRANCH   8   9
ENDBRANCH   7   8
BRANCH   1  17
HETATM   17  C4  UNL     1      31.051  17.054  15.885  1.00  0.00     0.101 C 
BRANCH  17  18
HETATM   18  S1  UNL     1      32.303  17.484  17.106  1.00  0.00    -0.167 SA
BRANCH  18  19
HETATM   19  C3  UNL     1      32.243  19.264  17.468  1.00  0.00     0.073 C 
BRANCH  19  20
HETATM   20  C2  UNL     1      33.124  19.554  18.690  1.00  0.00     0.006 C 
HETATM   21  C1  UNL     1      34.546  19.642  18.230  1.00  0.00     0.006 C 
ENDBRANCH  19  20
ENDBRANCH  18  19
ENDBRANCH  17  18
ENDBRANCH   1  17
BRANCH   5  22
HETATM   22  C7  UNL     1      32.071  15.175  10.526  1.00  0.00     0.214 C 
BRANCH  22  23
HETATM   23  O1  UNL     1      32.755  13.974  10.462  1.00  0.00    -0.397 OA
ATOM     24  H1  UNL     1      32.950  13.767   9.555  1.00  0.00     0.209 HD
ENDBRANCH  22  23
ENDBRANCH   5  22
TORSDOF 10
ENDMDL
MODEL 5
REMARK VINA RESULT: -6.632901539      6.991      9.408
REMARK  10 active torsions:
REMARK  status: ('A' for Active; 'I' for Inactive)
REMARK    1  A    between atoms: C2_2  and  C3_3 
REMARK    2  A    between atoms: C3_3  and  S1_4 
REMARK    3  A    between atoms: S1_4  and  C4_5 
REMARK    4  A    between atoms: C4_5  and  C5_6 
REMARK    5  A    between atoms: C6_10  and  C7_11 
REMARK    6  A    between atoms: C7_11  and  O1_12 
REMARK    7  A    between atoms: C8_15  and  O3_16 
REMARK    8  A    between atoms: O3_16  and  C9_17 
REMARK    9  A    between atoms: C11_20  and  C13_22 
REMARK   10  A    between atoms: C13_22  and  O5_23 
ROOT
HETATM    1  C5  UNL     1      30.742  11.972   5.685  1.00  0.00     0.161 C 
HETATM    2  N1  UNL     1      29.280  12.108   5.769  1.00  0.00    -0.119 NA
HETATM    3  N2  UNL     1      28.725  10.849   6.090  1.00  0.00    -0.037 NA
HETATM    4  N3  UNL     1      29.035  10.461   7.396  1.00  0.00    -0.096 NA
HETATM    5  C6  UNL     1      30.241   9.657   7.467  1.00  0.00     0.258 C 
HETATM    6  O2  UNL     1      31.394  10.365   7.249  1.00  0.00    -0.335 OA
HETATM    7  C8  UNL     1      31.208  11.740   7.096  1.00  0.00     0.284 C 
ENDROOT
BRANCH   7   8
HETATM    8  O3  UNL     1      32.339  12.427   7.459  1.00  0.00    -0.349 OA
BRANCH   8   9
HETATM    9  C9  UNL     1      32.224  13.074   8.685  1.00  0.00     0.184 C 
HETATM   10  C10 UNL     1      31.473  14.386   8.613  1.00  0.00     0.204 C 
HETATM   11  O4  UNL     1      32.633  14.920   8.005  1.00  0.00    -0.373 OA
HETATM   12  C11 UNL     1      33.346  14.093   8.875  1.00  0.00     0.106 C 
HETATM   13  C12 UNL     1      33.363  14.720  10.247  1.00  0.00     0.051 C 
BRANCH  12  14
HETATM   14  C13 UNL     1      34.697  13.662   8.417  1.00  0.00     0.204 C 
BRANCH  14  15
HETATM   15  O5  UNL     1      35.471  14.817   8.199  1.00  0.00    -0.398 OA
ATOM     16  H5  UNL     1      36.386  14.562   8.207  1.00  0.00     0.209 HD
ENDBRANCH  14  15
ENDBRANCH  12  14
ENDBRANCH   8   9
ENDBRANCH   7   8
BRANCH   1  17
HETATM   17  C4  UNL     1      31.344  13.175   5.037  1.00  0.00     0.101 C 
BRANCH  17  18
HETATM   18  S1  UNL     1      32.686  12.719   3.927  1.00  0.00    -0.167 SA
BRANCH  18  19
HETATM   19  C3  UNL     1      34.281  13.262   4.610  1.00  0.00     0.073 C 
BRANCH  19  20
HETATM   20  C2  UNL     1      35.377  13.033   3.562  1.00  0.00     0.006 C 
HETATM   21  C1  UNL     1      36.706  13.195   4.233  1.00  0.00     0.006 C 
ENDBRANCH  19  20
ENDBRANCH  18  19
ENDBRANCH  17  18
ENDBRANCH   1  17
BRANCH   5  22
HETATM   22  C7  UNL     1      30.237   8.966   8.826  1.00  0.00     0.214 C 
BRANCH  22  23
HETATM   23  O1  UNL     1      29.297   7.951   8.826  1.00  0.00    -0.397 OA
ATOM     24  H1  UNL     1      28.992   7.799   9.713  1.00  0.00     0.209 HD
ENDBRANCH  22  23
ENDBRANCH   5  22
TORSDOF 10
ENDMDL
