MODEL 1
REMARK VINA RESULT: -6.268942195      0.000      0.000
REMARK  11 active torsions:
REMARK  status: ('A' for Active; 'I' for Inactive)
REMARK    1  A    between atoms: C2_2  and  N1_3 
REMARK    2  A    between atoms: N1_3  and  C3_5 
REMARK    3  A    between atoms: C4_6  and  O1_7 
REMARK    4  A    between atoms: O1_7  and  C5_8 
REMARK    5  A    between atoms: C7_10  and  O2_11 
REMARK    6  A    between atoms: C8_13  and  C9_14 
REMARK    7  A    between atoms: C9_14  and  O3_15 
REMARK    8  A    between atoms: C10_21  and  C11_22 
REMARK    9  A    between atoms: C11_22  and  S1_23 
REMARK   10  A    between atoms: S1_23  and  C12_24 
REMARK   11  A    between atoms: C14_26  and  O5_27 
ROOT
HETATM    1  C3  UNL     1      30.116  12.660   6.306  1.00  0.00     0.164 C 
HETATM    2  C4  UNL     1      30.300  11.827   7.558  1.00  0.00     0.348 C 
HETATM    3  N2  UNL     1      31.218  12.578   8.392  1.00  0.00    -0.039 N 
ATOM      4  H21 UNL     1      32.198  12.345   8.233  1.00  0.00     0.280 HD
ATOM      5  H22 UNL     1      31.187  12.311   9.376  1.00  0.00     0.280 HD
HETATM    6  C10 UNL     1      30.911  13.974   8.162  1.00  0.00     0.228 C 
HETATM    7  C14 UNL     1      30.371  14.069   6.762  1.00  0.00     0.176 C 
ENDROOT
BRANCH   2   8
HETATM    8  O1  UNL     1      30.727  10.582   7.197  1.00  0.00    -0.327 OA
BRANCH   8   9
HETATM    9  C5  UNL     1      29.967   9.543   7.669  1.00  0.00     0.265 C 
HETATM   10  C6  UNL     1      29.300   8.858   6.515  1.00  0.00     0.095 C 
HETATM   11  C7  UNL     1      27.833   8.904   6.870  1.00  0.00     0.154 C 
HETATM   12  C8  UNL     1      27.870   9.197   8.341  1.00  0.00     0.177 C 
HETATM   13  O4  UNL     1      28.965  10.041   8.489  1.00  0.00    -0.351 OA
BRANCH  11  14
HETATM   14  O2  UNL     1      27.185   7.707   6.582  1.00  0.00    -0.393 OA
ATOM     15  H2  UNL     1      26.576   7.794   5.858  1.00  0.00     0.210 HD
ENDBRANCH  11  14
BRANCH  12  16
HETATM   16  C9  UNL     1      26.586   9.851   8.800  1.00  0.00     0.198 C 
BRANCH  16  17
HETATM   17  O3  UNL     1      25.781  10.156   7.704  1.00  0.00    -0.398 OA
ATOM     18  H3  UNL     1      25.184  10.862   7.921  1.00  0.00     0.209 HD
ENDBRANCH  16  17
ENDBRANCH  12  16
ENDBRANCH   8   9
ENDBRANCH   2   8
BRANCH   1  19
HETATM   19  N1  UNL     1      30.863  12.192   5.217  1.00  0.00    -0.411 N 
ATOM     20  H1  UNL     1      31.875  12.101   5.303  1.00  0.00     0.153 HD
BRANCH  19  21
HETATM   21  C2  UNL     1      30.240  11.847   4.011  1.00  0.00     0.110 C 
HETATM   22  C1  UNL     1      31.075  10.720   3.374  1.00  0.00     0.026 C 
ENDBRANCH  19  21
ENDBRANCH   1  19
BRANCH   7  23
HETATM   23  O5  UNL     1      31.139  14.828   5.908  1.00  0.00    -0.391 OA
ATOM     24  H5  UNL     1      30.953  15.760   5.921  1.00  0.00     0.210 HD
ENDBRANCH   7  23
BRANCH   6  25
HETATM   25  C11 UNL     1      29.883  14.494   9.139  1.00  0.00     0.109 C 
BRANCH  25  26
HETATM   26  S1  UNL     1      30.436  15.943  10.035  1.00  0.00    -0.167 SA
BRANCH  26  27
HETATM   27  C12 UNL     1      32.190  16.202   9.652  1.00  0.00     0.069 C 
HETATM   28  C13 UNL     1      32.466  17.647   9.289  1.00  0.00     0.016 C 
ENDBRANCH  26  27
ENDBRANCH  25  26
ENDBRANCH   6  25
TORSDOF 11
ENDMDL
MODEL 2
REMARK VINA RESULT: -6.169933610      3.360      5.967
REMARK  11 active torsions:
REMARK  status: ('A' for Active; 'I' for Inactive)
REMARK    1  A    between atoms: C2_2  and  N1_3 
REMARK    2  A    between atoms: N1_3  and  C3_5 
REMARK    3  A    between atoms: C4_6  and  O1_7 
REMARK    4  A    between atoms: O1_7  and  C5_8 
REMARK    5  A    between atoms: C7_10  and  O2_11 
REMARK    6  A    between atoms: C8_13  and  C9_14 
REMARK    7  A    between atoms: C9_14  and  O3_15 
REMARK    8  A    between atoms: C10_21  and  C11_22 
REMARK    9  A    between atoms: C11_22  and  S1_23 
REMARK   10  A    between atoms: S1_23  and  C12_24 
REMARK   11  A    between atoms: C14_26  and  O5_27 
ROOT
HETATM    1  C3  UNL     1      31.827  12.286   4.908  1.00  0.00     0.164 C 
HETATM    2  C4  UNL     1      30.830  12.991   5.807  1.00  0.00     0.348 C 
HETATM    3  N2  UNL     1      29.534  12.447   5.449  1.00  0.00    -0.039 N 
ATOM      4  H21 UNL     1      29.062  12.969   4.711  1.00  0.00     0.280 HD
ATOM      5  H22 UNL     1      28.823  12.581   6.168  1.00  0.00     0.280 HD
HETATM    6  C10 UNL     1      29.765  11.057   5.117  1.00  0.00     0.228 C 
HETATM    7  C14 UNL     1      31.174  10.968   4.599  1.00  0.00     0.176 C 
ENDROOT
BRANCH   2   8
HETATM    8  O1  UNL     1      30.963  14.338   5.637  1.00  0.00    -0.327 OA
BRANCH   8   9
HETATM    9  C5  UNL     1      31.078  15.066   6.794  1.00  0.00     0.265 C 
HETATM   10  C6  UNL     1      32.073  14.401   7.695  1.00  0.00     0.095 C 
HETATM   11  C7  UNL     1      31.303  14.183   8.978  1.00  0.00     0.154 C 
HETATM   12  C8  UNL     1      30.143  15.120   8.816  1.00  0.00     0.177 C 
HETATM   13  O4  UNL     1      29.859  15.073   7.456  1.00  0.00    -0.351 OA
BRANCH  11  14
HETATM   14  O2  UNL     1      32.067  14.472  10.104  1.00  0.00    -0.393 OA
ATOM     15  H2  UNL     1      32.225  13.701  10.637  1.00  0.00     0.210 HD
ENDBRANCH  11  14
BRANCH  12  16
HETATM   16  C9  UNL     1      28.964  14.678   9.655  1.00  0.00     0.198 C 
BRANCH  16  17
HETATM   17  O3  UNL     1      29.155  15.042  10.985  1.00  0.00    -0.398 OA
ATOM     18  H3  UNL     1      29.091  14.279  11.548  1.00  0.00     0.209 HD
ENDBRANCH  16  17
ENDBRANCH  12  16
ENDBRANCH   8   9
ENDBRANCH   2   8
BRANCH   1  19
HETATM   19  N1  UNL     1      32.241  13.069   3.823  1.00  0.00    -0.411 N 
ATOM     20  H1  UNL     1      31.544  13.551   3.256  1.00  0.00     0.153 HD
BRANCH  19  21
HETATM   21  C2  UNL     1      33.599  13.199   3.505  1.00  0.00     0.110 C 
HETATM   22  C1  UNL     1      34.381  13.168   4.832  1.00  0.00     0.026 C 
ENDBRANCH  19  21
ENDBRANCH   1  19
BRANCH   7  23
HETATM   23  O5  UNL     1      31.271  10.564   3.287  1.00  0.00    -0.391 OA
ATOM     24  H5  UNL     1      32.149  10.346   2.996  1.00  0.00     0.210 HD
ENDBRANCH   7  23
BRANCH   6  25
HETATM   25  C11 UNL     1      29.609  10.156   6.320  1.00  0.00     0.109 C 
BRANCH  25  26
HETATM   26  S1  UNL     1      29.336   8.441   5.881  1.00  0.00    -0.167 SA
BRANCH  26  27
HETATM   27  C12 UNL     1      27.699   7.960   6.497  1.00  0.00     0.069 C 
HETATM   28  C13 UNL     1      26.947   9.153   7.052  1.00  0.00     0.016 C 
ENDBRANCH  26  27
ENDBRANCH  25  26
ENDBRANCH   6  25
TORSDOF 11
ENDMDL
MODEL 3
REMARK VINA RESULT: -6.144662972      3.565      6.941
REMARK  11 active torsions:
REMARK  status: ('A' for Active; 'I' for Inactive)
REMARK    1  A    between atoms: C2_2  and  N1_3 
REMARK    2  A    between atoms: N1_3  and  C3_5 
REMARK    3  A    between atoms: C4_6  and  O1_7 
REMARK    4  A    between atoms: O1_7  and  C5_8 
REMARK    5  A    between atoms: C7_10  and  O2_11 
REMARK    6  A    between atoms: C8_13  and  C9_14 
REMARK    7  A    between atoms: C9_14  and  O3_15 
REMARK    8  A    between atoms: C10_21  and  C11_22 
REMARK    9  A    between atoms: C11_22  and  S1_23 
REMARK   10  A    between atoms: S1_23  and  C12_24 
REMARK   11  A    between atoms: C14_26  and  O5_27 
ROOT
HETATM    1  C3  UNL     1      32.977  12.501   7.132  1.00  0.00     0.164 C 
HETATM    2  C4  UNL     1      32.204  12.920   8.367  1.00  0.00     0.348 C 
HETATM    3  N2  UNL     1      30.834  13.098   7.925  1.00  0.00    -0.039 N 
ATOM      4  H21 UNL     1      30.626  14.047   7.615  1.00  0.00     0.280 HD
ATOM      5  H22 UNL     1      30.154  13.065   8.683  1.00  0.00     0.280 HD
HETATM    6  C10 UNL     1      30.613  12.095   6.905  1.00  0.00     0.228 C 
HETATM    7  C14 UNL     1      31.948  11.832   6.264  1.00  0.00     0.176 C 
ENDROOT
BRANCH   2   8
HETATM    8  O1  UNL     1      32.794  14.030   8.898  1.00  0.00    -0.327 OA
BRANCH   8   9
HETATM    9  C5  UNL     1      31.929  14.993   9.350  1.00  0.00     0.265 C 
HETATM   10  C6  UNL     1      32.537  16.344   9.127  1.00  0.00     0.095 C 
HETATM   11  C7  UNL     1      32.526  16.972  10.501  1.00  0.00     0.154 C 
HETATM   12  C8  UNL     1      31.539  16.115  11.237  1.00  0.00     0.177 C 
HETATM   13  O4  UNL     1      31.747  14.841  10.717  1.00  0.00    -0.351 OA
BRANCH  11  14
HETATM   14  O2  UNL     1      32.145  18.309  10.464  1.00  0.00    -0.393 OA
ATOM     15  H2  UNL     1      31.633  18.515   9.691  1.00  0.00     0.210 HD
ENDBRANCH  11  14
BRANCH  12  16
HETATM   16  C9  UNL     1      31.780  16.162  12.729  1.00  0.00     0.198 C 
BRANCH  16  17
HETATM   17  O3  UNL     1      32.110  17.457  13.124  1.00  0.00    -0.398 OA
ATOM     18  H3  UNL     1      32.655  17.435  13.901  1.00  0.00     0.209 HD
ENDBRANCH  16  17
ENDBRANCH  12  16
ENDBRANCH   8   9
ENDBRANCH   2   8
BRANCH   1  19
HETATM   19  N1  UNL     1      33.717  13.546   6.563  1.00  0.00    -0.411 N 
ATOM     20  H1  UNL     1      33.258  14.436   6.365  1.00  0.00     0.153 HD
BRANCH  19  21
HETATM   21  C2  UNL     1      35.075  13.387   6.264  1.00  0.00     0.110 C 
HETATM   22  C1  UNL     1      35.869  14.181   7.318  1.00  0.00     0.026 C 
ENDBRANCH  19  21
ENDBRANCH   1  19
BRANCH   7  23
HETATM   23  O5  UNL     1      32.011  12.159   4.929  1.00  0.00    -0.391 OA
ATOM     24  H5  UNL     1      31.190  12.445   4.545  1.00  0.00     0.210 HD
ENDBRANCH   7  23
BRANCH   6  25
HETATM   25  C11 UNL     1      30.068  10.811   7.485  1.00  0.00     0.109 C 
BRANCH  25  26
HETATM   26  S1  UNL     1      29.210   9.804   6.278  1.00  0.00    -0.167 SA
BRANCH  26  27
HETATM   27  C12 UNL     1      27.649   9.252   7.017  1.00  0.00     0.069 C 
HETATM   28  C13 UNL     1      27.708   9.301   8.530  1.00  0.00     0.016 C 
ENDBRANCH  26  27
ENDBRANCH  25  26
ENDBRANCH   6  25
TORSDOF 11
ENDMDL
MODEL 4
REMARK VINA RESULT: -6.134787352      3.668      6.829
REMARK  11 active torsions:
REMARK  status: ('A' for Active; 'I' for Inactive)
REMARK    1  A    between atoms: C2_2  and  N1_3 
REMARK    2  A    between atoms: N1_3  and  C3_5 
REMARK    3  A    between atoms: C4_6  and  O1_7 
REMARK    4  A    between atoms: O1_7  and  C5_8 
REMARK    5  A    between atoms: C7_10  and  O2_11 
REMARK    6  A    between atoms: C8_13  and  C9_14 
REMARK    7  A    between atoms: C9_14  and  O3_15 
REMARK    8  A    between atoms: C10_21  and  C11_22 
REMARK    9  A    between atoms: C11_22  and  S1_23 
REMARK   10  A    between atoms: S1_23  and  C12_24 
REMARK   11  A    between atoms: C14_26  and  O5_27 
ROOT
HETATM    1  C3  UNL     1      33.010  12.494   7.082  1.00  0.00     0.164 C 
HETATM    2  C4  UNL     1      32.094  12.855   8.233  1.00  0.00     0.348 C 
HETATM    3  N2  UNL     1      30.833  13.231   7.622  1.00  0.00    -0.039 N 
ATOM      4  H21 UNL     1      30.764  14.226   7.408  1.00  0.00     0.280 HD
ATOM      5  H22 UNL     1      30.041  13.188   8.263  1.00  0.00     0.280 HD
HETATM    6  C10 UNL     1      30.685  12.378   6.462  1.00  0.00     0.228 C 
HETATM    7  C14 UNL     1      32.074  12.044   5.995  1.00  0.00     0.176 C 
ENDROOT
BRANCH   2   8
HETATM    8  O1  UNL     1      32.691  13.828   8.981  1.00  0.00    -0.327 OA
BRANCH   8   9
HETATM    9  C5  UNL     1      31.856  14.820   9.427  1.00  0.00     0.265 C 
HETATM   10  C6  UNL     1      32.421  16.151   9.036  1.00  0.00     0.095 C 
HETATM   11  C7  UNL     1      32.525  16.895  10.346  1.00  0.00     0.154 C 
HETATM   12  C8  UNL     1      31.621  16.097  11.239  1.00  0.00     0.177 C 
HETATM   13  O4  UNL     1      31.801  14.785  10.813  1.00  0.00    -0.351 OA
BRANCH  11  14
HETATM   14  O2  UNL     1      32.122  18.221  10.231  1.00  0.00    -0.393 OA
ATOM     15  H2  UNL     1      31.182  18.321  10.333  1.00  0.00     0.210 HD
ENDBRANCH  11  14
BRANCH  12  16
HETATM   16  C9  UNL     1      31.996  16.275  12.694  1.00  0.00     0.198 C 
BRANCH  16  17
HETATM   17  O3  UNL     1      32.195  17.623  12.980  1.00  0.00    -0.398 OA
ATOM     18  H3  UNL     1      31.677  17.880  13.733  1.00  0.00     0.209 HD
ENDBRANCH  16  17
ENDBRANCH  12  16
ENDBRANCH   8   9
ENDBRANCH   2   8
BRANCH   1  19
HETATM   19  N1  UNL     1      33.923  13.509   6.764  1.00  0.00    -0.411 N 
ATOM     20  H1  UNL     1      33.587  14.462   6.629  1.00  0.00     0.153 HD
BRANCH  19  21
HETATM   21  C2  UNL     1      35.289  13.233   6.629  1.00  0.00     0.110 C 
HETATM   22  C1  UNL     1      36.051  14.310   7.424  1.00  0.00     0.026 C 
ENDBRANCH  19  21
ENDBRANCH   1  19
BRANCH   7  23
HETATM   23  O5  UNL     1      32.377  12.508   4.736  1.00  0.00    -0.391 OA
ATOM     24  H5  UNL     1      31.938  12.057   4.024  1.00  0.00     0.210 HD
ENDBRANCH   7  23
BRANCH   6  25
HETATM   25  C11 UNL     1      29.939  11.106   6.790  1.00  0.00     0.109 C 
BRANCH  25  26
HETATM   26  S1  UNL     1      30.786   9.632   6.224  1.00  0.00    -0.167 SA
BRANCH  26  27
HETATM   27  C12 UNL     1      31.311   8.693   7.684  1.00  0.00     0.069 C 
HETATM   28  C13 UNL     1      30.840   9.355   8.963  1.00  0.00     0.016 C 
ENDBRANCH  26  27
ENDBRANCH  25  26
ENDBRANCH   6  25
TORSDOF 11
ENDMDL
MODEL 5
REMARK VINA RESULT: -6.083740061      3.382      6.817
REMARK  11 active torsions:
REMARK  status: ('A' for Active; 'I' for Inactive)
REMARK    1  A    between atoms: C2_2  and  N1_3 
REMARK    2  A    between atoms: N1_3  and  C3_5 
REMARK    3  A    between atoms: C4_6  and  O1_7 
REMARK    4  A    between atoms: O1_7  and  C5_8 
REMARK    5  A    between atoms: C7_10  and  O2_11 
REMARK    6  A    between atoms: C8_13  and  C9_14 
REMARK    7  A    between atoms: C9_14  and  O3_15 
REMARK    8  A    between atoms: C10_21  and  C11_22 
REMARK    9  A    between atoms: C11_22  and  S1_23 
REMARK   10  A    between atoms: S1_23  and  C12_24 
REMARK   11  A    between atoms: C14_26  and  O5_27 
ROOT
HETATM    1  C3  UNL     1      32.737  12.342   7.017  1.00  0.00     0.164 C 
HETATM    2  C4  UNL     1      32.229  12.891   8.335  1.00  0.00     0.348 C 
HETATM    3  N2  UNL     1      30.789  12.720   8.298  1.00  0.00    -0.039 N 
ATOM      4  H21 UNL     1      30.293  13.520   7.906  1.00  0.00     0.280 HD
ATOM      5  H22 UNL     1      30.352  12.743   9.219  1.00  0.00     0.280 HD
HETATM    6  C10 UNL     1      30.555  11.486   7.578  1.00  0.00     0.228 C 
HETATM    7  C14 UNL     1      31.706  11.321   6.623  1.00  0.00     0.176 C 
ENDROOT
BRANCH   2   8
HETATM    8  O1  UNL     1      32.659  14.180   8.467  1.00  0.00    -0.327 OA
BRANCH   8   9
HETATM    9  C5  UNL     1      31.790  15.023   9.111  1.00  0.00     0.265 C 
HETATM   10  C6  UNL     1      32.211  16.440   8.869  1.00  0.00     0.095 C 
HETATM   11  C7  UNL     1      32.370  17.009  10.260  1.00  0.00     0.154 C 
HETATM   12  C8  UNL     1      31.615  16.020  11.098  1.00  0.00     0.177 C 
HETATM   13  O4  UNL     1      31.860  14.799  10.479  1.00  0.00    -0.351 OA
BRANCH  11  14
HETATM   14  O2  UNL     1      31.855  18.297  10.364  1.00  0.00    -0.393 OA
ATOM     15  H2  UNL     1      32.203  18.763  11.116  1.00  0.00     0.210 HD
ENDBRANCH  11  14
BRANCH  12  16
HETATM   16  C9  UNL     1      32.101  16.034  12.530  1.00  0.00     0.198 C 
BRANCH  16  17
HETATM   17  O3  UNL     1      32.175  17.342  13.002  1.00  0.00    -0.398 OA
ATOM     18  H3  UNL     1      32.103  17.355  13.949  1.00  0.00     0.209 HD
ENDBRANCH  16  17
ENDBRANCH  12  16
ENDBRANCH   8   9
ENDBRANCH   2   8
BRANCH   1  19
HETATM   19  N1  UNL     1      33.041  13.341   6.083  1.00  0.00    -0.411 N 
ATOM     20  H1  UNL     1      32.388  14.111   5.941  1.00  0.00     0.153 HD
BRANCH  19  21
HETATM   21  C2  UNL     1      34.229  13.297   5.343  1.00  0.00     0.110 C 
HETATM   22  C1  UNL     1      35.393  13.294   6.351  1.00  0.00     0.026 C 
ENDBRANCH  19  21
ENDBRANCH   1  19
BRANCH   7  23
HETATM   23  O5  UNL     1      31.348  11.337   5.295  1.00  0.00    -0.391 OA
ATOM     24  H5  UNL     1      30.639  11.931   5.076  1.00  0.00     0.210 HD
ENDBRANCH   7  23
BRANCH   6  25
HETATM   25  C11 UNL     1      30.492  10.295   8.506  1.00  0.00     0.109 C 
BRANCH  25  26
HETATM   26  S1  UNL     1      28.953   9.388   8.378  1.00  0.00    -0.167 SA
BRANCH  26  27
HETATM   27  C12 UNL     1      28.409   9.448   6.649  1.00  0.00     0.069 C 
HETATM   28  C13 UNL     1      29.192   8.473   5.792  1.00  0.00     0.016 C 
ENDBRANCH  26  27
ENDBRANCH  25  26
ENDBRANCH   6  25
TORSDOF 11
ENDMDL
