MODEL 1
REMARK VINA RESULT: -7.718153073      0.000      0.000
REMARK  13 active torsions:
REMARK  status: ('A' for Active; 'I' for Inactive)
REMARK    1  A    between atoms: N1_1  and  N2_4 
REMARK    2  A    between atoms: N2_4  and  N3_5 
REMARK    3  A    between atoms: N3_5  and  C1_7 
REMARK    4  A    between atoms: C4_10  and  C5_11 
REMARK    5  A    between atoms: C5_11  and  N4_12 
REMARK    6  A    between atoms: C6_17  and  O2_18 
REMARK    7  A    between atoms: O2_18  and  C7_19 
REMARK    8  A    between atoms: C7_19  and  C8_20 
REMARK    9  A    between atoms: C9_22  and  C10_23 
REMARK   10  A    between atoms: C10_23  and  O4_24 
REMARK   11  A    between atoms: C11_26  and  C12_27 
REMARK   12  A    between atoms: C12_27  and  O5_28 
REMARK   13  A    between atoms: C13_33  and  N6_34 
ROOT
HETATM    1  C7  UNL     1      32.151  16.214  12.118  1.00  0.00     0.207 C 
ENDROOT
BRANCH   1   2
HETATM    2  O2  UNL     1      31.121  16.640  12.953  1.00  0.00    -0.356 OA
BRANCH   2   3
HETATM    3  C6  UNL     1      30.990  15.827  14.077  1.00  0.00     0.285 C 
HETATM    4  C1  UNL     1      30.847  16.624  15.336  1.00  0.00     0.169 C 
HETATM    5  C2  UNL     1      29.611  16.275  16.125  1.00  0.00     0.035 C 
HETATM    6  C3  UNL     1      28.470  16.228  15.165  1.00  0.00     0.036 C 
HETATM    7  C4  UNL     1      28.739  15.206  14.128  1.00  0.00     0.150 C 
HETATM    8  O1  UNL     1      30.014  14.913  13.833  1.00  0.00    -0.352 OA
BRANCH   4   9
HETATM    9  N3  UNL     1      31.974  16.470  16.237  1.00  0.00    -0.243 N 
ATOM     10  H3  UNL     1      32.478  15.584  16.283  1.00  0.00     0.197 HD
BRANCH   9  11
HETATM   11  N2  UNL     1      32.317  17.417  16.949  1.00  0.00    -0.248 NA
BRANCH  11  12
HETATM   12  N1  UNL     1      32.670  18.426  17.541  1.00  0.00    -0.261 N 
ATOM     13  H12 UNL     1      33.245  18.560  16.710  1.00  0.00     0.193 HD
ATOM     14  H11 UNL     1      32.896  19.238  18.118  1.00  0.00     0.193 HD
ENDBRANCH  11  12
ENDBRANCH   9  11
ENDBRANCH   4   9
BRANCH   7  15
HETATM   15  C5  UNL     1      28.023  13.886  14.460  1.00  0.00     0.261 C 
BRANCH  15  16
HETATM   16  N4  UNL     1      26.805  13.734  13.727  1.00  0.00    -0.077 N 
ATOM     17  H43 UNL     1      26.096  13.257  14.284  1.00  0.00     0.274 HD
ATOM     18  H42 UNL     1      26.335  14.631  13.601  1.00  0.00     0.274 HD
ATOM     19  H41 UNL     1      26.949  13.264  12.833  1.00  0.00     0.274 HD
ENDBRANCH  15  16
ENDBRANCH   7  15
ENDBRANCH   2   3
ENDBRANCH   1   2
BRANCH   1  20
HETATM   20  C8  UNL     1      31.907  16.623  10.680  1.00  0.00     0.204 C 
HETATM   21  O3  UNL     1      32.950  16.267   9.900  1.00  0.00    -0.370 OA
HETATM   22  C9  UNL     1      32.830  15.284   8.999  1.00  0.00     0.178 C 
HETATM   23  C11 UNL     1      31.465  14.903   8.560  1.00  0.00     0.242 C 
HETATM   24  N5  UNL     1      30.604  16.081   8.747  1.00  0.00    -0.035 N 
HETATM   25  C13 UNL     1      30.545  16.259  10.188  1.00  0.00     0.411 C 
ATOM     26  H52 UNL     1      30.912  16.909   8.237  1.00  0.00     0.280 HD
ATOM     27  H51 UNL     1      29.691  16.007   8.299  1.00  0.00     0.280 HD
BRANCH  22  28
HETATM   28  C10 UNL     1      33.589  14.049   9.503  1.00  0.00     0.198 C 
BRANCH  28  29
HETATM   29  O4  UNL     1      34.887  14.053   8.994  1.00  0.00    -0.398 OA
ATOM     30  H4  UNL     1      35.510  14.179   9.700  1.00  0.00     0.209 HD
ENDBRANCH  28  29
ENDBRANCH  22  28
BRANCH  23  31
HETATM   31  C12 UNL     1      31.395  14.443   7.120  1.00  0.00     0.199 C 
BRANCH  31  32
HETATM   32  O5  UNL     1      30.704  15.426   6.411  1.00  0.00    -0.399 OA
ATOM     33  H5  UNL     1      30.117  14.977   5.812  1.00  0.00     0.209 HD
ENDBRANCH  31  32
ENDBRANCH  23  31
BRANCH  25  34
HETATM   34  N6  UNL     1      29.986  15.079  10.755  1.00  0.00    -0.048 N 
ATOM     35  H63 UNL     1      30.537  14.265  10.482  1.00  0.00     0.276 HD
ATOM     36  H62 UNL     1      30.138  15.069  11.764  1.00  0.00     0.276 HD
ATOM     37  H61 UNL     1      29.000  14.919  10.548  1.00  0.00     0.276 HD
ENDBRANCH  25  34
ENDBRANCH   1  20
TORSDOF 13
ENDMDL
MODEL 2
REMARK VINA RESULT: -7.543632686      1.676      2.194
REMARK  13 active torsions:
REMARK  status: ('A' for Active; 'I' for Inactive)
REMARK    1  A    between atoms: N1_1  and  N2_4 
REMARK    2  A    between atoms: N2_4  and  N3_5 
REMARK    3  A    between atoms: N3_5  and  C1_7 
REMARK    4  A    between atoms: C4_10  and  C5_11 
REMARK    5  A    between atoms: C5_11  and  N4_12 
REMARK    6  A    between atoms: C6_17  and  O2_18 
REMARK    7  A    between atoms: O2_18  and  C7_19 
REMARK    8  A    between atoms: C7_19  and  C8_20 
REMARK    9  A    between atoms: C9_22  and  C10_23 
REMARK   10  A    between atoms: C10_23  and  O4_24 
REMARK   11  A    between atoms: C11_26  and  C12_27 
REMARK   12  A    between atoms: C12_27  and  O5_28 
REMARK   13  A    between atoms: C13_33  and  N6_34 
ROOT
HETATM    1  C7  UNL     1      31.923  16.576  11.884  1.00  0.00     0.207 C 
ENDROOT
BRANCH   1   2
HETATM    2  O2  UNL     1      30.681  16.249  12.422  1.00  0.00    -0.356 OA
BRANCH   2   3
HETATM    3  C6  UNL     1      30.784  15.812  13.742  1.00  0.00     0.285 C 
HETATM    4  C1  UNL     1      30.609  16.930  14.722  1.00  0.00     0.169 C 
HETATM    5  C2  UNL     1      29.519  16.671  15.730  1.00  0.00     0.035 C 
HETATM    6  C3  UNL     1      28.329  16.173  14.981  1.00  0.00     0.036 C 
HETATM    7  C4  UNL     1      28.685  14.929  14.261  1.00  0.00     0.150 C 
HETATM    8  O1  UNL     1      29.963  14.741  13.902  1.00  0.00    -0.352 OA
BRANCH   4   9
HETATM    9  N3  UNL     1      31.814  17.219  15.476  1.00  0.00    -0.243 N 
ATOM     10  H3  UNL     1      32.693  16.762  15.235  1.00  0.00     0.197 HD
BRANCH   9  11
HETATM   11  N2  UNL     1      31.768  18.023  16.411  1.00  0.00    -0.248 NA
BRANCH  11  12
HETATM   12  N1  UNL     1      31.853  18.799  17.351  1.00  0.00    -0.261 N 
ATOM     13  H12 UNL     1      32.641  19.162  16.815  1.00  0.00     0.193 HD
ATOM     14  H11 UNL     1      31.836  19.395  18.179  1.00  0.00     0.193 HD
ENDBRANCH  11  12
ENDBRANCH   9  11
ENDBRANCH   4   9
BRANCH   7  15
HETATM   15  C5  UNL     1      28.236  13.690  15.052  1.00  0.00     0.261 C 
BRANCH  15  16
HETATM   16  N4  UNL     1      29.080  13.431  16.177  1.00  0.00    -0.077 N 
ATOM     17  H43 UNL     1      29.644  12.594  16.031  1.00  0.00     0.274 HD
ATOM     18  H42 UNL     1      29.829  14.122  16.242  1.00  0.00     0.274 HD
ATOM     19  H41 UNL     1      28.554  13.374  17.049  1.00  0.00     0.274 HD
ENDBRANCH  15  16
ENDBRANCH   7  15
ENDBRANCH   2   3
ENDBRANCH   1   2
BRANCH   1  20
HETATM   20  C8  UNL     1      32.399  15.523  10.904  1.00  0.00     0.204 C 
HETATM   21  O3  UNL     1      31.420  14.627  10.655  1.00  0.00    -0.370 OA
HETATM   22  C9  UNL     1      30.814  14.586   9.461  1.00  0.00     0.178 C 
HETATM   23  C11 UNL     1      31.506  15.206   8.305  1.00  0.00     0.242 C 
HETATM   24  N5  UNL     1      32.948  15.183   8.599  1.00  0.00    -0.035 N 
HETATM   25  C13 UNL     1      33.102  16.097   9.718  1.00  0.00     0.411 C 
ATOM     26  H52 UNL     1      33.325  14.250   8.767  1.00  0.00     0.280 HD
ATOM     27  H51 UNL     1      33.541  15.402   7.799  1.00  0.00     0.280 HD
BRANCH  22  28
HETATM   28  C10 UNL     1      29.397  15.159   9.602  1.00  0.00     0.198 C 
BRANCH  28  29
HETATM   29  O4  UNL     1      28.874  14.825  10.850  1.00  0.00    -0.398 OA
ATOM     30  H4  UNL     1      28.130  15.382  11.047  1.00  0.00     0.209 HD
ENDBRANCH  28  29
ENDBRANCH  22  28
BRANCH  23  31
HETATM   31  C12 UNL     1      31.242  14.506   6.990  1.00  0.00     0.199 C 
BRANCH  31  32
HETATM   32  O5  UNL     1      30.810  15.480   6.089  1.00  0.00    -0.399 OA
ATOM     33  H5  UNL     1      30.055  15.906   6.480  1.00  0.00     0.209 HD
ENDBRANCH  31  32
ENDBRANCH  23  31
BRANCH  25  34
HETATM   34  N6  UNL     1      32.650  17.382   9.303  1.00  0.00    -0.048 N 
ATOM     35  H63 UNL     1      33.168  18.111   9.795  1.00  0.00     0.276 HD
ATOM     36  H62 UNL     1      32.948  17.565   8.345  1.00  0.00     0.276 HD
ATOM     37  H61 UNL     1      31.648  17.543   9.395  1.00  0.00     0.276 HD
ENDBRANCH  25  34
ENDBRANCH   1  20
TORSDOF 13
ENDMDL
MODEL 3
REMARK VINA RESULT: -7.308407065      2.070      7.090
REMARK  13 active torsions:
REMARK  status: ('A' for Active; 'I' for Inactive)
REMARK    1  A    between atoms: N1_1  and  N2_4 
REMARK    2  A    between atoms: N2_4  and  N3_5 
REMARK    3  A    between atoms: N3_5  and  C1_7 
REMARK    4  A    between atoms: C4_10  and  C5_11 
REMARK    5  A    between atoms: C5_11  and  N4_12 
REMARK    6  A    between atoms: C6_17  and  O2_18 
REMARK    7  A    between atoms: O2_18  and  C7_19 
REMARK    8  A    between atoms: C7_19  and  C8_20 
REMARK    9  A    between atoms: C9_22  and  C10_23 
REMARK   10  A    between atoms: C10_23  and  O4_24 
REMARK   11  A    between atoms: C11_26  and  C12_27 
REMARK   12  A    between atoms: C12_27  and  O5_28 
REMARK   13  A    between atoms: C13_33  and  N6_34 
ROOT
HETATM    1  C7  UNL     1      31.816  15.954  13.341  1.00  0.00     0.207 C 
ENDROOT
BRANCH   1   2
HETATM    2  O2  UNL     1      31.791  16.593  12.103  1.00  0.00    -0.356 OA
BRANCH   2   3
HETATM    3  C6  UNL     1      31.415  15.727  11.078  1.00  0.00     0.285 C 
HETATM    4  C1  UNL     1      30.871  16.461   9.891  1.00  0.00     0.169 C 
HETATM    5  C2  UNL     1      31.589  16.131   8.608  1.00  0.00     0.035 C 
HETATM    6  C3  UNL     1      33.052  16.194   8.888  1.00  0.00     0.036 C 
HETATM    7  C4  UNL     1      33.394  15.217   9.947  1.00  0.00     0.150 C 
HETATM    8  O1  UNL     1      32.448  14.878  10.834  1.00  0.00    -0.352 OA
BRANCH   4   9
HETATM    9  N3  UNL     1      29.462  16.201   9.660  1.00  0.00    -0.243 N 
ATOM     10  H3  UNL     1      28.808  16.976   9.552  1.00  0.00     0.197 HD
BRANCH   9  11
HETATM   11  N2  UNL     1      29.062  15.036   9.595  1.00  0.00    -0.248 NA
BRANCH  11  12
HETATM   12  N1  UNL     1      28.736  13.859   9.642  1.00  0.00    -0.261 N 
ATOM     13  H12 UNL     1      29.575  13.781  10.216  1.00  0.00     0.193 HD
ATOM     14  H11 UNL     1      28.377  12.904   9.617  1.00  0.00     0.193 HD
ENDBRANCH  11  12
ENDBRANCH   9  11
ENDBRANCH   4   9
BRANCH   7  15
HETATM   15  C5  UNL     1      33.949  13.920   9.338  1.00  0.00     0.261 C 
BRANCH  15  16
HETATM   16  N4  UNL     1      35.105  14.153   8.530  1.00  0.00    -0.077 N 
ATOM     17  H43 UNL     1      35.745  14.806   8.981  1.00  0.00     0.274 HD
ATOM     18  H42 UNL     1      35.707  13.330   8.500  1.00  0.00     0.274 HD
ATOM     19  H41 UNL     1      34.862  14.466   7.590  1.00  0.00     0.274 HD
ENDBRANCH  15  16
ENDBRANCH   7  15
ENDBRANCH   2   3
ENDBRANCH   1   2
BRANCH   1  20
HETATM   20  C8  UNL     1      30.914  16.647  14.342  1.00  0.00     0.204 C 
HETATM   21  O3  UNL     1      29.631  16.622  13.924  1.00  0.00    -0.370 OA
HETATM   22  C9  UNL     1      28.719  15.865  14.550  1.00  0.00     0.178 C 
HETATM   23  C11 UNL     1      29.014  15.418  15.933  1.00  0.00     0.242 C 
HETATM   24  N5  UNL     1      29.946  16.396  16.517  1.00  0.00    -0.035 N 
HETATM   25  C13 UNL     1      31.170  16.228  15.752  1.00  0.00     0.411 C 
ATOM     26  H52 UNL     1      29.591  17.352  16.532  1.00  0.00     0.280 HD
ATOM     27  H51 UNL     1      30.068  16.305  17.525  1.00  0.00     0.280 HD
BRANCH  22  28
HETATM   28  C10 UNL     1      28.378  14.660  13.662  1.00  0.00     0.198 C 
BRANCH  28  29
HETATM   29  O4  UNL     1      28.170  15.083  12.351  1.00  0.00    -0.398 OA
ATOM     30  H4  UNL     1      29.005  15.237  11.925  1.00  0.00     0.209 HD
ENDBRANCH  28  29
ENDBRANCH  22  28
BRANCH  23  31
HETATM   31  C12 UNL     1      27.786  15.296  16.808  1.00  0.00     0.199 C 
BRANCH  31  32
HETATM   32  O5  UNL     1      27.858  14.055  17.442  1.00  0.00    -0.399 OA
ATOM     33  H5  UNL     1      28.060  14.220  18.356  1.00  0.00     0.209 HD
ENDBRANCH  31  32
ENDBRANCH  23  31
BRANCH  25  34
HETATM   34  N6  UNL     1      31.613  14.885  15.920  1.00  0.00    -0.048 N 
ATOM     35  H63 UNL     1      32.574  14.790  15.592  1.00  0.00     0.276 HD
ATOM     36  H62 UNL     1      31.740  14.680  16.911  1.00  0.00     0.276 HD
ATOM     37  H61 UNL     1      31.025  14.173  15.488  1.00  0.00     0.276 HD
ENDBRANCH  25  34
ENDBRANCH   1  20
TORSDOF 13
ENDMDL
MODEL 4
REMARK VINA RESULT: -7.153261747      1.910      3.969
REMARK  13 active torsions:
REMARK  status: ('A' for Active; 'I' for Inactive)
REMARK    1  A    between atoms: N1_1  and  N2_4 
REMARK    2  A    between atoms: N2_4  and  N3_5 
REMARK    3  A    between atoms: N3_5  and  C1_7 
REMARK    4  A    between atoms: C4_10  and  C5_11 
REMARK    5  A    between atoms: C5_11  and  N4_12 
REMARK    6  A    between atoms: C6_17  and  O2_18 
REMARK    7  A    between atoms: O2_18  and  C7_19 
REMARK    8  A    between atoms: C7_19  and  C8_20 
REMARK    9  A    between atoms: C9_22  and  C10_23 
REMARK   10  A    between atoms: C10_23  and  O4_24 
REMARK   11  A    between atoms: C11_26  and  C12_27 
REMARK   12  A    between atoms: C12_27  and  O5_28 
REMARK   13  A    between atoms: C13_33  and  N6_34 
ROOT
HETATM    1  C7  UNL     1      32.374  16.921  11.750  1.00  0.00     0.207 C 
ENDROOT
BRANCH   1   2
HETATM    2  O2  UNL     1      32.474  16.501  13.074  1.00  0.00    -0.356 OA
BRANCH   2   3
HETATM    3  C6  UNL     1      31.352  16.857  13.820  1.00  0.00     0.285 C 
HETATM    4  C1  UNL     1      30.538  15.665  14.221  1.00  0.00     0.169 C 
HETATM    5  C2  UNL     1      30.311  15.573  15.708  1.00  0.00     0.035 C 
HETATM    6  C3  UNL     1      31.624  15.810  16.374  1.00  0.00     0.036 C 
HETATM    7  C4  UNL     1      32.132  17.150  16.002  1.00  0.00     0.150 C 
HETATM    8  O1  UNL     1      31.751  17.675  14.829  1.00  0.00    -0.352 OA
BRANCH   4   9
HETATM    9  N3  UNL     1      29.229  15.635  13.596  1.00  0.00    -0.243 N 
ATOM     10  H3  UNL     1      28.947  16.378  12.957  1.00  0.00     0.197 HD
BRANCH   9  11
HETATM   11  N2  UNL     1      28.459  14.703  13.843  1.00  0.00    -0.248 NA
BRANCH  11  12
HETATM   12  N1  UNL     1      27.630  13.816  13.979  1.00  0.00    -0.261 N 
ATOM     13  H12 UNL     1      28.459  13.228  14.064  1.00  0.00     0.193 HD
ATOM     14  H11 UNL     1      26.860  13.154  14.081  1.00  0.00     0.193 HD
ENDBRANCH  11  12
ENDBRANCH   9  11
ENDBRANCH   4   9
BRANCH   7  15
HETATM   15  C5  UNL     1      31.816  18.180  17.099  1.00  0.00     0.261 C 
BRANCH  15  16
HETATM   16  N4  UNL     1      32.995  18.631  17.772  1.00  0.00    -0.077 N 
ATOM     17  H43 UNL     1      33.040  19.649  17.794  1.00  0.00     0.274 HD
ATOM     18  H42 UNL     1      32.940  18.449  18.774  1.00  0.00     0.274 HD
ATOM     19  H41 UNL     1      33.844  18.233  17.370  1.00  0.00     0.274 HD
ENDBRANCH  15  16
ENDBRANCH   7  15
ENDBRANCH   2   3
ENDBRANCH   1   2
BRANCH   1  20
HETATM   20  C8  UNL     1      32.580  15.771  10.785  1.00  0.00     0.204 C 
HETATM   21  O3  UNL     1      31.525  14.930  10.813  1.00  0.00    -0.370 OA
HETATM   22  C9  UNL     1      30.684  14.849   9.773  1.00  0.00     0.178 C 
HETATM   23  C11 UNL     1      31.156  15.337   8.454  1.00  0.00     0.242 C 
HETATM   24  N5  UNL     1      32.624  15.234   8.453  1.00  0.00    -0.035 N 
HETATM   25  C13 UNL     1      33.054  16.211   9.439  1.00  0.00     0.411 C 
ATOM     26  H52 UNL     1      32.976  14.291   8.618  1.00  0.00     0.280 HD
ATOM     27  H51 UNL     1      33.050  15.354   7.535  1.00  0.00     0.280 HD
BRANCH  22  28
HETATM   28  C10 UNL     1      29.360  15.527  10.148  1.00  0.00     0.198 C 
BRANCH  28  29
HETATM   29  O4  UNL     1      28.628  14.698  10.997  1.00  0.00    -0.398 OA
ATOM     30  H4  UNL     1      27.931  15.195  11.409  1.00  0.00     0.209 HD
ENDBRANCH  28  29
ENDBRANCH  22  28
BRANCH  23  31
HETATM   31  C12 UNL     1      30.589  14.567   7.282  1.00  0.00     0.199 C 
BRANCH  31  32
HETATM   32  O5  UNL     1      30.839  15.324   6.137  1.00  0.00    -0.399 OA
ATOM     33  H5  UNL     1      30.622  14.778   5.389  1.00  0.00     0.209 HD
ENDBRANCH  31  32
ENDBRANCH  23  31
BRANCH  25  34
HETATM   34  N6  UNL     1      32.596  17.492   9.019  1.00  0.00    -0.048 N 
ATOM     35  H63 UNL     1      31.785  17.772   9.570  1.00  0.00     0.276 HD
ATOM     36  H62 UNL     1      33.262  18.211   9.301  1.00  0.00     0.276 HD
ATOM     37  H61 UNL     1      32.390  17.578   8.024  1.00  0.00     0.276 HD
ENDBRANCH  25  34
ENDBRANCH   1  20
TORSDOF 13
ENDMDL
MODEL 5
REMARK VINA RESULT: -7.109905767      2.260      6.802
REMARK  13 active torsions:
REMARK  status: ('A' for Active; 'I' for Inactive)
REMARK    1  A    between atoms: N1_1  and  N2_4 
REMARK    2  A    between atoms: N2_4  and  N3_5 
REMARK    3  A    between atoms: N3_5  and  C1_7 
REMARK    4  A    between atoms: C4_10  and  C5_11 
REMARK    5  A    between atoms: C5_11  and  N4_12 
REMARK    6  A    between atoms: C6_17  and  O2_18 
REMARK    7  A    between atoms: O2_18  and  C7_19 
REMARK    8  A    between atoms: C7_19  and  C8_20 
REMARK    9  A    between atoms: C9_22  and  C10_23 
REMARK   10  A    between atoms: C10_23  and  O4_24 
REMARK   11  A    between atoms: C11_26  and  C12_27 
REMARK   12  A    between atoms: C12_27  and  O5_28 
REMARK   13  A    between atoms: C13_33  and  N6_34 
ROOT
HETATM    1  C7  UNL     1      31.292  15.646  12.911  1.00  0.00     0.207 C 
ENDROOT
BRANCH   1   2
HETATM    2  O2  UNL     1      30.450  15.281  11.864  1.00  0.00    -0.356 OA
BRANCH   2   3
HETATM    3  C6  UNL     1      30.830  15.870  10.659  1.00  0.00     0.285 C 
HETATM    4  C1  UNL     1      32.298  16.163  10.614  1.00  0.00     0.169 C 
HETATM    5  C2  UNL     1      32.991  15.546   9.425  1.00  0.00     0.035 C 
HETATM    6  C3  UNL     1      32.532  14.130   9.329  1.00  0.00     0.036 C 
HETATM    7  C4  UNL     1      31.062  14.098   9.155  1.00  0.00     0.150 C 
HETATM    8  O1  UNL     1      30.338  15.117   9.641  1.00  0.00    -0.352 OA
BRANCH   4   9
HETATM    9  N3  UNL     1      32.594  17.583  10.578  1.00  0.00    -0.243 N 
ATOM     10  H3  UNL     1      32.756  18.096  11.444  1.00  0.00     0.197 HD
BRANCH   9  11
HETATM   11  N2  UNL     1      32.646  18.166   9.491  1.00  0.00    -0.248 NA
BRANCH  11  12
HETATM   12  N1  UNL     1      32.830  18.737   8.427  1.00  0.00    -0.261 N 
ATOM     13  H12 UNL     1      33.128  19.500   9.034  1.00  0.00     0.193 HD
ATOM     14  H11 UNL     1      32.948  19.121   7.489  1.00  0.00     0.193 HD
ENDBRANCH  11  12
ENDBRANCH   9  11
ENDBRANCH   4   9
BRANCH   7  15
HETATM   15  C5  UNL     1      30.688  13.925   7.674  1.00  0.00     0.261 C 
BRANCH  15  16
HETATM   16  N4  UNL     1      30.422  15.176   7.034  1.00  0.00    -0.077 N 
ATOM     17  H43 UNL     1      30.929  15.937   7.487  1.00  0.00     0.274 HD
ATOM     18  H42 UNL     1      30.857  15.218   6.112  1.00  0.00     0.274 HD
ATOM     19  H41 UNL     1      29.424  15.378   6.982  1.00  0.00     0.274 HD
ENDBRANCH  15  16
ENDBRANCH   7  15
ENDBRANCH   2   3
ENDBRANCH   1   2
BRANCH   1  20
HETATM   20  C8  UNL     1      30.536  16.370  14.006  1.00  0.00     0.204 C 
HETATM   21  O3  UNL     1      29.205  16.301  13.792  1.00  0.00    -0.370 OA
HETATM   22  C9  UNL     1      28.419  15.560  14.584  1.00  0.00     0.178 C 
HETATM   23  C11 UNL     1      28.934  15.186  15.925  1.00  0.00     0.242 C 
HETATM   24  N5  UNL     1      29.918  16.209  16.313  1.00  0.00    -0.035 N 
HETATM   25  C13 UNL     1      31.015  16.027  15.378  1.00  0.00     0.411 C 
ATOM     26  H52 UNL     1      29.545  17.158  16.339  1.00  0.00     0.280 HD
ATOM     27  H51 UNL     1      30.195  16.171  17.293  1.00  0.00     0.280 HD
BRANCH  22  28
HETATM   28  C10 UNL     1      27.978  14.306  13.817  1.00  0.00     0.198 C 
BRANCH  28  29
HETATM   29  O4  UNL     1      27.696  14.638  12.493  1.00  0.00    -0.398 OA
ATOM     30  H4  UNL     1      27.820  13.878  11.937  1.00  0.00     0.209 HD
ENDBRANCH  28  29
ENDBRANCH  22  28
BRANCH  23  31
HETATM   31  C12 UNL     1      27.857  15.086  16.983  1.00  0.00     0.199 C 
BRANCH  31  32
HETATM   32  O5  UNL     1      27.903  13.786  17.490  1.00  0.00    -0.399 OA
ATOM     33  H5  UNL     1      28.712  13.709  17.984  1.00  0.00     0.209 HD
ENDBRANCH  31  32
ENDBRANCH  23  31
BRANCH  25  34
HETATM   34  N6  UNL     1      31.513  14.702  15.537  1.00  0.00    -0.048 N 
ATOM     35  H63 UNL     1      31.733  14.299  14.626  1.00  0.00     0.276 HD
ATOM     36  H62 UNL     1      32.444  14.726  15.954  1.00  0.00     0.276 HD
ATOM     37  H61 UNL     1      30.911  14.069  16.063  1.00  0.00     0.276 HD
ENDBRANCH  25  34
ENDBRANCH   1  20
TORSDOF 13
ENDMDL
