MODEL 1
REMARK VINA RESULT: 9.400591200      0.000      0.000
REMARK  6 active torsions:
REMARK  status: ('A' for Active; 'I' for Inactive)
REMARK    1  A    between atoms: C7_7  and  C8_8 
REMARK    2  A    between atoms: C10_10  and  C11_11 
REMARK    3  A    between atoms: C18_22  and  C19_23 
REMARK    4  A    between atoms: C20_24  and  C21_25 
REMARK    5  A    between atoms: C22_26  and  C23_27 
REMARK    6  A    between atoms: N3_30  and  O1_31 
ROOT
HETATM    1  C8  UNL     1      11.079   6.377   9.495  1.00  0.00     0.018 A 
HETATM    2  C9  UNL     1      10.166   5.594   8.867  1.00  0.00     0.037 A 
HETATM    3  C10 UNL     1      10.398   5.232   7.579  1.00  0.00     0.035 A 
HETATM    4  C18 UNL     1      11.551   5.690   7.005  1.00  0.00     0.073 A 
HETATM    5  S1  UNL     1      12.270   6.593   8.240  1.00  0.00    -0.079 SA
ENDROOT
BRANCH   4   6
HETATM    6  C19 UNL     1      12.023   5.440   5.640  1.00  0.00    -0.044 C 
HETATM    7  C20 UNL     1      12.424   5.236   4.524  1.00  0.00    -0.009 C 
BRANCH   7   8
HETATM    8  C21 UNL     1      12.918   4.997   3.221  1.00  0.00    -0.009 C 
HETATM    9  C22 UNL     1      13.356   4.781   2.116  1.00  0.00    -0.053 C 
BRANCH   9  10
HETATM   10  C23 UNL     1      13.899   4.515   0.812  1.00  0.00     0.021 A 
HETATM   11  C24 UNL     1      13.323   3.620  -0.071  1.00  0.00     0.040 A 
HETATM   12  C25 UNL     1      13.861   3.382  -1.315  1.00  0.00     0.124 A 
HETATM   13  N3  UNL     1      14.976   4.018  -1.721  1.00  0.00    -0.247 N 
HETATM   14  C26 UNL     1      15.561   4.895  -0.887  1.00  0.00     0.124 A 
HETATM   15  C27 UNL     1      15.046   5.155   0.368  1.00  0.00     0.040 A 
BRANCH  13  16
HETATM   16  O1  UNL     1      15.516   3.774  -2.981  1.00  0.00    -0.284 OA
ATOM     17  H1  UNL     1      16.451   3.646  -3.093  1.00  0.00     0.245 HD
ENDBRANCH  13  16
ENDBRANCH   9  10
ENDBRANCH   7   8
ENDBRANCH   4   6
BRANCH   3  18
HETATM   18  C11 UNL     1       9.454   4.371   6.792  1.00  0.00     0.118 A 
HETATM   19  N1  UNL     1       8.120   4.470   6.771  1.00  0.00    -0.340 N 
HETATM   20  C12 UNL     1       7.594   3.541   5.959  1.00  0.00     0.060 A 
ATOM     21  H1  UNL     1       7.579   5.156   7.298  1.00  0.00     0.167 HD
HETATM   22  C13 UNL     1       6.288   3.232   5.600  1.00  0.00     0.032 A 
HETATM   23  C17 UNL     1       8.646   2.820   5.443  1.00  0.00     0.060 A 
HETATM   24  C14 UNL     1       6.055   2.196   4.722  1.00  0.00     0.002 A 
HETATM   25  C15 UNL     1       7.114   1.469   4.202  1.00  0.00     0.002 A 
HETATM   26  C16 UNL     1       8.421   1.781   4.564  1.00  0.00     0.032 A 
HETATM   27  N2  UNL     1       9.750   3.354   5.972  1.00  0.00    -0.340 N 
ATOM     28  H2  UNL     1      10.696   3.029   5.776  1.00  0.00     0.167 HD
ENDBRANCH   3  18
BRANCH   1  29
HETATM   29  C7  UNL     1      11.201   6.927  10.836  1.00  0.00    -0.013 A 
HETATM   30  C2  UNL     1      10.322   6.797  11.840  1.00  0.00    -0.050 A 
HETATM   31  C1  UNL     1       9.027   6.137  11.658  1.00  0.00     0.049 C 
HETATM   32  C3  UNL     1      10.549   7.316  13.120  1.00  0.00     0.007 A 
HETATM   33  C4  UNL     1      11.707   7.986  13.377  1.00  0.00     0.001 A 
HETATM   34  C5  UNL     1      12.635   8.142  12.376  1.00  0.00     0.001 A 
HETATM   35  C6  UNL     1      12.384   7.622  11.129  1.00  0.00     0.013 A 
ENDBRANCH   1  29
TORSDOF 6
ENDMDL
MODEL 2
REMARK VINA RESULT: 9.755262934      0.043      1.003
REMARK  6 active torsions:
REMARK  status: ('A' for Active; 'I' for Inactive)
REMARK    1  A    between atoms: C7_7  and  C8_8 
REMARK    2  A    between atoms: C10_10  and  C11_11 
REMARK    3  A    between atoms: C18_22  and  C19_23 
REMARK    4  A    between atoms: C20_24  and  C21_25 
REMARK    5  A    between atoms: C22_26  and  C23_27 
REMARK    6  A    between atoms: N3_30  and  O1_31 
ROOT
HETATM    1  C8  UNL     1      11.054   6.374   9.496  1.00  0.00     0.018 A 
HETATM    2  C9  UNL     1      10.137   5.595   8.868  1.00  0.00     0.037 A 
HETATM    3  C10 UNL     1      10.368   5.230   7.581  1.00  0.00     0.035 A 
HETATM    4  C18 UNL     1      11.523   5.683   7.007  1.00  0.00     0.073 A 
HETATM    5  S1  UNL     1      12.246   6.584   8.242  1.00  0.00    -0.079 SA
ENDROOT
BRANCH   4   6
HETATM    6  C19 UNL     1      11.996   5.429   5.643  1.00  0.00    -0.044 C 
HETATM    7  C20 UNL     1      12.396   5.223   4.527  1.00  0.00    -0.009 C 
BRANCH   7   8
HETATM    8  C21 UNL     1      12.890   4.984   3.224  1.00  0.00    -0.009 C 
HETATM    9  C22 UNL     1      13.327   4.769   2.118  1.00  0.00    -0.053 C 
BRANCH   9  10
HETATM   10  C23 UNL     1      13.867   4.500   0.813  1.00  0.00     0.021 A 
HETATM   11  C24 UNL     1      13.272   3.626  -0.079  1.00  0.00     0.040 A 
HETATM   12  C25 UNL     1      13.808   3.387  -1.323  1.00  0.00     0.124 A 
HETATM   13  N3  UNL     1      14.940   3.998  -1.720  1.00  0.00    -0.247 N 
HETATM   14  C26 UNL     1      15.544   4.853  -0.876  1.00  0.00     0.124 A 
HETATM   15  C27 UNL     1      15.031   5.115   0.378  1.00  0.00     0.040 A 
BRANCH  13  16
HETATM   16  O1  UNL     1      15.478   3.751  -2.981  1.00  0.00    -0.284 OA
ATOM     17  H1  UNL     1      15.646   4.464  -3.586  1.00  0.00     0.245 HD
ENDBRANCH  13  16
ENDBRANCH   9  10
ENDBRANCH   7   8
ENDBRANCH   4   6
BRANCH   3  18
HETATM   18  C11 UNL     1       9.421   4.373   6.794  1.00  0.00     0.118 A 
HETATM   19  N1  UNL     1       9.752   3.349   5.999  1.00  0.00    -0.340 N 
HETATM   20  C12 UNL     1       8.653   2.807   5.452  1.00  0.00     0.060 A 
ATOM     21  H1  UNL     1      10.705   3.026   5.832  1.00  0.00     0.167 HD
HETATM   22  C13 UNL     1       8.461   1.746   4.576  1.00  0.00     0.032 A 
HETATM   23  C17 UNL     1       7.578   3.523   5.925  1.00  0.00     0.060 A 
HETATM   24  C14 UNL     1       7.182   1.416   4.183  1.00  0.00     0.002 A 
HETATM   25  C15 UNL     1       6.097   2.137   4.659  1.00  0.00     0.002 A 
HETATM   26  C16 UNL     1       6.295   3.199   5.536  1.00  0.00     0.032 A 
HETATM   27  N2  UNL     1       8.086   4.458   6.730  1.00  0.00    -0.340 N 
ATOM     28  H2  UNL     1       7.528   5.148   7.233  1.00  0.00     0.167 HD
ENDBRANCH   3  18
BRANCH   1  29
HETATM   29  C7  UNL     1      11.176   6.926  10.837  1.00  0.00    -0.013 A 
HETATM   30  C2  UNL     1      10.295   6.804  11.839  1.00  0.00    -0.050 A 
HETATM   31  C1  UNL     1       8.996   6.152  11.656  1.00  0.00     0.049 C 
HETATM   32  C3  UNL     1      10.524   7.323  13.119  1.00  0.00     0.007 A 
HETATM   33  C4  UNL     1      11.686   7.985  13.377  1.00  0.00     0.001 A 
HETATM   34  C5  UNL     1      12.616   8.133  12.376  1.00  0.00     0.001 A 
HETATM   35  C6  UNL     1      12.364   7.613  11.131  1.00  0.00     0.013 A 
ENDBRANCH   1  29
TORSDOF 6
ENDMDL
MODEL 3
REMARK VINA RESULT: 9.905506284      6.151     10.615
REMARK  6 active torsions:
REMARK  status: ('A' for Active; 'I' for Inactive)
REMARK    1  A    between atoms: C7_7  and  C8_8 
REMARK    2  A    between atoms: C10_10  and  C11_11 
REMARK    3  A    between atoms: C18_22  and  C19_23 
REMARK    4  A    between atoms: C20_24  and  C21_25 
REMARK    5  A    between atoms: C22_26  and  C23_27 
REMARK    6  A    between atoms: N3_30  and  O1_31 
ROOT
HETATM    1  C8  UNL     1      12.897   5.808   7.178  1.00  0.00     0.018 A 
HETATM    2  C9  UNL     1      11.802   5.730   7.976  1.00  0.00     0.037 A 
HETATM    3  C10 UNL     1      11.951   5.258   9.239  1.00  0.00     0.035 A 
HETATM    4  C18 UNL     1      13.212   4.892   9.619  1.00  0.00     0.073 A 
HETATM    5  S1  UNL     1      14.141   5.205   8.241  1.00  0.00    -0.079 SA
ENDROOT
BRANCH   4   6
HETATM    6  C19 UNL     1      13.628   4.358  10.919  1.00  0.00    -0.044 C 
HETATM    7  C20 UNL     1      13.981   3.926  11.984  1.00  0.00    -0.009 C 
BRANCH   7   8
HETATM    8  C21 UNL     1      14.418   3.431  13.235  1.00  0.00    -0.009 C 
HETATM    9  C22 UNL     1      14.805   3.024  14.305  1.00  0.00    -0.053 C 
BRANCH   9  10
HETATM   10  C23 UNL     1      15.283   2.558  15.578  1.00  0.00     0.021 A 
HETATM   11  C24 UNL     1      14.439   2.107  16.577  1.00  0.00     0.040 A 
HETATM   12  C25 UNL     1      14.922   1.666  17.787  1.00  0.00     0.124 A 
HETATM   13  N3  UNL     1      16.243   1.655  18.045  1.00  0.00    -0.247 N 
HETATM   14  C26 UNL     1      17.092   2.086  17.095  1.00  0.00     0.124 A 
HETATM   15  C27 UNL     1      16.639   2.536  15.870  1.00  0.00     0.040 A 
BRANCH  13  16
HETATM   16  O1  UNL     1      16.726   1.206  19.271  1.00  0.00    -0.284 OA
ATOM     17  H1  UNL     1      16.421   0.387  19.645  1.00  0.00     0.245 HD
ENDBRANCH  13  16
ENDBRANCH   9  10
ENDBRANCH   7   8
ENDBRANCH   4   6
BRANCH   3  18
HETATM   18  C11 UNL     1      10.807   5.130  10.202  1.00  0.00     0.118 A 
HETATM   19  N1  UNL     1       9.979   6.108  10.585  1.00  0.00    -0.340 N 
HETATM   20  C12 UNL     1       9.072   5.640  11.456  1.00  0.00     0.060 A 
ATOM     21  H1  UNL     1      10.029   7.074  10.261  1.00  0.00     0.167 HD
HETATM   22  C13 UNL     1       8.016   6.240  12.132  1.00  0.00     0.032 A 
HETATM   23  C17 UNL     1       9.340   4.303  11.631  1.00  0.00     0.060 A 
HETATM   24  C14 UNL     1       7.240   5.482  12.982  1.00  0.00     0.002 A 
HETATM   25  C15 UNL     1       7.510   4.134  13.160  1.00  0.00     0.002 A 
HETATM   26  C16 UNL     1       8.568   3.538  12.481  1.00  0.00     0.032 A 
HETATM   27  N2  UNL     1      10.395   4.037  10.857  1.00  0.00    -0.340 N 
ATOM     28  H2  UNL     1      10.830   3.118  10.775  1.00  0.00     0.167 HD
ENDBRANCH   3  18
BRANCH   1  29
HETATM   29  C7  UNL     1      13.141   6.276   5.823  1.00  0.00    -0.013 A 
HETATM   30  C2  UNL     1      12.272   6.910   5.024  1.00  0.00    -0.050 A 
HETATM   31  C1  UNL     1      10.875   7.124   5.410  1.00  0.00     0.049 C 
HETATM   32  C3  UNL     1      12.613   7.375   3.748  1.00  0.00     0.007 A 
HETATM   33  C4  UNL     1      13.878   7.185   3.280  1.00  0.00     0.001 A 
HETATM   34  C5  UNL     1      14.800   6.538   4.067  1.00  0.00     0.001 A 
HETATM   35  C6  UNL     1      14.436   6.093   5.315  1.00  0.00     0.013 A 
ENDBRANCH   1  29
TORSDOF 6
ENDMDL
MODEL 4
REMARK VINA RESULT: 10.304904643      0.310      1.204
REMARK  6 active torsions:
REMARK  status: ('A' for Active; 'I' for Inactive)
REMARK    1  A    between atoms: C7_7  and  C8_8 
REMARK    2  A    between atoms: C10_10  and  C11_11 
REMARK    3  A    between atoms: C18_22  and  C19_23 
REMARK    4  A    between atoms: C20_24  and  C21_25 
REMARK    5  A    between atoms: C22_26  and  C23_27 
REMARK    6  A    between atoms: N3_30  and  O1_31 
ROOT
HETATM    1  C8  UNL     1      11.136   6.386   9.585  1.00  0.00     0.018 A 
HETATM    2  C9  UNL     1      10.221   5.610   8.950  1.00  0.00     0.037 A 
HETATM    3  C10 UNL     1      10.448   5.264   7.658  1.00  0.00     0.035 A 
HETATM    4  C18 UNL     1      11.598   5.730   7.085  1.00  0.00     0.073 A 
HETATM    5  S1  UNL     1      12.322   6.618   8.328  1.00  0.00    -0.079 SA
ENDROOT
BRANCH   4   6
HETATM    6  C19 UNL     1      12.066   5.497   5.715  1.00  0.00    -0.044 C 
HETATM    7  C20 UNL     1      12.462   5.303   4.596  1.00  0.00    -0.009 C 
BRANCH   7   8
HETATM    8  C21 UNL     1      12.948   5.065   3.290  1.00  0.00    -0.009 C 
HETATM    9  C22 UNL     1      13.377   4.847   2.181  1.00  0.00    -0.053 C 
BRANCH   9  10
HETATM   10  C23 UNL     1      13.903   4.571   0.872  1.00  0.00     0.021 A 
HETATM   11  C24 UNL     1      13.322   3.661   0.007  1.00  0.00     0.040 A 
HETATM   12  C25 UNL     1      13.845   3.415  -1.241  1.00  0.00     0.124 A 
HETATM   13  N3  UNL     1      14.948   4.056  -1.670  1.00  0.00    -0.247 N 
HETATM   14  C26 UNL     1      15.538   4.947  -0.853  1.00  0.00     0.124 A 
HETATM   15  C27 UNL     1      15.038   5.216   0.405  1.00  0.00     0.040 A 
BRANCH  13  16
HETATM   16  O1  UNL     1      15.473   3.803  -2.935  1.00  0.00    -0.284 OA
ATOM     17  H1  UNL     1      16.393   3.952  -3.119  1.00  0.00     0.245 HD
ENDBRANCH  13  16
ENDBRANCH   9  10
ENDBRANCH   7   8
ENDBRANCH   4   6
BRANCH   3  18
HETATM   18  C11 UNL     1       9.501   4.413   6.863  1.00  0.00     0.118 A 
HETATM   19  N1  UNL     1       8.168   4.509   6.851  1.00  0.00    -0.340 N 
HETATM   20  C12 UNL     1       7.639   3.590   6.029  1.00  0.00     0.060 A 
ATOM     21  H1  UNL     1       7.628   5.185   7.391  1.00  0.00     0.167 HD
HETATM   22  C13 UNL     1       6.331   3.283   5.673  1.00  0.00     0.032 A 
HETATM   23  C17 UNL     1       8.690   2.880   5.496  1.00  0.00     0.060 A 
HETATM   24  C14 UNL     1       6.096   2.259   4.782  1.00  0.00     0.002 A 
HETATM   25  C15 UNL     1       7.154   1.543   4.244  1.00  0.00     0.002 A 
HETATM   26  C16 UNL     1       8.462   1.854   4.603  1.00  0.00     0.032 A 
HETATM   27  N2  UNL     1       9.795   3.408   6.026  1.00  0.00    -0.340 N 
ATOM     28  H2  UNL     1      10.741   3.089   5.820  1.00  0.00     0.167 HD
ENDBRANCH   3  18
BRANCH   1  29
HETATM   29  C7  UNL     1      11.262   6.919  10.932  1.00  0.00    -0.013 A 
HETATM   30  C2  UNL     1      12.160   7.818  11.359  1.00  0.00    -0.050 A 
HETATM   31  C1  UNL     1      13.235   8.313  10.495  1.00  0.00     0.049 C 
HETATM   32  C3  UNL     1      12.172   8.318  12.667  1.00  0.00     0.007 A 
HETATM   33  C4  UNL     1      11.238   7.885  13.560  1.00  0.00     0.001 A 
HETATM   34  C5  UNL     1      10.299   6.963  13.162  1.00  0.00     0.001 A 
HETATM   35  C6  UNL     1      10.313   6.490  11.873  1.00  0.00     0.013 A 
ENDBRANCH   1  29
TORSDOF 6
ENDMDL
MODEL 5
REMARK VINA RESULT: 10.366681889      6.878     12.033
REMARK  6 active torsions:
REMARK  status: ('A' for Active; 'I' for Inactive)
REMARK    1  A    between atoms: C7_7  and  C8_8 
REMARK    2  A    between atoms: C10_10  and  C11_11 
REMARK    3  A    between atoms: C18_22  and  C19_23 
REMARK    4  A    between atoms: C20_24  and  C21_25 
REMARK    5  A    between atoms: C22_26  and  C23_27 
REMARK    6  A    between atoms: N3_30  and  O1_31 
ROOT
HETATM    1  C8  UNL     1       7.414   2.629   7.012  1.00  0.00     0.018 A 
HETATM    2  C9  UNL     1       8.660   2.728   7.540  1.00  0.00     0.037 A 
HETATM    3  C10 UNL     1       8.805   3.307   8.759  1.00  0.00     0.035 A 
HETATM    4  C18 UNL     1       7.667   3.754   9.371  1.00  0.00     0.073 A 
HETATM    5  S1  UNL     1       6.450   3.366   8.264  1.00  0.00    -0.079 SA
ENDROOT
BRANCH   4   6
HETATM    6  C19 UNL     1       7.560   4.409  10.678  1.00  0.00    -0.044 C 
HETATM    7  C20 UNL     1       7.460   4.941  11.752  1.00  0.00    -0.009 C 
BRANCH   7   8
HETATM    8  C21 UNL     1       7.321   5.556  13.018  1.00  0.00    -0.009 C 
HETATM    9  C22 UNL     1       7.196   6.063  14.108  1.00  0.00    -0.053 C 
BRANCH   9  10
HETATM   10  C23 UNL     1       7.037   6.644  15.413  1.00  0.00     0.021 A 
HETATM   11  C24 UNL     1       8.091   6.812  16.292  1.00  0.00     0.040 A 
HETATM   12  C25 UNL     1       7.913   7.372  17.536  1.00  0.00     0.124 A 
HETATM   13  N3  UNL     1       6.698   7.780  17.945  1.00  0.00    -0.247 N 
HETATM   14  C26 UNL     1       5.651   7.631  17.115  1.00  0.00     0.124 A 
HETATM   15  C27 UNL     1       5.796   7.074  15.860  1.00  0.00     0.040 A 
BRANCH  13  16
HETATM   16  O1  UNL     1       6.524   8.347  19.206  1.00  0.00    -0.284 OA
ATOM     17  H1  UNL     1       6.486   9.290  19.315  1.00  0.00     0.245 HD
ENDBRANCH  13  16
ENDBRANCH   9  10
ENDBRANCH   7   8
ENDBRANCH   4   6
BRANCH   3  18
HETATM   18  C11 UNL     1      10.136   3.469   9.432  1.00  0.00     0.118 A 
HETATM   19  N1  UNL     1      10.429   3.148  10.697  1.00  0.00    -0.340 N 
HETATM   20  C12 UNL     1      11.714   3.425  10.966  1.00  0.00     0.060 A 
ATOM     21  H1  UNL     1       9.769   2.748  11.364  1.00  0.00     0.167 HD
HETATM   22  C13 UNL     1      12.492   3.280  12.107  1.00  0.00     0.032 A 
HETATM   23  C17 UNL     1      12.258   3.947   9.815  1.00  0.00     0.060 A 
HETATM   24  C14 UNL     1      13.815   3.664  12.077  1.00  0.00     0.002 A 
HETATM   25  C15 UNL     1      14.365   4.190  10.918  1.00  0.00     0.002 A 
HETATM   26  C16 UNL     1      13.581   4.334   9.777  1.00  0.00     0.032 A 
HETATM   27  N2  UNL     1      11.272   3.956   8.915  1.00  0.00    -0.340 N 
ATOM     28  H2  UNL     1      11.371   4.291   7.957  1.00  0.00     0.167 HD
ENDBRANCH   3  18
BRANCH   1  29
HETATM   29  C7  UNL     1       6.866   2.061   5.790  1.00  0.00    -0.013 A 
HETATM   30  C2  UNL     1       5.841   2.540   5.072  1.00  0.00    -0.050 A 
HETATM   31  C1  UNL     1       5.052   3.692   5.516  1.00  0.00     0.049 C 
HETATM   32  C3  UNL     1       5.416   1.957   3.873  1.00  0.00     0.007 A 
HETATM   33  C4  UNL     1       6.058   0.853   3.398  1.00  0.00     0.001 A 
HETATM   34  C5  UNL     1       7.115   0.330   4.104  1.00  0.00     0.001 A 
HETATM   35  C6  UNL     1       7.509   0.924   5.278  1.00  0.00     0.013 A 
ENDBRANCH   1  29
TORSDOF 6
ENDMDL
