MODEL 1
REMARK VINA RESULT: -4.153815632      0.000      0.000
REMARK  2 active torsions:
REMARK  status: ('A' for Active; 'I' for Inactive)
REMARK       I    between atoms: C1_2  and  N1_3 
REMARK    1  A    between atoms: C1_2  and  C22_28 
REMARK    2  A    between atoms: N1_3  and  N2_5 
ROOT
HETATM    1  N2  UNL     1      10.109   5.939   9.498  1.00  0.00    -0.230 N 
HETATM    2  C2  UNL     1       9.338   6.852  10.253  1.00  0.00     0.274 A 
HETATM    3  O2  UNL     1       9.356   8.127  10.151  1.00  0.00    -0.266 OA
HETATM    4  C3  UNL     1       8.503   6.110  11.184  1.00  0.00     0.043 A 
HETATM    5  C4  UNL     1       7.573   6.576  12.127  1.00  0.00     0.018 A 
HETATM    6  C5  UNL     1       6.904   5.666  12.888  1.00  0.00     0.001 A 
HETATM    7  C6  UNL     1       7.122   4.319  12.744  1.00  0.00     0.001 A 
HETATM    8  C7  UNL     1       8.030   3.900  11.821  1.00  0.00     0.011 A 
HETATM    9  C8  UNL     1       8.747   4.783  11.012  1.00  0.00    -0.003 A 
HETATM   10  C9  UNL     1       9.774   4.613   9.959  1.00  0.00     0.142 A 
HETATM   11  C10 UNL     1      11.004   4.032  10.598  1.00  0.00    -0.002 A 
HETATM   12  C11 UNL     1      11.192   4.219  11.979  1.00  0.00     0.012 A 
HETATM   13  C12 UNL     1      12.286   3.729  12.610  1.00  0.00     0.001 A 
HETATM   14  C13 UNL     1      13.237   3.034  11.903  1.00  0.00     0.001 A 
HETATM   15  C14 UNL     1      13.068   2.838  10.532  1.00  0.00     0.019 A 
HETATM   16  C15 UNL     1      11.960   3.343   9.931  1.00  0.00     0.015 A 
HETATM   17  S1  UNL     1      11.751   3.072   8.151  1.00  0.00    -0.089 SA
HETATM   18  C16 UNL     1       9.959   3.077   7.965  1.00  0.00     0.015 A 
HETATM   19  C17 UNL     1       9.340   2.372   6.966  1.00  0.00     0.019 A 
HETATM   20  C18 UNL     1       7.956   2.372   6.827  1.00  0.00     0.001 A 
HETATM   21  C19 UNL     1       7.201   3.087   7.701  1.00  0.00     0.001 A 
HETATM   22  C20 UNL     1       7.799   3.804   8.712  1.00  0.00     0.012 A 
HETATM   23  C21 UNL     1       9.211   3.803   8.855  1.00  0.00    -0.002 A 
ENDROOT
BRANCH   1  24
HETATM   24  N1  UNL     1      11.001   6.359   8.505  1.00  0.00    -0.259 N 
HETATM   25  C1  UNL     1      10.685   6.283   7.118  1.00  0.00     0.270 C 
HETATM   26  O1  UNL     1       9.564   5.818   6.808  1.00  0.00    -0.266 OA
ATOM     27  H1  UNL     1      11.909   6.732   8.783  1.00  0.00     0.190 HD
BRANCH  25  28
HETATM   28  C22 UNL     1      11.582   6.710   6.070  1.00  0.00     0.033 A 
HETATM   29  C23 UNL     1      11.164   7.538   5.044  1.00  0.00     0.017 A 
HETATM   30  C24 UNL     1      12.056   7.916   4.072  1.00  0.00     0.001 A 
HETATM   31  C25 UNL     1      13.363   7.485   4.095  1.00  0.00     0.000 A 
HETATM   32  C26 UNL     1      13.780   6.661   5.115  1.00  0.00     0.001 A 
HETATM   33  C27 UNL     1      12.890   6.277   6.094  1.00  0.00     0.017 A 
ENDBRANCH  25  28
ENDBRANCH   1  24
TORSDOF 2
ENDMDL
MODEL 2
REMARK VINA RESULT: -3.852097065      2.423      5.747
REMARK  2 active torsions:
REMARK  status: ('A' for Active; 'I' for Inactive)
REMARK       I    between atoms: C1_2  and  N1_3 
REMARK    1  A    between atoms: C1_2  and  C22_28 
REMARK    2  A    between atoms: N1_3  and  N2_5 
ROOT
HETATM    1  N2  UNL     1      10.418   4.646   8.065  1.00  0.00    -0.230 N 
HETATM    2  C2  UNL     1       9.913   5.081   9.312  1.00  0.00     0.274 A 
HETATM    3  O2  UNL     1       8.828   4.695   9.867  1.00  0.00    -0.266 OA
HETATM    4  C3  UNL     1      10.832   6.054   9.881  1.00  0.00     0.043 A 
HETATM    5  C4  UNL     1      10.763   6.754  11.096  1.00  0.00     0.018 A 
HETATM    6  C5  UNL     1      11.766   7.619  11.409  1.00  0.00     0.001 A 
HETATM    7  C6  UNL     1      12.831   7.811  10.564  1.00  0.00     0.001 A 
HETATM    8  C7  UNL     1      12.869   7.117   9.395  1.00  0.00     0.011 A 
HETATM    9  C8  UNL     1      11.870   6.217   9.017  1.00  0.00    -0.003 A 
HETATM   10  C9  UNL     1      11.654   5.354   7.834  1.00  0.00     0.142 A 
HETATM   11  C10 UNL     1      11.449   6.245   6.641  1.00  0.00    -0.002 A 
HETATM   12  C11 UNL     1      11.000   7.560   6.857  1.00  0.00     0.012 A 
HETATM   13  C12 UNL     1      10.786   8.407   5.821  1.00  0.00     0.001 A 
HETATM   14  C13 UNL     1      11.007   7.990   4.532  1.00  0.00     0.001 A 
HETATM   15  C14 UNL     1      11.453   6.689   4.296  1.00  0.00     0.019 A 
HETATM   16  C15 UNL     1      11.658   5.865   5.357  1.00  0.00     0.015 A 
HETATM   17  S1  UNL     1      12.246   4.182   5.035  1.00  0.00    -0.089 SA
HETATM   18  C16 UNL     1      13.159   3.795   6.539  1.00  0.00     0.015 A 
HETATM   19  C17 UNL     1      14.212   2.918   6.533  1.00  0.00     0.019 A 
HETATM   20  C18 UNL     1      14.920   2.624   7.694  1.00  0.00     0.001 A 
HETATM   21  C19 UNL     1      14.560   3.221   8.859  1.00  0.00     0.001 A 
HETATM   22  C20 UNL     1      13.506   4.105   8.893  1.00  0.00     0.012 A 
HETATM   23  C21 UNL     1      12.784   4.405   7.707  1.00  0.00    -0.002 A 
ENDROOT
BRANCH   1  24
HETATM   24  N1  UNL     1       9.756   3.692   7.284  1.00  0.00    -0.259 N 
HETATM   25  C1  UNL     1       8.521   3.969   6.631  1.00  0.00     0.270 C 
HETATM   26  O1  UNL     1       8.033   5.113   6.782  1.00  0.00    -0.266 OA
ATOM     27  H1  UNL     1      10.172   2.767   7.179  1.00  0.00     0.190 HD
BRANCH  25  28
HETATM   28  C22 UNL     1       7.815   3.007   5.817  1.00  0.00     0.033 A 
HETATM   29  C23 UNL     1       8.470   1.973   5.174  1.00  0.00     0.017 A 
HETATM   30  C24 UNL     1       7.752   1.085   4.413  1.00  0.00     0.001 A 
HETATM   31  C25 UNL     1       6.388   1.203   4.273  1.00  0.00     0.000 A 
HETATM   32  C26 UNL     1       5.735   2.232   4.912  1.00  0.00     0.001 A 
HETATM   33  C27 UNL     1       6.449   3.128   5.677  1.00  0.00     0.017 A 
ENDBRANCH  25  28
ENDBRANCH   1  24
TORSDOF 2
ENDMDL
MODEL 3
REMARK VINA RESULT: -3.084381399      0.947      1.002
REMARK  2 active torsions:
REMARK  status: ('A' for Active; 'I' for Inactive)
REMARK       I    between atoms: C1_2  and  N1_3 
REMARK    1  A    between atoms: C1_2  and  C22_28 
REMARK    2  A    between atoms: N1_3  and  N2_5 
ROOT
HETATM    1  N2  UNL     1       9.683   5.819   8.896  1.00  0.00    -0.230 N 
HETATM    2  C2  UNL     1       9.093   6.723   9.808  1.00  0.00     0.274 A 
HETATM    3  O2  UNL     1       8.977   7.987   9.656  1.00  0.00    -0.266 OA
HETATM    4  C3  UNL     1       8.629   5.986  10.972  1.00  0.00     0.043 A 
HETATM    5  C4  UNL     1       7.980   6.446  12.129  1.00  0.00     0.018 A 
HETATM    6  C5  UNL     1       7.637   5.542  13.088  1.00  0.00     0.001 A 
HETATM    7  C6  UNL     1       7.913   4.206  12.939  1.00  0.00     0.001 A 
HETATM    8  C7  UNL     1       8.544   3.793  11.807  1.00  0.00     0.011 A 
HETATM    9  C8  UNL     1       8.920   4.670  10.788  1.00  0.00    -0.003 A 
HETATM   10  C9  UNL     1       9.606   4.505   9.486  1.00  0.00     0.142 A 
HETATM   11  C10 UNL     1      11.012   4.047   9.757  1.00  0.00    -0.002 A 
HETATM   12  C11 UNL     1      11.578   4.330  11.012  1.00  0.00     0.012 A 
HETATM   13  C12 UNL     1      12.844   3.953  11.310  1.00  0.00     0.001 A 
HETATM   14  C13 UNL     1      13.601   3.281  10.383  1.00  0.00     0.001 A 
HETATM   15  C14 UNL     1      13.057   2.990   9.131  1.00  0.00     0.019 A 
HETATM   16  C15 UNL     1      11.784   3.382   8.864  1.00  0.00     0.015 A 
HETATM   17  S1  UNL     1      11.089   2.990   7.237  1.00  0.00    -0.089 SA
HETATM   18  C16 UNL     1       9.327   2.864   7.588  1.00  0.00     0.015 A 
HETATM   19  C17 UNL     1       8.503   2.060   6.844  1.00  0.00     0.019 A 
HETATM   20  C18 UNL     1       7.143   1.960   7.120  1.00  0.00     0.001 A 
HETATM   21  C19 UNL     1       6.620   2.675   8.150  1.00  0.00     0.001 A 
HETATM   22  C20 UNL     1       7.426   3.491   8.911  1.00  0.00     0.012 A 
HETATM   23  C21 UNL     1       8.814   3.592   8.630  1.00  0.00    -0.002 A 
ENDROOT
BRANCH   1  24
HETATM   24  N1  UNL     1      10.209   6.235   7.668  1.00  0.00    -0.259 N 
HETATM   25  C1  UNL     1      11.604   6.436   7.467  1.00  0.00     0.270 C 
HETATM   26  O1  UNL     1      12.362   6.228   8.443  1.00  0.00    -0.266 OA
ATOM     27  H1  UNL     1       9.571   6.401   6.889  1.00  0.00     0.190 HD
BRANCH  25  28
HETATM   28  C22 UNL     1      12.178   6.863   6.213  1.00  0.00     0.033 A 
HETATM   29  C23 UNL     1      11.481   7.662   5.325  1.00  0.00     0.017 A 
HETATM   30  C24 UNL     1      12.072   8.040   4.146  1.00  0.00     0.001 A 
HETATM   31  C25 UNL     1      13.349   7.640   3.825  1.00  0.00     0.000 A 
HETATM   32  C26 UNL     1      14.044   6.845   4.708  1.00  0.00     0.001 A 
HETATM   33  C27 UNL     1      13.457   6.460   5.893  1.00  0.00     0.017 A 
ENDBRANCH  25  28
ENDBRANCH   1  24
TORSDOF 2
ENDMDL
MODEL 4
REMARK VINA RESULT: -2.913655648      2.161      4.763
REMARK  2 active torsions:
REMARK  status: ('A' for Active; 'I' for Inactive)
REMARK       I    between atoms: C1_2  and  N1_3 
REMARK    1  A    between atoms: C1_2  and  C22_28 
REMARK    2  A    between atoms: N1_3  and  N2_5 
ROOT
HETATM    1  N2  UNL     1      10.792   5.527   8.855  1.00  0.00    -0.230 N 
HETATM    2  C2  UNL     1      11.563   6.590   8.331  1.00  0.00     0.274 A 
HETATM    3  O2  UNL     1      11.759   6.846   7.094  1.00  0.00    -0.266 OA
HETATM    4  C3  UNL     1      12.113   7.364   9.433  1.00  0.00     0.043 A 
HETATM    5  C4  UNL     1      12.930   8.505   9.411  1.00  0.00     0.018 A 
HETATM    6  C5  UNL     1      13.314   9.056  10.596  1.00  0.00     0.001 A 
HETATM    7  C6  UNL     1      12.914   8.518  11.793  1.00  0.00     0.001 A 
HETATM    8  C7  UNL     1      12.123   7.412  11.780  1.00  0.00     0.011 A 
HETATM    9  C8  UNL     1      11.697   6.801  10.599  1.00  0.00    -0.003 A 
HETATM   10  C9  UNL     1      10.862   5.618  10.294  1.00  0.00     0.142 A 
HETATM   11  C10 UNL     1      11.587   4.397  10.789  1.00  0.00    -0.002 A 
HETATM   12  C11 UNL     1      12.983   4.465  10.943  1.00  0.00     0.012 A 
HETATM   13  C12 UNL     1      13.692   3.394  11.374  1.00  0.00     0.001 A 
HETATM   14  C13 UNL     1      13.053   2.217  11.671  1.00  0.00     0.001 A 
HETATM   15  C14 UNL     1      11.668   2.129  11.525  1.00  0.00     0.019 A 
HETATM   16  C15 UNL     1      10.986   3.221  11.091  1.00  0.00     0.015 A 
HETATM   17  S1  UNL     1       9.187   3.095  10.914  1.00  0.00    -0.089 SA
HETATM   18  C16 UNL     1       8.650   4.793  11.188  1.00  0.00     0.015 A 
HETATM   19  C17 UNL     1       7.413   5.079  11.704  1.00  0.00     0.019 A 
HETATM   20  C18 UNL     1       7.002   6.390  11.919  1.00  0.00     0.001 A 
HETATM   21  C19 UNL     1       7.845   7.410  11.611  1.00  0.00     0.001 A 
HETATM   22  C20 UNL     1       9.092   7.149  11.091  1.00  0.00     0.012 A 
HETATM   23  C21 UNL     1       9.512   5.810  10.872  1.00  0.00    -0.002 A 
ENDROOT
BRANCH   1  24
HETATM   24  N1  UNL     1      10.120   4.617   8.032  1.00  0.00    -0.259 N 
HETATM   25  C1  UNL     1       8.785   4.835   7.587  1.00  0.00     0.270 C 
HETATM   26  O1  UNL     1       8.218   5.886   7.964  1.00  0.00    -0.266 OA
ATOM     27  H1  UNL     1      10.604   3.766   7.741  1.00  0.00     0.190 HD
BRANCH  25  28
HETATM   28  C22 UNL     1       8.066   3.916   6.736  1.00  0.00     0.033 A 
HETATM   29  C23 UNL     1       8.715   2.935   6.008  1.00  0.00     0.017 A 
HETATM   30  C24 UNL     1       7.985   2.087   5.214  1.00  0.00     0.001 A 
HETATM   31  C25 UNL     1       6.615   2.191   5.126  1.00  0.00     0.000 A 
HETATM   32  C26 UNL     1       5.969   3.166   5.849  1.00  0.00     0.001 A 
HETATM   33  C27 UNL     1       6.695   4.023   6.648  1.00  0.00     0.017 A 
ENDBRANCH  25  28
ENDBRANCH   1  24
TORSDOF 2
ENDMDL
MODEL 5
REMARK VINA RESULT: -2.192618985      2.652      6.578
REMARK  2 active torsions:
REMARK  status: ('A' for Active; 'I' for Inactive)
REMARK       I    between atoms: C1_2  and  N1_3 
REMARK    1  A    between atoms: C1_2  and  C22_28 
REMARK    2  A    between atoms: N1_3  and  N2_5 
ROOT
HETATM    1  N2  UNL     1      11.731   3.853   6.228  1.00  0.00    -0.230 N 
HETATM    2  C2  UNL     1      12.670   2.802   6.344  1.00  0.00     0.274 A 
HETATM    3  O2  UNL     1      12.487   1.582   6.010  1.00  0.00    -0.266 OA
HETATM    4  C3  UNL     1      13.901   3.328   6.912  1.00  0.00     0.043 A 
HETATM    5  C4  UNL     1      15.107   2.674   7.208  1.00  0.00     0.018 A 
HETATM    6  C5  UNL     1      16.130   3.399   7.739  1.00  0.00     0.001 A 
HETATM    7  C6  UNL     1      15.999   4.743   7.983  1.00  0.00     0.001 A 
HETATM    8  C7  UNL     1      14.817   5.347   7.686  1.00  0.00     0.011 A 
HETATM    9  C8  UNL     1      13.731   4.659   7.141  1.00  0.00    -0.003 A 
HETATM   10  C9  UNL     1      12.362   5.048   6.736  1.00  0.00     0.142 A 
HETATM   11  C10 UNL     1      11.613   5.464   7.971  1.00  0.00    -0.002 A 
HETATM   12  C11 UNL     1      12.050   4.976   9.215  1.00  0.00     0.012 A 
HETATM   13  C12 UNL     1      11.410   5.306  10.362  1.00  0.00     0.001 A 
HETATM   14  C13 UNL     1      10.313   6.132  10.327  1.00  0.00     0.001 A 
HETATM   15  C14 UNL     1       9.863   6.627   9.102  1.00  0.00     0.019 A 
HETATM   16  C15 UNL     1      10.528   6.276   7.971  1.00  0.00     0.015 A 
HETATM   17  S1  UNL     1       9.937   6.934   6.389  1.00  0.00    -0.089 SA
HETATM   18  C16 UNL     1      11.443   6.984   5.403  1.00  0.00     0.015 A 
HETATM   19  C17 UNL     1      11.609   7.897   4.394  1.00  0.00     0.019 A 
HETATM   20  C18 UNL     1      12.775   7.938   3.636  1.00  0.00     0.001 A 
HETATM   21  C19 UNL     1      13.772   7.055   3.902  1.00  0.00     0.001 A 
HETATM   22  C20 UNL     1      13.630   6.128   4.910  1.00  0.00     0.012 A 
HETATM   23  C21 UNL     1      12.440   6.086   5.683  1.00  0.00    -0.002 A 
ENDROOT
BRANCH   1  24
HETATM   24  N1  UNL     1      10.452   3.656   5.695  1.00  0.00    -0.259 N 
HETATM   25  C1  UNL     1       9.368   3.172   6.481  1.00  0.00     0.270 C 
HETATM   26  O1  UNL     1       9.598   2.921   7.687  1.00  0.00    -0.266 OA
ATOM     27  H1  UNL     1      10.292   3.865   4.710  1.00  0.00     0.190 HD
BRANCH  25  28
HETATM   28  C22 UNL     1       8.037   2.960   5.962  1.00  0.00     0.033 A 
HETATM   29  C23 UNL     1       6.964   3.733   6.365  1.00  0.00     0.017 A 
HETATM   30  C24 UNL     1       5.719   3.491   5.841  1.00  0.00     0.001 A 
HETATM   31  C25 UNL     1       5.514   2.490   4.919  1.00  0.00     0.000 A 
HETATM   32  C26 UNL     1       6.581   1.720   4.517  1.00  0.00     0.001 A 
HETATM   33  C27 UNL     1       7.834   1.956   5.040  1.00  0.00     0.017 A 
ENDBRANCH  25  28
ENDBRANCH   1  24
TORSDOF 2
ENDMDL
