MODEL 1
REMARK VINA RESULT: -7.634205789      0.000      0.000
REMARK  3 active torsions:
REMARK  status: ('A' for Active; 'I' for Inactive)
REMARK    1  A    between atoms: S1_2  and  C2_5 
REMARK    2  A    between atoms: C7_10  and  N1_11 
REMARK    3  A    between atoms: N1_11  and  C8_13 
ROOT
HETATM    1  C8  UNL     1      10.422   5.113   7.364  1.00  0.00     0.054 A 
HETATM    2  C9  UNL     1       9.641   4.153   6.738  1.00  0.00     0.001 A 
HETATM    3  C10 UNL     1       8.656   3.535   7.437  1.00  0.00     0.052 A 
HETATM    4  N2  UNL     1       8.371   3.798   8.750  1.00  0.00    -0.354 N 
ATOM      5  H2  UNL     1       7.619   3.305   9.231  1.00  0.00     0.166 HD
HETATM    6  C11 UNL     1       9.098   4.709   9.379  1.00  0.00     0.056 A 
HETATM    7  C12 UNL     1      10.105   5.365   8.719  1.00  0.00     0.019 A 
HETATM    8  C13 UNL     1      10.851   6.312   9.396  1.00  0.00     0.017 A 
HETATM    9  C14 UNL     1      10.615   6.624  10.721  1.00  0.00     0.013 A 
HETATM   10  C15 UNL     1       9.595   5.956  11.373  1.00  0.00    -0.024 A 
HETATM   11  C16 UNL     1       9.363   6.274  12.705  1.00  0.00     0.012 A 
HETATM   12  C17 UNL     1       8.352   5.630  13.401  1.00  0.00     0.001 A 
HETATM   13  C18 UNL     1       7.587   4.678  12.758  1.00  0.00     0.001 A 
HETATM   14  C19 UNL     1       7.832   4.373  11.430  1.00  0.00     0.014 A 
HETATM   15  C20 UNL     1       8.825   4.995  10.720  1.00  0.00     0.002 A 
HETATM   16  C21 UNL     1       7.983   2.605   6.532  1.00  0.00    -0.002 A 
HETATM   17  C22 UNL     1       6.909   1.759   6.757  1.00  0.00     0.014 A 
HETATM   18  C23 UNL     1       6.449   0.993   5.721  1.00  0.00     0.001 A 
HETATM   19  C24 UNL     1       7.023   1.045   4.474  1.00  0.00     0.001 A 
HETATM   20  C25 UNL     1       8.091   1.885   4.241  1.00  0.00     0.008 A 
HETATM   21  C26 UNL     1       8.561   2.659   5.279  1.00  0.00    -0.041 A 
HETATM   22  C27 UNL     1       9.692   3.629   5.340  1.00  0.00     0.082 A 
ENDROOT
BRANCH   1  23
HETATM   23  N1  UNL     1      11.364   5.780   6.848  1.00  0.00    -0.354 N 
ATOM     24  H1  UNL     1      11.063   6.715   6.575  1.00  0.00     0.166 HD
BRANCH  23  25
HETATM   25  C7  UNL     1      12.689   5.564   6.562  1.00  0.00     0.054 A 
HETATM   26  C2  UNL     1      13.279   6.179   5.458  1.00  0.00     0.085 A 
HETATM   27  C3  UNL     1      14.610   5.987   5.169  1.00  0.00     0.026 A 
HETATM   28  C4  UNL     1      15.366   5.178   5.983  1.00  0.00     0.002 A 
HETATM   29  C5  UNL     1      14.830   4.548   7.089  1.00  0.00     0.002 A 
HETATM   30  C6  UNL     1      13.507   4.749   7.360  1.00  0.00     0.031 A 
BRANCH  26  31
HETATM   31  S1  UNL     1      12.331   7.237   4.414  1.00  0.00     0.174 S 
HETATM   32  C1  UNL     1      11.092   6.238   3.577  1.00  0.00     0.167 C 
HETATM   33  O1  UNL     1      13.224   7.804   3.358  1.00  0.00    -0.223 OA
HETATM   34  O2  UNL     1      11.586   8.276   5.159  1.00  0.00    -0.223 OA
ENDBRANCH  26  31
ENDBRANCH  23  25
ENDBRANCH   1  23
TORSDOF 3
ENDMDL
MODEL 2
REMARK VINA RESULT: -7.259623705      1.661      2.280
REMARK  3 active torsions:
REMARK  status: ('A' for Active; 'I' for Inactive)
REMARK    1  A    between atoms: S1_2  and  C2_5 
REMARK    2  A    between atoms: C7_10  and  N1_11 
REMARK    3  A    between atoms: N1_11  and  C8_13 
ROOT
HETATM    1  C8  UNL     1      10.814   5.204   7.796  1.00  0.00     0.054 A 
HETATM    2  C9  UNL     1       9.974   4.343   7.106  1.00  0.00     0.001 A 
HETATM    3  C10 UNL     1       8.854   3.875   7.713  1.00  0.00     0.052 A 
HETATM    4  N2  UNL     1       8.486   4.200   8.991  1.00  0.00    -0.354 N 
ATOM      5  H2  UNL     1       7.633   3.820   9.402  1.00  0.00     0.166 HD
HETATM    6  C11 UNL     1       9.266   5.020   9.679  1.00  0.00     0.056 A 
HETATM    7  C12 UNL     1      10.409   5.523   9.113  1.00  0.00     0.019 A 
HETATM    8  C13 UNL     1      11.208   6.377   9.850  1.00  0.00     0.017 A 
HETATM    9  C14 UNL     1      10.893   6.744  11.144  1.00  0.00     0.013 A 
HETATM   10  C15 UNL     1       9.737   6.230  11.702  1.00  0.00    -0.024 A 
HETATM   11  C16 UNL     1       9.428   6.603  13.003  1.00  0.00     0.012 A 
HETATM   12  C17 UNL     1       8.279   6.112  13.605  1.00  0.00     0.001 A 
HETATM   13  C18 UNL     1       7.457   5.257  12.899  1.00  0.00     0.001 A 
HETATM   14  C19 UNL     1       7.782   4.895  11.603  1.00  0.00     0.014 A 
HETATM   15  C20 UNL     1       8.911   5.366  10.986  1.00  0.00     0.002 A 
HETATM   16  C21 UNL     1       8.150   3.024   6.755  1.00  0.00    -0.002 A 
HETATM   17  C22 UNL     1       6.957   2.332   6.884  1.00  0.00     0.014 A 
HETATM   18  C23 UNL     1       6.497   1.612   5.815  1.00  0.00     0.001 A 
HETATM   19  C24 UNL     1       7.186   1.563   4.628  1.00  0.00     0.001 A 
HETATM   20  C25 UNL     1       8.374   2.249   4.491  1.00  0.00     0.008 A 
HETATM   21  C26 UNL     1       8.845   2.975   5.563  1.00  0.00    -0.041 A 
HETATM   22  C27 UNL     1      10.084   3.789   5.723  1.00  0.00     0.082 A 
ENDROOT
BRANCH   1  23
HETATM   23  N1  UNL     1      11.881   5.730   7.366  1.00  0.00    -0.354 N 
ATOM     24  H1  UNL     1      12.607   5.757   8.082  1.00  0.00     0.166 HD
BRANCH  23  25
HETATM   25  C7  UNL     1      12.309   6.274   6.181  1.00  0.00     0.054 A 
HETATM   26  C2  UNL     1      13.585   5.988   5.697  1.00  0.00     0.085 A 
HETATM   27  C3  UNL     1      14.021   6.511   4.502  1.00  0.00     0.026 A 
HETATM   28  C4  UNL     1      13.185   7.326   3.778  1.00  0.00     0.002 A 
HETATM   29  C5  UNL     1      11.912   7.639   4.213  1.00  0.00     0.002 A 
HETATM   30  C6  UNL     1      11.495   7.111   5.402  1.00  0.00     0.031 A 
BRANCH  26  31
HETATM   31  S1  UNL     1      14.665   4.928   6.600  1.00  0.00     0.174 S 
HETATM   32  C1  UNL     1      14.166   3.227   6.298  1.00  0.00     0.167 C 
HETATM   33  O1  UNL     1      14.487   5.183   8.062  1.00  0.00    -0.223 OA
HETATM   34  O2  UNL     1      16.076   5.025   6.165  1.00  0.00    -0.223 OA
ENDBRANCH  26  31
ENDBRANCH  23  25
ENDBRANCH   1  23
TORSDOF 3
ENDMDL
MODEL 3
REMARK VINA RESULT: -6.639987681      1.451      1.821
REMARK  3 active torsions:
REMARK  status: ('A' for Active; 'I' for Inactive)
REMARK    1  A    between atoms: S1_2  and  C2_5 
REMARK    2  A    between atoms: C7_10  and  N1_11 
REMARK    3  A    between atoms: N1_11  and  C8_13 
ROOT
HETATM    1  C8  UNL     1      10.981   4.037   7.191  1.00  0.00     0.054 A 
HETATM    2  C9  UNL     1       9.706   3.701   6.759  1.00  0.00     0.001 A 
HETATM    3  C10 UNL     1       8.630   4.094   7.485  1.00  0.00     0.052 A 
HETATM    4  N2  UNL     1       8.715   4.818   8.645  1.00  0.00    -0.354 N 
ATOM      5  H2  UNL     1       7.874   5.089   9.155  1.00  0.00     0.166 HD
HETATM    6  C11 UNL     1       9.917   5.155   9.087  1.00  0.00     0.056 A 
HETATM    7  C12 UNL     1      11.038   4.785   8.390  1.00  0.00     0.019 A 
HETATM    8  C13 UNL     1      12.282   5.148   8.870  1.00  0.00     0.017 A 
HETATM    9  C14 UNL     1      12.437   5.877  10.034  1.00  0.00     0.013 A 
HETATM   10  C15 UNL     1      11.298   6.245  10.726  1.00  0.00    -0.024 A 
HETATM   11  C16 UNL     1      11.460   6.977  11.894  1.00  0.00     0.012 A 
HETATM   12  C17 UNL     1      10.347   7.368  12.622  1.00  0.00     0.001 A 
HETATM   13  C18 UNL     1       9.089   7.023  12.173  1.00  0.00     0.001 A 
HETATM   14  C19 UNL     1       8.945   6.293  11.007  1.00  0.00     0.014 A 
HETATM   15  C20 UNL     1      10.029   5.894  10.269  1.00  0.00     0.002 A 
HETATM   16  C21 UNL     1       7.430   3.635   6.789  1.00  0.00    -0.002 A 
HETATM   17  C22 UNL     1       6.092   3.798   7.112  1.00  0.00     0.014 A 
HETATM   18  C23 UNL     1       5.146   3.280   6.271  1.00  0.00     0.001 A 
HETATM   19  C24 UNL     1       5.491   2.609   5.123  1.00  0.00     0.001 A 
HETATM   20  C25 UNL     1       6.819   2.442   4.794  1.00  0.00     0.008 A 
HETATM   21  C26 UNL     1       7.778   2.960   5.636  1.00  0.00    -0.041 A 
HETATM   22  C27 UNL     1       9.267   2.924   5.561  1.00  0.00     0.082 A 
ENDROOT
BRANCH   1  23
HETATM   23  N1  UNL     1      12.074   3.755   6.622  1.00  0.00    -0.354 N 
ATOM     24  H1  UNL     1      12.016   2.882   6.098  1.00  0.00     0.166 HD
BRANCH  23  25
HETATM   25  C7  UNL     1      13.319   4.326   6.531  1.00  0.00     0.054 A 
HETATM   26  C2  UNL     1      13.507   5.487   5.782  1.00  0.00     0.085 A 
HETATM   27  C3  UNL     1      14.745   6.080   5.697  1.00  0.00     0.026 A 
HETATM   28  C4  UNL     1      15.808   5.519   6.361  1.00  0.00     0.002 A 
HETATM   29  C5  UNL     1      15.674   4.371   7.117  1.00  0.00     0.002 A 
HETATM   30  C6  UNL     1      14.438   3.794   7.190  1.00  0.00     0.031 A 
BRANCH  26  31
HETATM   31  S1  UNL     1      12.151   6.234   4.939  1.00  0.00     0.174 S 
HETATM   32  C1  UNL     1      12.802   7.497   3.837  1.00  0.00     0.167 C 
HETATM   33  O1  UNL     1      11.282   6.929   5.937  1.00  0.00    -0.223 OA
HETATM   34  O2  UNL     1      11.403   5.288   4.083  1.00  0.00    -0.223 OA
ENDBRANCH  26  31
ENDBRANCH  23  25
ENDBRANCH   1  23
TORSDOF 3
ENDMDL
MODEL 4
REMARK VINA RESULT: -6.199666715      2.915      6.630
REMARK  3 active torsions:
REMARK  status: ('A' for Active; 'I' for Inactive)
REMARK    1  A    between atoms: S1_2  and  C2_5 
REMARK    2  A    between atoms: C7_10  and  N1_11 
REMARK    3  A    between atoms: N1_11  and  C8_13 
ROOT
HETATM    1  C8  UNL     1      11.080   4.637   8.470  1.00  0.00     0.054 A 
HETATM    2  C9  UNL     1      11.936   5.132   7.498  1.00  0.00     0.001 A 
HETATM    3  C10 UNL     1      11.688   4.868   6.191  1.00  0.00     0.052 A 
HETATM    4  N2  UNL     1      10.624   4.126   5.751  1.00  0.00    -0.354 N 
ATOM      5  H2  UNL     1      10.480   3.955   4.756  1.00  0.00     0.166 HD
HETATM    6  C11 UNL     1       9.785   3.637   6.653  1.00  0.00     0.056 A 
HETATM    7  C12 UNL     1       9.990   3.876   7.987  1.00  0.00     0.019 A 
HETATM    8  C13 UNL     1       9.102   3.355   8.910  1.00  0.00     0.017 A 
HETATM    9  C14 UNL     1       8.009   2.598   8.533  1.00  0.00     0.013 A 
HETATM   10  C15 UNL     1       7.815   2.367   7.184  1.00  0.00    -0.024 A 
HETATM   11  C16 UNL     1       6.715   1.606   6.812  1.00  0.00     0.012 A 
HETATM   12  C17 UNL     1       6.479   1.346   5.470  1.00  0.00     0.001 A 
HETATM   13  C18 UNL     1       7.344   1.850   4.521  1.00  0.00     0.001 A 
HETATM   14  C19 UNL     1       8.436   2.606   4.909  1.00  0.00     0.014 A 
HETATM   15  C20 UNL     1       8.691   2.877   6.228  1.00  0.00     0.002 A 
HETATM   16  C21 UNL     1      12.720   5.531   5.397  1.00  0.00    -0.002 A 
HETATM   17  C22 UNL     1      12.898   5.579   4.024  1.00  0.00     0.014 A 
HETATM   18  C23 UNL     1      13.949   6.296   3.522  1.00  0.00     0.001 A 
HETATM   19  C24 UNL     1      14.824   6.963   4.344  1.00  0.00     0.001 A 
HETATM   20  C25 UNL     1      14.656   6.921   5.712  1.00  0.00     0.008 A 
HETATM   21  C26 UNL     1      13.600   6.200   6.225  1.00  0.00    -0.041 A 
HETATM   22  C27 UNL     1      13.176   5.956   7.633  1.00  0.00     0.082 A 
ENDROOT
BRANCH   1  23
HETATM   23  N1  UNL     1      11.171   4.805   9.719  1.00  0.00    -0.354 N 
ATOM     24  H1  UNL     1      11.055   3.930  10.231  1.00  0.00     0.166 HD
BRANCH  23  25
HETATM   25  C7  UNL     1      11.385   5.867  10.563  1.00  0.00     0.054 A 
HETATM   26  C2  UNL     1      10.496   6.127  11.605  1.00  0.00     0.085 A 
HETATM   27  C3  UNL     1      10.709   7.176  12.469  1.00  0.00     0.026 A 
HETATM   28  C4  UNL     1      11.813   7.975  12.300  1.00  0.00     0.002 A 
HETATM   29  C5  UNL     1      12.724   7.759  11.285  1.00  0.00     0.002 A 
HETATM   30  C6  UNL     1      12.497   6.713  10.436  1.00  0.00     0.031 A 
BRANCH  26  31
HETATM   31  S1  UNL     1       9.085   5.101  11.851  1.00  0.00     0.174 S 
HETATM   32  C1  UNL     1       8.208   5.690  13.307  1.00  0.00     0.167 C 
HETATM   33  O1  UNL     1       9.542   3.709  12.149  1.00  0.00    -0.223 OA
HETATM   34  O2  UNL     1       8.116   5.164  10.735  1.00  0.00    -0.223 OA
ENDBRANCH  26  31
ENDBRANCH  23  25
ENDBRANCH   1  23
TORSDOF 3
ENDMDL
MODEL 5
REMARK VINA RESULT: -6.012726042      3.062      6.664
REMARK  3 active torsions:
REMARK  status: ('A' for Active; 'I' for Inactive)
REMARK    1  A    between atoms: S1_2  and  C2_5 
REMARK    2  A    between atoms: C7_10  and  N1_11 
REMARK    3  A    between atoms: N1_11  and  C8_13 
ROOT
HETATM    1  C8  UNL     1      10.676   4.712   8.191  1.00  0.00     0.054 A 
HETATM    2  C9  UNL     1      11.588   5.203   7.268  1.00  0.00     0.001 A 
HETATM    3  C10 UNL     1      11.454   4.876   5.958  1.00  0.00     0.052 A 
HETATM    4  N2  UNL     1      10.457   4.075   5.470  1.00  0.00    -0.354 N 
ATOM      5  H2  UNL     1      10.400   3.858   4.474  1.00  0.00     0.166 HD
HETATM    6  C11 UNL     1       9.569   3.588   6.323  1.00  0.00     0.056 A 
HETATM    7  C12 UNL     1       9.657   3.889   7.658  1.00  0.00     0.019 A 
HETATM    8  C13 UNL     1       8.719   3.370   8.530  1.00  0.00     0.017 A 
HETATM    9  C14 UNL     1       7.689   2.555   8.102  1.00  0.00     0.013 A 
HETATM   10  C15 UNL     1       7.611   2.262   6.754  1.00  0.00    -0.024 A 
HETATM   11  C16 UNL     1       6.573   1.442   6.330  1.00  0.00     0.012 A 
HETATM   12  C17 UNL     1       6.455   1.120   4.987  1.00  0.00     0.001 A 
HETATM   13  C18 UNL     1       7.373   1.619   4.087  1.00  0.00     0.001 A 
HETATM   14  C19 UNL     1       8.402   2.434   4.526  1.00  0.00     0.014 A 
HETATM   15  C20 UNL     1       8.541   2.768   5.848  1.00  0.00     0.002 A 
HETATM   16  C21 UNL     1      12.521   5.548   5.219  1.00  0.00    -0.002 A 
HETATM   17  C22 UNL     1      12.806   5.548   3.863  1.00  0.00     0.014 A 
HETATM   18  C23 UNL     1      13.866   6.286   3.415  1.00  0.00     0.001 A 
HETATM   19  C24 UNL     1      14.648   7.021   4.272  1.00  0.00     0.001 A 
HETATM   20  C25 UNL     1      14.372   7.027   5.623  1.00  0.00     0.008 A 
HETATM   21  C26 UNL     1      13.307   6.285   6.083  1.00  0.00    -0.041 A 
HETATM   22  C27 UNL     1      12.782   6.080   7.464  1.00  0.00     0.082 A 
ENDROOT
BRANCH   1  23
HETATM   23  N1  UNL     1      10.661   4.934   9.435  1.00  0.00    -0.354 N 
ATOM     24  H1  UNL     1      10.049   5.714   9.675  1.00  0.00     0.166 HD
BRANCH  23  25
HETATM   25  C7  UNL     1      11.260   4.393  10.545  1.00  0.00     0.054 A 
HETATM   26  C2  UNL     1      10.594   4.385  11.770  1.00  0.00     0.085 A 
HETATM   27  C3  UNL     1      11.173   3.829  12.887  1.00  0.00     0.026 A 
HETATM   28  C4  UNL     1      12.426   3.273  12.789  1.00  0.00     0.002 A 
HETATM   29  C5  UNL     1      13.127   3.254  11.599  1.00  0.00     0.002 A 
HETATM   30  C6  UNL     1      12.536   3.811  10.501  1.00  0.00     0.031 A 
BRANCH  26  31
HETATM   31  S1  UNL     1       8.977   5.075  11.911  1.00  0.00     0.174 S 
HETATM   32  C1  UNL     1       7.781   3.762  11.631  1.00  0.00     0.167 C 
HETATM   33  O1  UNL     1       8.783   6.084  10.825  1.00  0.00    -0.223 OA
HETATM   34  O2  UNL     1       8.689   5.613  13.258  1.00  0.00    -0.223 OA
ENDBRANCH  26  31
ENDBRANCH  23  25
ENDBRANCH   1  23
TORSDOF 3
ENDMDL
