MODEL 1
REMARK VINA RESULT: -6.708245132      0.000      0.000
REMARK  6 active torsions:
REMARK  status: ('A' for Active; 'I' for Inactive)
REMARK    1  A    between atoms: C2_3  and  S1_4 
REMARK    2  A    between atoms: S1_4  and  C3_5 
REMARK    3  A    between atoms: C3_5  and  C4_6 
REMARK    4  A    between atoms: C4_6  and  C5_7 
REMARK    5  A    between atoms: C5_7  and  O1_8 
REMARK    6  A    between atoms: C10_18  and  N3_19 
ROOT
HETATM    1  C3  UNL     1      11.164  -2.210  19.640  1.00  0.00     0.086 C 
ENDROOT
BRANCH   1   2
HETATM    2  S1  UNL     1      11.219  -2.857  17.976  1.00  0.00    -0.112 SA
BRANCH   2   3
HETATM    3  C2  UNL     1       9.941  -2.249  16.929  1.00  0.00     0.073 A 
HETATM    4  N1  UNL     1       9.347  -2.905  15.930  1.00  0.00    -0.327 N 
HETATM    5  C1  UNL     1       9.681  -4.254  15.550  1.00  0.00     0.159 C 
HETATM    6  C10 UNL     1       8.413  -2.144  15.339  1.00  0.00     0.176 A 
HETATM    7  C9  UNL     1       8.405  -0.911  16.005  1.00  0.00     0.058 A 
HETATM    8  C8  UNL     1       9.367  -1.001  16.992  1.00  0.00     0.041 A 
BRANCH   6   9
HETATM    9  N3  UNL     1       7.561  -2.464  14.247  1.00  0.00    -0.098 N 
HETATM   10  O2  UNL     1       6.414  -2.884  14.435  1.00  0.00    -0.531 OA
HETATM   11  O3  UNL     1       7.984  -2.317  12.957  1.00  0.00    -0.531 OA
ENDBRANCH   6   9
ENDBRANCH   2   3
ENDBRANCH   1   2
BRANCH   1  12
HETATM   12  C4  UNL     1      11.692  -0.792  19.737  1.00  0.00     0.080 C 
BRANCH  12  13
HETATM   13  C5  UNL     1      12.661  -0.646  20.856  1.00  0.00     0.234 C 
HETATM   14  C6  UNL     1      12.188  -1.355  22.131  1.00  0.00     0.144 C 
HETATM   15  S2  UNL     1      13.790  -1.348  23.041  1.00  0.00    -0.137 SA
HETATM   16  C7  UNL     1      14.847  -0.925  21.593  1.00  0.00     0.309 C 
HETATM   17  N2  UNL     1      13.906  -1.288  20.529  1.00  0.00    -0.034 N 
ATOM     18  H22 UNL     1      13.818  -2.295  20.392  1.00  0.00     0.281 HD
ATOM     19  H21 UNL     1      14.245  -1.062  19.594  1.00  0.00     0.281 HD
BRANCH  13  20
HETATM   20  O1  UNL     1      12.812   0.700  21.163  1.00  0.00    -0.364 OA
ATOM     21  H1  UNL     1      12.237   0.926  21.884  1.00  0.00     0.212 HD
ENDBRANCH  13  20
ENDBRANCH  12  13
ENDBRANCH   1  12
TORSDOF 6
ENDMDL
MODEL 2
REMARK VINA RESULT: -6.691556455      2.668      7.268
REMARK  6 active torsions:
REMARK  status: ('A' for Active; 'I' for Inactive)
REMARK    1  A    between atoms: C2_3  and  S1_4 
REMARK    2  A    between atoms: S1_4  and  C3_5 
REMARK    3  A    between atoms: C3_5  and  C4_6 
REMARK    4  A    between atoms: C4_6  and  C5_7 
REMARK    5  A    between atoms: C5_7  and  O1_8 
REMARK    6  A    between atoms: C10_18  and  N3_19 
ROOT
HETATM    1  C3  UNL     1      10.406  -3.844  19.347  1.00  0.00     0.086 C 
ENDROOT
BRANCH   1   2
HETATM    2  S1  UNL     1      12.024  -3.668  20.081  1.00  0.00    -0.112 SA
BRANCH   2   3
HETATM    3  C2  UNL     1      12.421  -2.017  20.552  1.00  0.00     0.073 A 
HETATM    4  N1  UNL     1      13.542  -1.604  21.144  1.00  0.00    -0.327 N 
HETATM    5  C1  UNL     1      14.629  -2.480  21.500  1.00  0.00     0.159 C 
HETATM    6  C10 UNL     1      13.516  -0.280  21.360  1.00  0.00     0.176 A 
HETATM    7  C9  UNL     1      12.290   0.192  20.871  1.00  0.00     0.058 A 
HETATM    8  C8  UNL     1      11.625  -0.910  20.372  1.00  0.00     0.041 A 
BRANCH   6   9
HETATM    9  N3  UNL     1      14.505   0.547  21.961  1.00  0.00    -0.098 N 
HETATM   10  O2  UNL     1      15.380   1.092  21.279  1.00  0.00    -0.531 OA
HETATM   11  O3  UNL     1      14.516   0.765  23.309  1.00  0.00    -0.531 OA
ENDBRANCH   6   9
ENDBRANCH   2   3
ENDBRANCH   1   2
BRANCH   1  12
HETATM   12  C4  UNL     1      10.454  -3.938  17.834  1.00  0.00     0.080 C 
BRANCH  12  13
HETATM   13  C5  UNL     1      10.152  -2.629  17.197  1.00  0.00     0.234 C 
HETATM   14  C6  UNL     1       9.393  -2.788  15.874  1.00  0.00     0.144 C 
HETATM   15  S2  UNL     1       8.826  -1.045  15.688  1.00  0.00    -0.137 SA
HETATM   16  C7  UNL     1       9.188  -0.526  17.418  1.00  0.00     0.309 C 
HETATM   17  N2  UNL     1       9.267  -1.858  18.027  1.00  0.00    -0.034 N 
ATOM     18  H22 UNL     1       8.356  -2.295  18.164  1.00  0.00     0.281 HD
ATOM     19  H21 UNL     1       9.546  -1.838  19.008  1.00  0.00     0.281 HD
BRANCH  13  20
HETATM   20  O1  UNL     1      11.341  -1.968  16.915  1.00  0.00    -0.364 OA
ATOM     21  H1  UNL     1      11.361  -1.142  17.384  1.00  0.00     0.212 HD
ENDBRANCH  13  20
ENDBRANCH  12  13
ENDBRANCH   1  12
TORSDOF 6
ENDMDL
MODEL 3
REMARK VINA RESULT: -6.675685188      1.379      1.724
REMARK  6 active torsions:
REMARK  status: ('A' for Active; 'I' for Inactive)
REMARK    1  A    between atoms: C2_3  and  S1_4 
REMARK    2  A    between atoms: S1_4  and  C3_5 
REMARK    3  A    between atoms: C3_5  and  C4_6 
REMARK    4  A    between atoms: C4_6  and  C5_7 
REMARK    5  A    between atoms: C5_7  and  O1_8 
REMARK    6  A    between atoms: C10_18  and  N3_19 
ROOT
HETATM    1  C3  UNL     1      11.914  -0.980  20.320  1.00  0.00     0.086 C 
ENDROOT
BRANCH   1   2
HETATM    2  S1  UNL     1      11.474  -2.251  19.146  1.00  0.00    -0.112 SA
BRANCH   2   3
HETATM    3  C2  UNL     1      10.321  -1.729  17.922  1.00  0.00     0.073 A 
HETATM    4  N1  UNL     1       9.903  -2.430  16.867  1.00  0.00    -0.327 N 
HETATM    5  C1  UNL     1      10.353  -3.765  16.565  1.00  0.00     0.159 C 
HETATM    6  C10 UNL     1       9.021  -1.730  16.138  1.00  0.00     0.176 A 
HETATM    7  C9  UNL     1       8.859  -0.489  16.770  1.00  0.00     0.058 A 
HETATM    8  C8  UNL     1       9.681  -0.512  17.879  1.00  0.00     0.041 A 
BRANCH   6   9
HETATM    9  N3  UNL     1       8.342  -2.112  14.948  1.00  0.00    -0.098 N 
HETATM   10  O2  UNL     1       8.929  -2.140  13.861  1.00  0.00    -0.531 OA
HETATM   11  O3  UNL     1       7.022  -2.459  14.971  1.00  0.00    -0.531 OA
ENDBRANCH   6   9
ENDBRANCH   2   3
ENDBRANCH   1   2
BRANCH   1  12
HETATM   12  C4  UNL     1      12.975  -1.430  21.305  1.00  0.00     0.080 C 
BRANCH  12  13
HETATM   13  C5  UNL     1      13.865  -0.305  21.700  1.00  0.00     0.234 C 
HETATM   14  C6  UNL     1      14.115  -0.267  23.213  1.00  0.00     0.144 C 
HETATM   15  S2  UNL     1      15.554   0.883  23.209  1.00  0.00    -0.137 SA
HETATM   16  C7  UNL     1      15.905   0.767  21.404  1.00  0.00     0.309 C 
HETATM   17  N2  UNL     1      15.172  -0.472  21.125  1.00  0.00    -0.034 N 
ATOM     18  H22 UNL     1      15.654  -1.310  21.450  1.00  0.00     0.281 HD
ATOM     19  H21 UNL     1      15.150  -0.716  20.134  1.00  0.00     0.281 HD
BRANCH  13  20
HETATM   20  O1  UNL     1      13.270   0.899  21.348  1.00  0.00    -0.364 OA
ATOM     21  H1  UNL     1      13.538   1.574  21.960  1.00  0.00     0.212 HD
ENDBRANCH  13  20
ENDBRANCH  12  13
ENDBRANCH   1  12
TORSDOF 6
ENDMDL
MODEL 4
REMARK VINA RESULT: -6.668272697      1.955      2.733
REMARK  6 active torsions:
REMARK  status: ('A' for Active; 'I' for Inactive)
REMARK    1  A    between atoms: C2_3  and  S1_4 
REMARK    2  A    between atoms: S1_4  and  C3_5 
REMARK    3  A    between atoms: C3_5  and  C4_6 
REMARK    4  A    between atoms: C4_6  and  C5_7 
REMARK    5  A    between atoms: C5_7  and  O1_8 
REMARK    6  A    between atoms: C10_18  and  N3_19 
ROOT
HETATM    1  C3  UNL     1      10.546  -3.220  19.179  1.00  0.00     0.086 C 
ENDROOT
BRANCH   1   2
HETATM    2  S1  UNL     1      10.821  -2.501  17.568  1.00  0.00    -0.112 SA
BRANCH   2   3
HETATM    3  C2  UNL     1       9.735  -3.104  16.319  1.00  0.00     0.073 A 
HETATM    4  N1  UNL     1       8.948  -2.377  15.526  1.00  0.00    -0.327 N 
HETATM    5  C1  UNL     1       8.868  -0.939  15.579  1.00  0.00     0.159 C 
HETATM    6  C10 UNL     1       8.252  -3.158  14.686  1.00  0.00     0.176 A 
HETATM    7  C9  UNL     1       8.618  -4.483  14.958  1.00  0.00     0.058 A 
HETATM    8  C8  UNL     1       9.544  -4.424  15.981  1.00  0.00     0.041 A 
BRANCH   6   9
HETATM    9  N3  UNL     1       7.311  -2.781  13.688  1.00  0.00    -0.098 N 
HETATM   10  O2  UNL     1       7.683  -2.366  12.585  1.00  0.00    -0.531 OA
HETATM   11  O3  UNL     1       5.968  -2.867  13.919  1.00  0.00    -0.531 OA
ENDBRANCH   6   9
ENDBRANCH   2   3
ENDBRANCH   1   2
BRANCH   1  12
HETATM   12  C4  UNL     1      11.756  -3.970  19.702  1.00  0.00     0.080 C 
BRANCH  12  13
HETATM   13  C5  UNL     1      12.144  -3.500  21.059  1.00  0.00     0.234 C 
HETATM   14  C6  UNL     1      13.230  -2.418  21.010  1.00  0.00     0.144 C 
HETATM   15  S2  UNL     1      13.068  -1.809  22.741  1.00  0.00    -0.137 SA
HETATM   16  C7  UNL     1      11.448  -2.613  23.091  1.00  0.00     0.309 C 
HETATM   17  N2  UNL     1      11.031  -2.861  21.707  1.00  0.00    -0.034 N 
ATOM     18  H22 UNL     1      10.708  -2.022  21.225  1.00  0.00     0.281 HD
ATOM     19  H21 UNL     1      10.162  -3.390  21.635  1.00  0.00     0.281 HD
BRANCH  13  20
HETATM   20  O1  UNL     1      12.654  -4.566  21.788  1.00  0.00    -0.364 OA
ATOM     21  H1  UNL     1      12.181  -4.643  22.608  1.00  0.00     0.212 HD
ENDBRANCH  13  20
ENDBRANCH  12  13
ENDBRANCH   1  12
TORSDOF 6
ENDMDL
MODEL 5
REMARK VINA RESULT: -6.620399007      1.184      1.917
REMARK  6 active torsions:
REMARK  status: ('A' for Active; 'I' for Inactive)
REMARK    1  A    between atoms: C2_3  and  S1_4 
REMARK    2  A    between atoms: S1_4  and  C3_5 
REMARK    3  A    between atoms: C3_5  and  C4_6 
REMARK    4  A    between atoms: C4_6  and  C5_7 
REMARK    5  A    between atoms: C5_7  and  O1_8 
REMARK    6  A    between atoms: C10_18  and  N3_19 
ROOT
HETATM    1  C3  UNL     1      11.497  -3.548  18.808  1.00  0.00     0.086 C 
ENDROOT
BRANCH   1   2
HETATM    2  S1  UNL     1      11.043  -2.400  17.518  1.00  0.00    -0.112 SA
BRANCH   2   3
HETATM    3  C2  UNL     1       9.898  -3.052  16.349  1.00  0.00     0.073 A 
HETATM    4  N1  UNL     1       9.044  -2.358  15.595  1.00  0.00    -0.327 N 
HETATM    5  C1  UNL     1       8.930  -0.922  15.631  1.00  0.00     0.159 C 
HETATM    6  C10 UNL     1       8.319  -3.171  14.813  1.00  0.00     0.176 A 
HETATM    7  C9  UNL     1       8.736  -4.482  15.082  1.00  0.00     0.058 A 
HETATM    8  C8  UNL     1       9.721  -4.382  16.044  1.00  0.00     0.041 A 
BRANCH   6   9
HETATM    9  N3  UNL     1       7.308  -2.836  13.870  1.00  0.00    -0.098 N 
HETATM   10  O2  UNL     1       6.110  -2.932  14.158  1.00  0.00    -0.531 OA
HETATM   11  O3  UNL     1       7.631  -2.396  12.618  1.00  0.00    -0.531 OA
ENDBRANCH   6   9
ENDBRANCH   2   3
ENDBRANCH   1   2
BRANCH   1  12
HETATM   12  C4  UNL     1      10.862  -3.213  20.144  1.00  0.00     0.080 C 
BRANCH  12  13
HETATM   13  C5  UNL     1      11.727  -2.308  20.948  1.00  0.00     0.234 C 
HETATM   14  C6  UNL     1      11.748  -2.692  22.432  1.00  0.00     0.144 C 
HETATM   15  S2  UNL     1      13.217  -1.701  22.936  1.00  0.00    -0.137 SA
HETATM   16  C7  UNL     1      13.831  -1.363  21.232  1.00  0.00     0.309 C 
HETATM   17  N2  UNL     1      13.098  -2.421  20.529  1.00  0.00    -0.034 N 
ATOM     18  H22 UNL     1      13.491  -3.351  20.674  1.00  0.00     0.281 HD
ATOM     19  H21 UNL     1      13.216  -2.391  19.516  1.00  0.00     0.281 HD
BRANCH  13  20
HETATM   20  O1  UNL     1      11.241  -1.010  20.862  1.00  0.00    -0.364 OA
ATOM     21  H1  UNL     1      11.766  -0.440  21.411  1.00  0.00     0.212 HD
ENDBRANCH  13  20
ENDBRANCH  12  13
ENDBRANCH   1  12
TORSDOF 6
ENDMDL
