MODEL 1
REMARK VINA RESULT: -7.577874546      0.000      0.000
REMARK  6 active torsions:
REMARK  status: ('A' for Active; 'I' for Inactive)
REMARK    1  A    between atoms: C3_6  and  C4_7 
REMARK    2  A    between atoms: N2_8  and  N3_10 
REMARK       I    between atoms: N3_10  and  C5_12 
REMARK    3  A    between atoms: C5_12  and  C6_14 
REMARK    4  A    between atoms: C6_14  and  S1_15 
REMARK    5  A    between atoms: S1_15  and  C7_16 
REMARK    6  A    between atoms: C7_16  and  C8_20 
ROOT
HETATM    1  C1  UNL     1      13.983  -1.026  24.418  1.00  0.00     0.072 C 
HETATM    2  C2  UNL     1      12.947  -1.818  23.701  1.00  0.00     0.052 A 
HETATM    3  N1  UNL     1      11.769  -2.229  24.222  1.00  0.00    -0.264 N 
ATOM      4  H1  UNL     1      11.446  -2.046  25.172  1.00  0.00     0.194 HD
HETATM    5  O1  UNL     1      11.115  -2.895  23.316  1.00  0.00    -0.235 OA
HETATM    6  C3  UNL     1      11.792  -2.956  22.208  1.00  0.00     0.138 A 
HETATM    7  C11 UNL     1      12.965  -2.281  22.410  1.00  0.00     0.105 A 
HETATM    8  C12 UNL     1      14.048  -2.061  21.500  1.00  0.00     0.104 C 
HETATM    9  N5  UNL     1      14.906  -1.898  20.761  1.00  0.00    -0.191 NA
ENDROOT
BRANCH   6  10
HETATM   10  C4  UNL     1      11.436  -3.600  20.946  1.00  0.00     0.148 C 
HETATM   11  N2  UNL     1      10.698  -3.053  20.066  1.00  0.00    -0.306 N 
ATOM     12  H2  UNL     1      10.324  -2.118  20.231  1.00  0.00     0.186 HD
BRANCH  11  13
HETATM   13  N3  UNL     1      10.394  -3.718  18.879  1.00  0.00    -0.270 N 
HETATM   14  C5  UNL     1      10.983  -3.310  17.669  1.00  0.00     0.245 C 
HETATM   15  O2  UNL     1      11.785  -2.344  17.657  1.00  0.00    -0.271 OA
ATOM     16  H3  UNL     1       9.743  -4.503  18.889  1.00  0.00     0.190 HD
BRANCH  14  17
HETATM   17  C6  UNL     1      10.716  -3.961  16.359  1.00  0.00     0.185 C 
BRANCH  17  18
HETATM   18  S1  UNL     1       9.011  -3.692  15.816  1.00  0.00    -0.107 SA
BRANCH  18  19
HETATM   19  C7  UNL     1       8.822  -1.992  15.337  1.00  0.00     0.044 C 
HETATM   20  N4  UNL     1       9.244  -1.657  14.179  1.00  0.00    -0.397 N 
ATOM     21  H42 UNL     1       9.667  -2.364  13.579  1.00  0.00     0.156 HD
ATOM     22  H41 UNL     1       9.135  -0.680  13.904  1.00  0.00     0.156 HD
BRANCH  19  23
HETATM   23  C8  UNL     1       8.207  -0.966  16.208  1.00  0.00     0.042 A 
HETATM   24  C9  UNL     1       9.145  -0.311  17.241  1.00  0.00     0.012 A 
HETATM   25  C10 UNL     1       7.994  -1.184  17.645  1.00  0.00     0.012 A 
ENDBRANCH  19  23
ENDBRANCH  18  19
ENDBRANCH  17  18
ENDBRANCH  14  17
ENDBRANCH  11  13
ENDBRANCH   6  10
TORSDOF 6
ENDMDL
MODEL 2
REMARK VINA RESULT: -7.542927922      1.119      1.121
REMARK  6 active torsions:
REMARK  status: ('A' for Active; 'I' for Inactive)
REMARK    1  A    between atoms: C3_6  and  C4_7 
REMARK    2  A    between atoms: N2_8  and  N3_10 
REMARK       I    between atoms: N3_10  and  C5_12 
REMARK    3  A    between atoms: C5_12  and  C6_14 
REMARK    4  A    between atoms: C6_14  and  S1_15 
REMARK    5  A    between atoms: S1_15  and  C7_16 
REMARK    6  A    between atoms: C7_16  and  C8_20 
ROOT
HETATM    1  C1  UNL     1      13.823  -1.614  24.419  1.00  0.00     0.072 C 
HETATM    2  C2  UNL     1      12.878  -1.969  23.325  1.00  0.00     0.052 A 
HETATM    3  N1  UNL     1      11.634  -2.471  23.491  1.00  0.00    -0.264 N 
ATOM      4  H1  UNL     1      11.189  -2.669  24.388  1.00  0.00     0.194 HD
HETATM    5  O1  UNL     1      11.095  -2.663  22.323  1.00  0.00    -0.235 OA
HETATM    6  C3  UNL     1      11.913  -2.315  21.374  1.00  0.00     0.138 A 
HETATM    7  C11 UNL     1      13.061  -1.867  21.970  1.00  0.00     0.105 A 
HETATM    8  C12 UNL     1      14.260  -1.374  21.363  1.00  0.00     0.104 C 
HETATM    9  N5  UNL     1      15.212  -0.985  20.860  1.00  0.00    -0.191 NA
ENDROOT
BRANCH   6  10
HETATM   10  C4  UNL     1      11.718  -2.362  19.926  1.00  0.00     0.148 C 
HETATM   11  N2  UNL     1      11.876  -3.418  19.234  1.00  0.00    -0.306 N 
ATOM     12  H2  UNL     1      12.152  -4.286  19.693  1.00  0.00     0.186 HD
BRANCH  11  13
HETATM   13  N3  UNL     1      11.675  -3.401  17.855  1.00  0.00    -0.270 N 
HETATM   14  C5  UNL     1      10.622  -4.139  17.285  1.00  0.00     0.245 C 
HETATM   15  O2  UNL     1       9.862  -4.816  18.018  1.00  0.00    -0.271 OA
ATOM     16  H3  UNL     1      12.292  -2.851  17.258  1.00  0.00     0.190 HD
BRANCH  14  17
HETATM   17  C6  UNL     1      10.336  -4.178  15.827  1.00  0.00     0.185 C 
BRANCH  17  18
HETATM   18  S1  UNL     1       8.706  -3.487  15.448  1.00  0.00    -0.107 SA
BRANCH  18  19
HETATM   19  C7  UNL     1       8.859  -1.727  15.261  1.00  0.00     0.044 C 
HETATM   20  N4  UNL     1       9.306  -1.291  14.147  1.00  0.00    -0.397 N 
ATOM     21  H42 UNL     1       9.556  -1.955  13.415  1.00  0.00     0.156 HD
ATOM     22  H41 UNL     1       9.393  -0.280  14.040  1.00  0.00     0.156 HD
BRANCH  19  23
HETATM   23  C8  UNL     1       8.497  -0.762  16.323  1.00  0.00     0.042 A 
HETATM   24  C9  UNL     1       9.537  -0.574  17.444  1.00  0.00     0.012 A 
HETATM   25  C10 UNL     1       8.191  -1.187  17.696  1.00  0.00     0.012 A 
ENDBRANCH  19  23
ENDBRANCH  18  19
ENDBRANCH  17  18
ENDBRANCH  14  17
ENDBRANCH  11  13
ENDBRANCH   6  10
TORSDOF 6
ENDMDL
MODEL 3
REMARK VINA RESULT: -7.394168762      2.111      2.856
REMARK  6 active torsions:
REMARK  status: ('A' for Active; 'I' for Inactive)
REMARK    1  A    between atoms: C3_6  and  C4_7 
REMARK    2  A    between atoms: N2_8  and  N3_10 
REMARK       I    between atoms: N3_10  and  C5_12 
REMARK    3  A    between atoms: C5_12  and  C6_14 
REMARK    4  A    between atoms: C6_14  and  S1_15 
REMARK    5  A    between atoms: S1_15  and  C7_16 
REMARK    6  A    between atoms: C7_16  and  C8_20 
ROOT
HETATM    1  C1  UNL     1      13.127  -1.742  24.067  1.00  0.00     0.072 C 
HETATM    2  C2  UNL     1      12.607  -2.256  22.771  1.00  0.00     0.052 A 
HETATM    3  N1  UNL     1      12.165  -3.513  22.543  1.00  0.00    -0.264 N 
ATOM      4  H1  UNL     1      12.134  -4.265  23.232  1.00  0.00     0.194 HD
HETATM    5  O1  UNL     1      11.787  -3.610  21.301  1.00  0.00    -0.235 OA
HETATM    6  C3  UNL     1      11.951  -2.481  20.679  1.00  0.00     0.138 A 
HETATM    7  C11 UNL     1      12.471  -1.591  21.579  1.00  0.00     0.105 A 
HETATM    8  C12 UNL     1      12.829  -0.218  21.388  1.00  0.00     0.104 C 
HETATM    9  N5  UNL     1      13.113   0.877  21.216  1.00  0.00    -0.191 NA
ENDROOT
BRANCH   6  10
HETATM   10  C4  UNL     1      11.660  -2.146  19.287  1.00  0.00     0.148 C 
HETATM   11  N2  UNL     1      10.576  -1.593  18.913  1.00  0.00    -0.306 N 
ATOM     12  H2  UNL     1       9.862  -1.364  19.604  1.00  0.00     0.186 HD
BRANCH  11  13
HETATM   13  N3  UNL     1      10.356  -1.296  17.569  1.00  0.00    -0.270 N 
HETATM   14  C5  UNL     1       9.043  -1.176  17.078  1.00  0.00     0.245 C 
HETATM   15  O2  UNL     1       8.068  -1.336  17.851  1.00  0.00    -0.271 OA
ATOM     16  H3  UNL     1      11.148  -1.166  16.941  1.00  0.00     0.190 HD
BRANCH  14  17
HETATM   17  C6  UNL     1       8.717  -0.863  15.662  1.00  0.00     0.185 C 
BRANCH  17  18
HETATM   18  S1  UNL     1       8.738  -2.348  14.628  1.00  0.00    -0.107 SA
BRANCH  18  19
HETATM   19  C7  UNL     1       8.044  -3.699  15.549  1.00  0.00     0.044 C 
HETATM   20  N4  UNL     1       6.811  -3.617  15.874  1.00  0.00    -0.397 N 
ATOM     21  H42 UNL     1       6.276  -2.794  15.598  1.00  0.00     0.156 HD
ATOM     22  H41 UNL     1       6.412  -4.393  16.403  1.00  0.00     0.156 HD
BRANCH  19  23
HETATM   23  C8  UNL     1       8.819  -4.893  15.950  1.00  0.00     0.042 A 
HETATM   24  C9  UNL     1       9.532  -4.807  17.314  1.00  0.00     0.012 A 
HETATM   25  C10 UNL     1      10.287  -4.887  16.021  1.00  0.00     0.012 A 
ENDBRANCH  19  23
ENDBRANCH  18  19
ENDBRANCH  17  18
ENDBRANCH  14  17
ENDBRANCH  11  13
ENDBRANCH   6  10
TORSDOF 6
ENDMDL
MODEL 4
REMARK VINA RESULT: -7.382385939      2.070      2.678
REMARK  6 active torsions:
REMARK  status: ('A' for Active; 'I' for Inactive)
REMARK    1  A    between atoms: C3_6  and  C4_7 
REMARK    2  A    between atoms: N2_8  and  N3_10 
REMARK       I    between atoms: N3_10  and  C5_12 
REMARK    3  A    between atoms: C5_12  and  C6_14 
REMARK    4  A    between atoms: C6_14  and  S1_15 
REMARK    5  A    between atoms: S1_15  and  C7_16 
REMARK    6  A    between atoms: C7_16  and  C8_20 
ROOT
HETATM    1  C1  UNL     1      14.931   0.837  25.423  1.00  0.00     0.072 C 
HETATM    2  C2  UNL     1      14.256  -0.231  24.636  1.00  0.00     0.052 A 
HETATM    3  N1  UNL     1      13.552  -1.263  25.153  1.00  0.00    -0.264 N 
ATOM      4  H1  UNL     1      13.396  -1.436  26.147  1.00  0.00     0.194 HD
HETATM    5  O1  UNL     1      13.104  -2.000  24.179  1.00  0.00    -0.235 OA
HETATM    6  C3  UNL     1      13.471  -1.518  23.028  1.00  0.00     0.138 A 
HETATM    7  C11 UNL     1      14.207  -0.391  23.276  1.00  0.00     0.105 A 
HETATM    8  C12 UNL     1      14.834   0.500  22.346  1.00  0.00     0.104 C 
HETATM    9  N5  UNL     1      15.332   1.198  21.589  1.00  0.00    -0.191 NA
ENDROOT
BRANCH   6  10
HETATM   10  C4  UNL     1      13.192  -2.024  21.686  1.00  0.00     0.148 C 
HETATM   11  N2  UNL     1      13.207  -3.261  21.388  1.00  0.00    -0.306 N 
ATOM     12  H2  UNL     1      13.424  -3.951  22.108  1.00  0.00     0.186 HD
BRANCH  11  13
HETATM   13  N3  UNL     1      12.931  -3.682  20.089  1.00  0.00    -0.270 N 
HETATM   14  C5  UNL     1      11.909  -4.619  19.852  1.00  0.00     0.245 C 
HETATM   15  O2  UNL     1      11.244  -5.077  20.812  1.00  0.00    -0.271 OA
ATOM     16  H3  UNL     1      13.472  -3.310  19.308  1.00  0.00     0.190 HD
BRANCH  14  17
HETATM   17  C6  UNL     1      11.549  -5.123  18.500  1.00  0.00     0.185 C 
BRANCH  17  18
HETATM   18  S1  UNL     1      10.097  -4.271  17.836  1.00  0.00    -0.107 SA
BRANCH  18  19
HETATM   19  C7  UNL     1      10.466  -2.540  17.684  1.00  0.00     0.044 C 
HETATM   20  N4  UNL     1      11.551  -2.221  17.089  1.00  0.00    -0.397 N 
ATOM     21  H42 UNL     1      12.157  -2.957  16.728  1.00  0.00     0.156 HD
ATOM     22  H41 UNL     1      11.763  -1.226  17.002  1.00  0.00     0.156 HD
BRANCH  19  23
HETATM   23  C8  UNL     1       9.587  -1.472  18.208  1.00  0.00     0.042 A 
HETATM   24  C9  UNL     1       8.253  -1.272  17.463  1.00  0.00     0.012 A 
HETATM   25  C10 UNL     1       9.333  -0.231  17.464  1.00  0.00     0.012 A 
ENDBRANCH  19  23
ENDBRANCH  18  19
ENDBRANCH  17  18
ENDBRANCH  14  17
ENDBRANCH  11  13
ENDBRANCH   6  10
TORSDOF 6
ENDMDL
MODEL 5
REMARK VINA RESULT: -7.375293492      2.540      7.889
REMARK  6 active torsions:
REMARK  status: ('A' for Active; 'I' for Inactive)
REMARK    1  A    between atoms: C3_6  and  C4_7 
REMARK    2  A    between atoms: N2_8  and  N3_10 
REMARK       I    between atoms: N3_10  and  C5_12 
REMARK    3  A    between atoms: C5_12  and  C6_14 
REMARK    4  A    between atoms: C6_14  and  S1_15 
REMARK    5  A    between atoms: S1_15  and  C7_16 
REMARK    6  A    between atoms: C7_16  and  C8_20 
ROOT
HETATM    1  C1  UNL     1       7.483  -2.489  12.910  1.00  0.00     0.072 C 
HETATM    2  C2  UNL     1       8.247  -2.268  14.169  1.00  0.00     0.052 A 
HETATM    3  N1  UNL     1       8.967  -1.164  14.468  1.00  0.00    -0.264 N 
ATOM      4  H1  UNL     1       9.075  -0.345  13.869  1.00  0.00     0.194 HD
HETATM    5  O1  UNL     1       9.500  -1.313  15.646  1.00  0.00    -0.235 OA
HETATM    6  C3  UNL     1       9.177  -2.463  16.157  1.00  0.00     0.138 A 
HETATM    7  C11 UNL     1       8.378  -3.103  15.248  1.00  0.00     0.105 A 
HETATM    8  C12 UNL     1       7.764  -4.393  15.336  1.00  0.00     0.104 C 
HETATM    9  N5  UNL     1       7.283  -5.428  15.422  1.00  0.00    -0.191 NA
ENDROOT
BRANCH   6  10
HETATM   10  C4  UNL     1       9.552  -3.036  17.448  1.00  0.00     0.148 C 
HETATM   11  N2  UNL     1       9.804  -2.332  18.478  1.00  0.00    -0.306 N 
ATOM     12  H2  UNL     1       9.748  -1.316  18.420  1.00  0.00     0.186 HD
BRANCH  11  13
HETATM   13  N3  UNL     1      10.156  -2.937  19.683  1.00  0.00    -0.270 N 
HETATM   14  C5  UNL     1      11.511  -3.133  20.007  1.00  0.00     0.245 C 
HETATM   15  O2  UNL     1      12.406  -2.763  19.209  1.00  0.00    -0.271 OA
ATOM     16  H3  UNL     1       9.430  -3.238  20.332  1.00  0.00     0.190 HD
BRANCH  14  17
HETATM   17  C6  UNL     1      11.976  -3.768  21.268  1.00  0.00     0.185 C 
BRANCH  17  18
HETATM   18  S1  UNL     1      11.643  -2.720  22.705  1.00  0.00    -0.107 SA
BRANCH  18  19
HETATM   19  C7  UNL     1      13.069  -1.711  23.024  1.00  0.00     0.044 C 
HETATM   20  N4  UNL     1      13.721  -1.936  24.099  1.00  0.00    -0.397 N 
ATOM     21  H42 UNL     1      13.405  -2.674  24.728  1.00  0.00     0.156 HD
ATOM     22  H41 UNL     1      14.540  -1.356  24.282  1.00  0.00     0.156 HD
BRANCH  19  23
HETATM   23  C8  UNL     1      13.527  -0.639  22.112  1.00  0.00     0.042 A 
HETATM   24  C9  UNL     1      14.777  -0.960  21.270  1.00  0.00     0.012 A 
HETATM   25  C10 UNL     1      14.780   0.097  22.334  1.00  0.00     0.012 A 
ENDBRANCH  19  23
ENDBRANCH  18  19
ENDBRANCH  17  18
ENDBRANCH  14  17
ENDBRANCH  11  13
ENDBRANCH   6  10
TORSDOF 6
ENDMDL
