MODEL 1
REMARK VINA RESULT: -6.283811563      0.000      0.000
REMARK  8 active torsions:
REMARK  status: ('A' for Active; 'I' for Inactive)
REMARK       I    between atoms: N1_2  and  C2_4 
REMARK    1  A    between atoms: C2_4  and  O2_6 
REMARK    2  A    between atoms: O2_6  and  C3_7 
REMARK    3  A    between atoms: C3_7  and  C4_8 
REMARK    4  A    between atoms: C4_8  and  C5_9 
REMARK    5  A    between atoms: C5_9  and  O4_11 
REMARK    6  A    between atoms: O4_11  and  C6_12 
REMARK    7  A    between atoms: C11_20  and  C12_21 
REMARK    8  A    between atoms: C12_21  and  N3_22 
REMARK       I    between atoms: N3_22  and  C13_24 
ROOT
HETATM    1  C4  UNL     1      29.153  41.446  18.301  1.00  0.00     0.237 C 
HETATM    2  N2  UNL     1      28.224  40.921  19.200  1.00  0.00    -0.054 N 
ATOM      3  H21 UNL     1      28.370  39.930  19.397  1.00  0.00     0.278 HD
ATOM      4  H22 UNL     1      27.286  40.837  18.806  1.00  0.00     0.278 HD
HETATM    5  C9  UNL     1      28.270  41.742  20.375  1.00  0.00     0.239 C 
HETATM    6  C10 UNL     1      29.615  42.390  20.416  1.00  0.00     0.024 C 
HETATM    7  C11 UNL     1      30.398  41.900  21.643  1.00  0.00     0.010 C 
HETATM    8  C14 UNL     1      30.551  40.441  21.334  1.00  0.00     0.007 C 
HETATM    9  C15 UNL     1      30.841  40.434  19.862  1.00  0.00     0.008 C 
HETATM   10  C16 UNL     1      30.331  41.731  19.268  1.00  0.00     0.040 C 
ENDROOT
BRANCH   1  11
HETATM   11  C3  UNL     1      29.549  40.840  17.041  1.00  0.00     0.230 C 
BRANCH  11  12
HETATM   12  O2  UNL     1      30.609  41.149  16.262  1.00  0.00    -0.301 OA
BRANCH  12  13
HETATM   13  C2  UNL     1      31.802  40.537  16.037  1.00  0.00     0.360 C 
HETATM   14  N1  UNL     1      32.749  40.967  15.052  1.00  0.00    -0.341 N 
HETATM   15  C1  UNL     1      33.972  40.278  14.791  1.00  0.00     0.151 C 
ATOM     16  H1  UNL     1      32.540  41.805  14.511  1.00  0.00     0.164 HD
HETATM   17  O1  UNL     1      32.086  39.534  16.723  1.00  0.00    -0.239 OA
ENDBRANCH  12  13
ENDBRANCH  11  12
ENDBRANCH   1  11
BRANCH   1  18
HETATM   18  C5  UNL     1      28.630  42.860  17.929  1.00  0.00     0.298 C 
HETATM   19  O3  UNL     1      29.373  43.710  17.518  1.00  0.00    -0.262 OA
BRANCH  18  20
HETATM   20  O4  UNL     1      27.295  43.093  18.094  1.00  0.00    -0.315 OA
BRANCH  20  21
HETATM   21  C6  UNL     1      26.580  44.262  18.185  1.00  0.00     0.123 C 
HETATM   22  C7  UNL     1      25.742  44.159  19.554  1.00  0.00     0.040 C 
HETATM   23  C8  UNL     1      25.501  44.384  17.144  1.00  0.00     0.040 C 
ENDBRANCH  20  21
ENDBRANCH  18  20
ENDBRANCH   1  18
BRANCH   7  24
HETATM   24  C12 UNL     1      31.772  42.549  21.606  1.00  0.00     0.129 C 
BRANCH  24  25
HETATM   25  N3  UNL     1      32.700  41.791  22.392  1.00  0.00    -0.345 N 
HETATM   26  C13 UNL     1      33.949  41.385  21.798  1.00  0.00     0.328 C 
HETATM   27  N4  UNL     1      34.869  40.632  22.575  1.00  0.00    -0.040 NA
HETATM   28  O5  UNL     1      34.232  41.678  20.622  1.00  0.00    -0.251 OA
ATOM     29  H3  UNL     1      32.480  41.544  23.357  1.00  0.00     0.163 HD
ENDBRANCH  24  25
ENDBRANCH   7  24
TORSDOF 8
ENDMDL
MODEL 2
REMARK VINA RESULT: -6.256688787      2.913      6.417
REMARK  8 active torsions:
REMARK  status: ('A' for Active; 'I' for Inactive)
REMARK       I    between atoms: N1_2  and  C2_4 
REMARK    1  A    between atoms: C2_4  and  O2_6 
REMARK    2  A    between atoms: O2_6  and  C3_7 
REMARK    3  A    between atoms: C3_7  and  C4_8 
REMARK    4  A    between atoms: C4_8  and  C5_9 
REMARK    5  A    between atoms: C5_9  and  O4_11 
REMARK    6  A    between atoms: O4_11  and  C6_12 
REMARK    7  A    between atoms: C11_20  and  C12_21 
REMARK    8  A    between atoms: C12_21  and  N3_22 
REMARK       I    between atoms: N3_22  and  C13_24 
ROOT
HETATM    1  C4  UNL     1      31.324  41.161  19.291  1.00  0.00     0.237 C 
HETATM    2  N2  UNL     1      30.785  42.395  18.920  1.00  0.00    -0.054 N 
ATOM      3  H21 UNL     1      31.401  42.935  18.312  1.00  0.00     0.278 HD
ATOM      4  H22 UNL     1      30.745  43.063  19.691  1.00  0.00     0.278 HD
HETATM    5  C9  UNL     1      29.503  42.131  18.335  1.00  0.00     0.239 C 
HETATM    6  C10 UNL     1      29.522  40.727  17.827  1.00  0.00     0.024 C 
HETATM    7  C11 UNL     1      29.383  40.720  16.297  1.00  0.00     0.010 C 
HETATM    8  C14 UNL     1      30.639  41.424  15.881  1.00  0.00     0.007 C 
HETATM    9  C15 UNL     1      31.667  40.867  16.820  1.00  0.00     0.008 C 
HETATM   10  C16 UNL     1      30.955  40.321  18.041  1.00  0.00     0.040 C 
ENDROOT
BRANCH   1  11
HETATM   11  C3  UNL     1      32.673  40.938  19.783  1.00  0.00     0.230 C 
BRANCH  11  12
HETATM   12  O2  UNL     1      33.446  41.773  20.511  1.00  0.00    -0.301 OA
BRANCH  12  13
HETATM   13  C2  UNL     1      34.424  41.562  21.431  1.00  0.00     0.360 C 
HETATM   14  N1  UNL     1      35.801  41.901  21.228  1.00  0.00    -0.341 N 
HETATM   15  C1  UNL     1      36.824  41.621  22.183  1.00  0.00     0.151 C 
ATOM     16  H1  UNL     1      36.063  42.365  20.359  1.00  0.00     0.164 HD
HETATM   17  O1  UNL     1      34.107  41.032  22.515  1.00  0.00    -0.239 OA
ENDBRANCH  12  13
ENDBRANCH  11  12
ENDBRANCH   1  11
BRANCH   1  18
HETATM   18  C5  UNL     1      30.387  40.605  20.398  1.00  0.00     0.298 C 
HETATM   19  O3  UNL     1      29.914  39.504  20.318  1.00  0.00    -0.262 OA
BRANCH  18  20
HETATM   20  O4  UNL     1      30.124  41.424  21.459  1.00  0.00    -0.315 OA
BRANCH  20  21
HETATM   21  C6  UNL     1      30.717  41.534  22.692  1.00  0.00     0.123 C 
HETATM   22  C7  UNL     1      29.710  40.829  23.728  1.00  0.00     0.040 C 
HETATM   23  C8  UNL     1      30.779  42.949  23.200  1.00  0.00     0.040 C 
ENDBRANCH  20  21
ENDBRANCH  18  20
ENDBRANCH   1  18
BRANCH   7  24
HETATM   24  C12 UNL     1      29.461  39.275  15.830  1.00  0.00     0.129 C 
BRANCH  24  25
HETATM   25  N3  UNL     1      28.567  39.060  14.731  1.00  0.00    -0.345 N 
HETATM   26  C13 UNL     1      28.646  37.819  14.002  1.00  0.00     0.328 C 
HETATM   27  N4  UNL     1      27.762  37.604  12.911  1.00  0.00    -0.040 NA
HETATM   28  O5  UNL     1      29.471  36.939  14.308  1.00  0.00    -0.251 OA
ATOM     29  H3  UNL     1      27.887  39.773  14.469  1.00  0.00     0.163 HD
ENDBRANCH  24  25
ENDBRANCH   7  24
TORSDOF 8
ENDMDL
MODEL 3
REMARK VINA RESULT: -6.186071684      1.124      1.248
REMARK  8 active torsions:
REMARK  status: ('A' for Active; 'I' for Inactive)
REMARK       I    between atoms: N1_2  and  C2_4 
REMARK    1  A    between atoms: C2_4  and  O2_6 
REMARK    2  A    between atoms: O2_6  and  C3_7 
REMARK    3  A    between atoms: C3_7  and  C4_8 
REMARK    4  A    between atoms: C4_8  and  C5_9 
REMARK    5  A    between atoms: C5_9  and  O4_11 
REMARK    6  A    between atoms: O4_11  and  C6_12 
REMARK    7  A    between atoms: C11_20  and  C12_21 
REMARK    8  A    between atoms: C12_21  and  N3_22 
REMARK       I    between atoms: N3_22  and  C13_24 
ROOT
HETATM    1  C4  UNL     1      28.761  41.534  18.156  1.00  0.00     0.237 C 
HETATM    2  N2  UNL     1      27.860  40.988  19.071  1.00  0.00    -0.054 N 
ATOM      3  H21 UNL     1      27.992  39.986  19.215  1.00  0.00     0.278 HD
ATOM      4  H22 UNL     1      26.905  40.942  18.715  1.00  0.00     0.278 HD
HETATM    5  C9  UNL     1      27.976  41.752  20.279  1.00  0.00     0.239 C 
HETATM    6  C10 UNL     1      29.337  42.369  20.289  1.00  0.00     0.024 C 
HETATM    7  C11 UNL     1      30.160  41.806  21.456  1.00  0.00     0.010 C 
HETATM    8  C14 UNL     1      30.266  40.360  21.075  1.00  0.00     0.007 C 
HETATM    9  C15 UNL     1      30.491  40.416  19.593  1.00  0.00     0.008 C 
HETATM   10  C16 UNL     1      29.987  41.749  19.082  1.00  0.00     0.040 C 
ENDROOT
BRANCH   1  11
HETATM   11  C3  UNL     1      29.089  40.980  16.853  1.00  0.00     0.230 C 
BRANCH  11  12
HETATM   12  O2  UNL     1      30.306  40.853  16.280  1.00  0.00    -0.301 OA
BRANCH  12  13
HETATM   13  C2  UNL     1      31.026  41.654  15.451  1.00  0.00     0.360 C 
HETATM   14  N1  UNL     1      30.692  43.017  15.165  1.00  0.00    -0.341 N 
HETATM   15  C1  UNL     1      31.427  43.827  14.247  1.00  0.00     0.151 C 
ATOM     16  H1  UNL     1      29.889  43.430  15.640  1.00  0.00     0.164 HD
HETATM   17  O1  UNL     1      32.034  41.171  14.897  1.00  0.00    -0.239 OA
ENDBRANCH  12  13
ENDBRANCH  11  12
ENDBRANCH   1  11
BRANCH   1  18
HETATM   18  C5  UNL     1      28.256  42.975  17.872  1.00  0.00     0.298 C 
HETATM   19  O3  UNL     1      29.005  43.834  17.492  1.00  0.00    -0.262 OA
BRANCH  18  20
HETATM   20  O4  UNL     1      26.928  43.220  18.078  1.00  0.00    -0.315 OA
BRANCH  20  21
HETATM   21  C6  UNL     1      26.232  44.395  18.219  1.00  0.00     0.123 C 
HETATM   22  C7  UNL     1      25.638  44.375  19.713  1.00  0.00     0.040 C 
HETATM   23  C8  UNL     1      24.992  44.459  17.370  1.00  0.00     0.040 C 
ENDBRANCH  20  21
ENDBRANCH  18  20
ENDBRANCH   1  18
BRANCH   7  24
HETATM   24  C12 UNL     1      31.546  42.427  21.388  1.00  0.00     0.129 C 
BRANCH  24  25
HETATM   25  N3  UNL     1      32.454  41.707  22.231  1.00  0.00    -0.345 N 
HETATM   26  C13 UNL     1      33.753  41.354  21.715  1.00  0.00     0.328 C 
HETATM   27  N4  UNL     1      34.654  40.638  22.548  1.00  0.00    -0.040 NA
HETATM   28  O5  UNL     1      34.096  41.661  20.558  1.00  0.00    -0.251 OA
ATOM     29  H3  UNL     1      32.186  41.448  23.180  1.00  0.00     0.163 HD
ENDBRANCH  24  25
ENDBRANCH   7  24
TORSDOF 8
ENDMDL
MODEL 4
REMARK VINA RESULT: -6.183164124      1.145      1.257
REMARK  8 active torsions:
REMARK  status: ('A' for Active; 'I' for Inactive)
REMARK       I    between atoms: N1_2  and  C2_4 
REMARK    1  A    between atoms: C2_4  and  O2_6 
REMARK    2  A    between atoms: O2_6  and  C3_7 
REMARK    3  A    between atoms: C3_7  and  C4_8 
REMARK    4  A    between atoms: C4_8  and  C5_9 
REMARK    5  A    between atoms: C5_9  and  O4_11 
REMARK    6  A    between atoms: O4_11  and  C6_12 
REMARK    7  A    between atoms: C11_20  and  C12_21 
REMARK    8  A    between atoms: C12_21  and  N3_22 
REMARK       I    between atoms: N3_22  and  C13_24 
ROOT
HETATM    1  C4  UNL     1      28.888  41.454  18.249  1.00  0.00     0.237 C 
HETATM    2  N2  UNL     1      27.963  41.034  19.206  1.00  0.00    -0.054 N 
ATOM      3  H21 UNL     1      28.038  40.041  19.428  1.00  0.00     0.278 HD
ATOM      4  H22 UNL     1      27.004  41.017  18.858  1.00  0.00     0.278 HD
HETATM    5  C9  UNL     1      28.132  41.881  20.351  1.00  0.00     0.239 C 
HETATM    6  C10 UNL     1      29.526  42.418  20.309  1.00  0.00     0.024 C 
HETATM    7  C11 UNL     1      30.324  41.900  21.515  1.00  0.00     0.010 C 
HETATM    8  C14 UNL     1      30.343  40.425  21.247  1.00  0.00     0.007 C 
HETATM    9  C15 UNL     1      30.561  40.352  19.765  1.00  0.00     0.008 C 
HETATM   10  C16 UNL     1      30.131  41.669  19.152  1.00  0.00     0.040 C 
ENDROOT
BRANCH   1  11
HETATM   11  C3  UNL     1      29.173  40.782  16.992  1.00  0.00     0.230 C 
BRANCH  11  12
HETATM   12  O2  UNL     1      30.378  40.467  16.468  1.00  0.00    -0.301 OA
BRANCH  12  13
HETATM   13  C2  UNL     1      31.011  39.284  16.252  1.00  0.00     0.360 C 
HETATM   14  N1  UNL     1      30.360  38.102  15.771  1.00  0.00    -0.341 N 
HETATM   15  C1  UNL     1      31.030  36.853  15.603  1.00  0.00     0.151 C 
ATOM     16  H1  UNL     1      29.369  38.157  15.537  1.00  0.00     0.164 HD
HETATM   17  O1  UNL     1      32.233  39.219  16.496  1.00  0.00    -0.239 OA
ENDBRANCH  12  13
ENDBRANCH  11  12
ENDBRANCH   1  11
BRANCH   1  18
HETATM   18  C5  UNL     1      28.464  42.896  17.855  1.00  0.00     0.298 C 
HETATM   19  O3  UNL     1      29.254  43.670  17.385  1.00  0.00    -0.262 OA
BRANCH  18  20
HETATM   20  O4  UNL     1      27.162  43.242  18.072  1.00  0.00    -0.315 OA
BRANCH  20  21
HETATM   21  C6  UNL     1      26.553  44.469  18.185  1.00  0.00     0.123 C 
HETATM   22  C7  UNL     1      25.710  44.415  19.553  1.00  0.00     0.040 C 
HETATM   23  C8  UNL     1      25.489  44.704  17.148  1.00  0.00     0.040 C 
ENDBRANCH  20  21
ENDBRANCH  18  20
ENDBRANCH   1  18
BRANCH   7  24
HETATM   24  C12 UNL     1      31.743  42.432  21.394  1.00  0.00     0.129 C 
BRANCH  24  25
HETATM   25  N3  UNL     1      32.631  41.664  22.216  1.00  0.00    -0.345 N 
HETATM   26  C13 UNL     1      33.943  41.341  21.711  1.00  0.00     0.328 C 
HETATM   27  N4  UNL     1      34.825  40.579  22.523  1.00  0.00    -0.040 NA
HETATM   28  O5  UNL     1      34.313  41.715  20.583  1.00  0.00    -0.251 OA
ATOM     29  H3  UNL     1      32.341  41.351  23.142  1.00  0.00     0.163 HD
ENDBRANCH  24  25
ENDBRANCH   7  24
TORSDOF 8
ENDMDL
MODEL 5
REMARK VINA RESULT: -6.153391662      3.184      5.741
REMARK  8 active torsions:
REMARK  status: ('A' for Active; 'I' for Inactive)
REMARK       I    between atoms: N1_2  and  C2_4 
REMARK    1  A    between atoms: C2_4  and  O2_6 
REMARK    2  A    between atoms: O2_6  and  C3_7 
REMARK    3  A    between atoms: C3_7  and  C4_8 
REMARK    4  A    between atoms: C4_8  and  C5_9 
REMARK    5  A    between atoms: C5_9  and  O4_11 
REMARK    6  A    between atoms: O4_11  and  C6_12 
REMARK    7  A    between atoms: C11_20  and  C12_21 
REMARK    8  A    between atoms: C12_21  and  N3_22 
REMARK       I    between atoms: N3_22  and  C13_24 
ROOT
HETATM    1  C4  UNL     1      27.230  41.623  16.285  1.00  0.00     0.237 C 
HETATM    2  N2  UNL     1      27.475  42.993  16.392  1.00  0.00    -0.054 N 
ATOM      3  H21 UNL     1      26.693  43.510  16.795  1.00  0.00     0.278 HD
ATOM      4  H22 UNL     1      27.495  43.469  15.490  1.00  0.00     0.278 HD
HETATM    5  C9  UNL     1      28.693  43.142  17.135  1.00  0.00     0.239 C 
HETATM    6  C10 UNL     1      28.865  41.912  17.965  1.00  0.00     0.024 C 
HETATM    7  C11 UNL     1      28.794  42.270  19.457  1.00  0.00     0.010 C 
HETATM    8  C14 UNL     1      27.384  42.766  19.576  1.00  0.00     0.007 C 
HETATM    9  C15 UNL     1      26.615  41.811  18.713  1.00  0.00     0.008 C 
HETATM   10  C16 UNL     1      27.574  41.174  17.729  1.00  0.00     0.040 C 
ENDROOT
BRANCH   1  11
HETATM   11  C3  UNL     1      26.026  41.016  15.744  1.00  0.00     0.230 C 
BRANCH  11  12
HETATM   12  O2  UNL     1      25.390  39.901  16.164  1.00  0.00    -0.301 OA
BRANCH  12  13
HETATM   13  C2  UNL     1      24.113  39.658  16.563  1.00  0.00     0.360 C 
HETATM   14  N1  UNL     1      23.109  40.671  16.695  1.00  0.00    -0.341 N 
HETATM   15  C1  UNL     1      21.789  40.407  17.169  1.00  0.00     0.151 C 
ATOM     16  H1  UNL     1      23.349  41.628  16.438  1.00  0.00     0.164 HD
HETATM   17  O1  UNL     1      23.798  38.484  16.841  1.00  0.00    -0.239 OA
ENDBRANCH  12  13
ENDBRANCH  11  12
ENDBRANCH   1  11
BRANCH   1  18
HETATM   18  C5  UNL     1      28.395  41.049  15.433  1.00  0.00     0.298 C 
HETATM   19  O3  UNL     1      28.795  41.626  14.458  1.00  0.00    -0.262 OA
BRANCH  18  20
HETATM   20  O4  UNL     1      28.938  39.864  15.839  1.00  0.00    -0.315 OA
BRANCH  20  21
HETATM   21  C6  UNL     1      30.162  39.292  15.593  1.00  0.00     0.123 C 
HETATM   22  C7  UNL     1      29.853  37.810  15.053  1.00  0.00     0.040 C 
HETATM   23  C8  UNL     1      30.960  39.032  16.841  1.00  0.00     0.040 C 
ENDBRANCH  20  21
ENDBRANCH  18  20
ENDBRANCH   1  18
BRANCH   7  24
HETATM   24  C12 UNL     1      28.922  40.980  20.251  1.00  0.00     0.129 C 
BRANCH  24  25
HETATM   25  N3  UNL     1      28.928  41.261  21.656  1.00  0.00    -0.345 N 
HETATM   26  C13 UNL     1      30.066  40.855  22.442  1.00  0.00     0.328 C 
HETATM   27  N4  UNL     1      30.075  41.130  23.836  1.00  0.00    -0.040 NA
HETATM   28  O5  UNL     1      31.035  40.268  21.925  1.00  0.00    -0.251 OA
ATOM     29  H3  UNL     1      28.141  41.741  22.093  1.00  0.00     0.163 HD
ENDBRANCH  24  25
ENDBRANCH   7  24
TORSDOF 8
ENDMDL
