MODEL 1
REMARK VINA RESULT: -7.068710224      0.000      0.000
REMARK  7 active torsions:
REMARK  status: ('A' for Active; 'I' for Inactive)
REMARK    1  A    between atoms: C2_2  and  C4_4 
REMARK    2  A    between atoms: C2_2  and  S1_25 
REMARK    3  A    between atoms: C4_4  and  N1_5 
REMARK    4  A    between atoms: N1_5  and  C5_7 
REMARK    5  A    between atoms: C6_10  and  C7_11 
REMARK    6  A    between atoms: C7_11  and  N3_12 
REMARK    7  A    between atoms: N3_12  and  C8_14 
ROOT
HETATM    1  C5  UNL     1      31.038  40.959  18.487  1.00  0.00     0.271 C 
HETATM    2  N2  UNL     1      29.988  41.888  18.229  1.00  0.00    -0.387 N 
ATOM      3  H2  UNL     1      29.573  42.445  18.975  1.00  0.00     0.156 HD
HETATM    4  C6  UNL     1      29.549  41.998  16.889  1.00  0.00     0.114 C 
HETATM    5  C14 UNL     1      30.603  42.177  15.844  1.00  0.00     0.149 C 
HETATM    6  N4  UNL     1      31.699  41.266  16.112  1.00  0.00    -0.356 N 
ATOM      7  H4  UNL     1      32.547  41.274  15.546  1.00  0.00     0.162 HD
HETATM    8  C15 UNL     1      31.536  40.344  17.221  1.00  0.00     0.260 C 
HETATM    9  O1  UNL     1      31.807  39.134  17.053  1.00  0.00    -0.269 OA
ENDROOT
BRANCH   1  10
HETATM   10  N1  UNL     1      32.091  41.597  19.164  1.00  0.00    -0.373 N 
ATOM     11  H1  UNL     1      32.519  42.398  18.701  1.00  0.00     0.161 HD
BRANCH  10  12
HETATM   12  C4  UNL     1      32.598  41.241  20.395  1.00  0.00     0.082 C 
BRANCH  12  13
HETATM   13  C2  UNL     1      32.408  42.059  21.622  1.00  0.00     0.087 C 
HETATM   14  C1  UNL     1      32.330  43.538  21.350  1.00  0.00     0.037 C 
HETATM   15  C3  UNL     1      33.305  41.684  22.739  1.00  0.00     0.037 C 
BRANCH  13  16
HETATM   16  S1  UNL     1      30.701  41.692  22.246  1.00  0.00     0.153 S 
HETATM   17  C16 UNL     1      30.446  39.968  22.013  1.00  0.00     0.162 C 
HETATM   18  O2  UNL     1      29.798  42.496  21.367  1.00  0.00    -0.227 OA
HETATM   19  O3  UNL     1      30.568  42.157  23.640  1.00  0.00    -0.227 OA
ENDBRANCH  13  16
ENDBRANCH  12  13
ENDBRANCH  10  12
ENDBRANCH   1  10
BRANCH   4  20
HETATM   20  C7  UNL     1      28.621  43.223  16.784  1.00  0.00     0.140 C 
BRANCH  20  21
HETATM   21  N3  UNL     1      27.306  42.738  16.568  1.00  0.00    -0.415 N 
ATOM     22  H3  UNL     1      27.104  42.028  15.864  1.00  0.00     0.153 HD
BRANCH  21  23
HETATM   23  C8  UNL     1      26.279  43.297  17.389  1.00  0.00     0.076 C 
HETATM   24  C9  UNL     1      25.986  42.344  18.518  1.00  0.00     0.024 C 
HETATM   25  C10 UNL     1      26.548  42.917  19.795  1.00  0.00     0.002 C 
HETATM   26  C11 UNL     1      25.671  44.094  20.205  1.00  0.00     0.000 C 
HETATM   27  C12 UNL     1      25.669  45.062  19.066  1.00  0.00     0.002 C 
HETATM   28  C13 UNL     1      26.594  44.643  17.943  1.00  0.00     0.024 C 
ENDBRANCH  21  23
ENDBRANCH  20  21
ENDBRANCH   4  20
TORSDOF 7
ENDMDL
MODEL 2
REMARK VINA RESULT: -6.909627910      0.913      1.357
REMARK  7 active torsions:
REMARK  status: ('A' for Active; 'I' for Inactive)
REMARK    1  A    between atoms: C2_2  and  C4_4 
REMARK    2  A    between atoms: C2_2  and  S1_25 
REMARK    3  A    between atoms: C4_4  and  N1_5 
REMARK    4  A    between atoms: N1_5  and  C5_7 
REMARK    5  A    between atoms: C6_10  and  C7_11 
REMARK    6  A    between atoms: C7_11  and  N3_12 
REMARK    7  A    between atoms: N3_12  and  C8_14 
ROOT
HETATM    1  C5  UNL     1      31.095  40.716  18.565  1.00  0.00     0.271 C 
HETATM    2  N2  UNL     1      29.841  41.389  18.641  1.00  0.00    -0.387 N 
ATOM      3  H2  UNL     1      29.448  41.688  19.532  1.00  0.00     0.156 HD
HETATM    4  C6  UNL     1      29.167  41.621  17.419  1.00  0.00     0.114 C 
HETATM    5  C14 UNL     1      29.964  42.232  16.311  1.00  0.00     0.149 C 
HETATM    6  N4  UNL     1      31.259  41.586  16.244  1.00  0.00    -0.356 N 
ATOM      7  H4  UNL     1      31.978  41.900  15.592  1.00  0.00     0.162 HD
HETATM    8  C15 UNL     1      31.491  40.473  17.147  1.00  0.00     0.260 C 
HETATM    9  O1  UNL     1      31.984  39.415  16.697  1.00  0.00    -0.269 OA
ENDROOT
BRANCH   1  10
HETATM   10  N1  UNL     1      32.084  41.464  19.225  1.00  0.00    -0.373 N 
ATOM     11  H1  UNL     1      32.448  42.281  18.736  1.00  0.00     0.161 HD
BRANCH  10  12
HETATM   12  C4  UNL     1      32.608  41.197  20.471  1.00  0.00     0.082 C 
BRANCH  12  13
HETATM   13  C2  UNL     1      32.376  42.064  21.656  1.00  0.00     0.087 C 
HETATM   14  C1  UNL     1      32.262  43.526  21.316  1.00  0.00     0.037 C 
HETATM   15  C3  UNL     1      33.263  41.765  22.803  1.00  0.00     0.037 C 
BRANCH  13  16
HETATM   16  S1  UNL     1      30.669  41.678  22.269  1.00  0.00     0.153 S 
HETATM   17  C16 UNL     1      30.445  39.945  22.061  1.00  0.00     0.162 C 
HETATM   18  O2  UNL     1      29.761  42.451  21.368  1.00  0.00    -0.227 OA
HETATM   19  O3  UNL     1      30.513  42.162  23.654  1.00  0.00    -0.227 OA
ENDBRANCH  13  16
ENDBRANCH  12  13
ENDBRANCH  10  12
ENDBRANCH   1  10
BRANCH   4  20
HETATM   20  C7  UNL     1      27.991  42.579  17.689  1.00  0.00     0.140 C 
BRANCH  20  21
HETATM   21  N3  UNL     1      27.658  42.461  19.061  1.00  0.00    -0.415 N 
ATOM     22  H3  UNL     1      28.371  42.323  19.778  1.00  0.00     0.153 HD
BRANCH  21  23
HETATM   23  C8  UNL     1      26.269  42.545  19.388  1.00  0.00     0.076 C 
HETATM   24  C9  UNL     1      26.020  43.834  20.128  1.00  0.00     0.024 C 
HETATM   25  C10 UNL     1      25.293  44.785  19.211  1.00  0.00     0.002 C 
HETATM   26  C11 UNL     1      23.861  44.284  19.059  1.00  0.00     0.000 C 
HETATM   27  C12 UNL     1      23.935  42.887  18.532  1.00  0.00     0.002 C 
HETATM   28  C13 UNL     1      25.352  42.457  18.219  1.00  0.00     0.024 C 
ENDBRANCH  21  23
ENDBRANCH  20  21
ENDBRANCH   4  20
TORSDOF 7
ENDMDL
MODEL 3
REMARK VINA RESULT: -6.780769528      1.187      1.852
REMARK  7 active torsions:
REMARK  status: ('A' for Active; 'I' for Inactive)
REMARK    1  A    between atoms: C2_2  and  C4_4 
REMARK    2  A    between atoms: C2_2  and  S1_25 
REMARK    3  A    between atoms: C4_4  and  N1_5 
REMARK    4  A    between atoms: N1_5  and  C5_7 
REMARK    5  A    between atoms: C6_10  and  C7_11 
REMARK    6  A    between atoms: C7_11  and  N3_12 
REMARK    7  A    between atoms: N3_12  and  C8_14 
ROOT
HETATM    1  C5  UNL     1      30.960  40.510  17.867  1.00  0.00     0.271 C 
HETATM    2  N2  UNL     1      29.578  40.728  17.598  1.00  0.00    -0.387 N 
ATOM      3  H2  UNL     1      28.895  40.820  18.349  1.00  0.00     0.156 HD
HETATM    4  C6  UNL     1      29.198  40.812  16.238  1.00  0.00     0.114 C 
HETATM    5  C14 UNL     1      29.998  41.726  15.366  1.00  0.00     0.149 C 
HETATM    6  N4  UNL     1      31.407  41.545  15.654  1.00  0.00    -0.356 N 
ATOM      7  H4  UNL     1      32.120  42.121  15.206  1.00  0.00     0.162 HD
HETATM    8  C15 UNL     1      31.760  40.509  16.607  1.00  0.00     0.260 C 
HETATM    9  O1  UNL     1      32.676  39.704  16.323  1.00  0.00    -0.269 OA
ENDROOT
BRANCH   1  10
HETATM   10  N1  UNL     1      31.442  41.492  18.748  1.00  0.00    -0.373 N 
ATOM     11  H1  UNL     1      31.663  42.403  18.347  1.00  0.00     0.161 HD
BRANCH  10  12
HETATM   12  C4  UNL     1      31.642  41.340  20.103  1.00  0.00     0.082 C 
BRANCH  12  13
HETATM   13  C2  UNL     1      30.536  41.344  21.096  1.00  0.00     0.087 C 
HETATM   14  C1  UNL     1      30.201  39.976  21.625  1.00  0.00     0.037 C 
HETATM   15  C3  UNL     1      29.364  42.152  20.687  1.00  0.00     0.037 C 
BRANCH  13  16
HETATM   16  S1  UNL     1      31.187  42.194  22.611  1.00  0.00     0.153 S 
HETATM   17  C16 UNL     1      32.906  41.830  22.686  1.00  0.00     0.162 C 
HETATM   18  O2  UNL     1      30.451  41.557  23.746  1.00  0.00    -0.227 OA
HETATM   19  O3  UNL     1      30.858  43.631  22.559  1.00  0.00    -0.227 OA
ENDBRANCH  13  16
ENDBRANCH  12  13
ENDBRANCH  10  12
ENDBRANCH   1  10
BRANCH   4  20
HETATM   20  C7  UNL     1      27.743  41.312  16.171  1.00  0.00     0.140 C 
BRANCH  20  21
HETATM   21  N3  UNL     1      27.351  41.646  17.492  1.00  0.00    -0.415 N 
ATOM     22  H3  UNL     1      27.689  41.124  18.301  1.00  0.00     0.153 HD
BRANCH  21  23
HETATM   23  C8  UNL     1      26.456  42.751  17.630  1.00  0.00     0.076 C 
HETATM   24  C9  UNL     1      25.513  42.475  18.772  1.00  0.00     0.024 C 
HETATM   25  C10 UNL     1      25.894  43.353  19.937  1.00  0.00     0.002 C 
HETATM   26  C11 UNL     1      25.488  44.782  19.597  1.00  0.00     0.000 C 
HETATM   27  C12 UNL     1      26.181  45.147  18.323  1.00  0.00     0.002 C 
HETATM   28  C13 UNL     1      27.123  44.065  17.841  1.00  0.00     0.024 C 
ENDBRANCH  21  23
ENDBRANCH  20  21
ENDBRANCH   4  20
TORSDOF 7
ENDMDL
MODEL 4
REMARK VINA RESULT: -6.672625066      4.245      6.406
REMARK  7 active torsions:
REMARK  status: ('A' for Active; 'I' for Inactive)
REMARK    1  A    between atoms: C2_2  and  C4_4 
REMARK    2  A    between atoms: C2_2  and  S1_25 
REMARK    3  A    between atoms: C4_4  and  N1_5 
REMARK    4  A    between atoms: N1_5  and  C5_7 
REMARK    5  A    between atoms: C6_10  and  C7_11 
REMARK    6  A    between atoms: C7_11  and  N3_12 
REMARK    7  A    between atoms: N3_12  and  C8_14 
ROOT
HETATM    1  C5  UNL     1      31.793  38.931  15.974  1.00  0.00     0.271 C 
HETATM    2  N2  UNL     1      32.008  39.708  17.150  1.00  0.00    -0.387 N 
ATOM      3  H2  UNL     1      32.944  39.987  17.442  1.00  0.00     0.156 HD
HETATM    4  C6  UNL     1      30.861  40.074  17.892  1.00  0.00     0.114 C 
HETATM    5  C14 UNL     1      29.725  40.677  17.130  1.00  0.00     0.149 C 
HETATM    6  N4  UNL     1      29.516  39.922  15.910  1.00  0.00    -0.356 N 
ATOM      7  H4  UNL     1      28.824  40.209  15.218  1.00  0.00     0.162 HD
HETATM    8  C15 UNL     1      30.336  38.740  15.715  1.00  0.00     0.260 C 
HETATM    9  O1  UNL     1      29.790  37.671  15.360  1.00  0.00    -0.269 OA
ENDROOT
BRANCH   1  10
HETATM   10  N1  UNL     1      32.407  39.546  14.871  1.00  0.00    -0.373 N 
ATOM     11  H1  UNL     1      32.076  39.272  13.946  1.00  0.00     0.161 HD
BRANCH  10  12
HETATM   12  C4  UNL     1      33.414  40.485  14.921  1.00  0.00     0.082 C 
BRANCH  12  13
HETATM   13  C2  UNL     1      34.639  40.412  14.082  1.00  0.00     0.087 C 
HETATM   14  C1  UNL     1      35.790  41.210  14.632  1.00  0.00     0.037 C 
HETATM   15  C3  UNL     1      34.390  40.606  12.635  1.00  0.00     0.037 C 
BRANCH  13  16
HETATM   16  S1  UNL     1      35.274  38.676  14.220  1.00  0.00     0.153 S 
HETATM   17  C16 UNL     1      36.902  38.685  13.553  1.00  0.00     0.162 C 
HETATM   18  O2  UNL     1      34.348  37.867  13.371  1.00  0.00    -0.227 OA
HETATM   19  O3  UNL     1      35.180  38.218  15.620  1.00  0.00    -0.227 OA
ENDBRANCH  13  16
ENDBRANCH  12  13
ENDBRANCH  10  12
ENDBRANCH   1  10
BRANCH   4  20
HETATM   20  C7  UNL     1      31.278  41.115  18.947  1.00  0.00     0.140 C 
BRANCH  20  21
HETATM   21  N3  UNL     1      30.118  41.852  19.295  1.00  0.00    -0.415 N 
ATOM     22  H3  UNL     1      29.594  42.387  18.603  1.00  0.00     0.153 HD
BRANCH  21  23
HETATM   23  C8  UNL     1      29.723  41.805  20.667  1.00  0.00     0.076 C 
HETATM   24  C9  UNL     1      28.729  40.688  20.850  1.00  0.00     0.024 C 
HETATM   25  C10 UNL     1      29.403  39.555  21.582  1.00  0.00     0.002 C 
HETATM   26  C11 UNL     1      29.592  39.983  23.033  1.00  0.00     0.000 C 
HETATM   27  C12 UNL     1      30.393  41.246  23.020  1.00  0.00     0.002 C 
HETATM   28  C13 UNL     1      30.846  41.635  21.629  1.00  0.00     0.024 C 
ENDBRANCH  21  23
ENDBRANCH  20  21
ENDBRANCH   4  20
TORSDOF 7
ENDMDL
MODEL 5
REMARK VINA RESULT: -6.670752955      4.196      6.493
REMARK  7 active torsions:
REMARK  status: ('A' for Active; 'I' for Inactive)
REMARK    1  A    between atoms: C2_2  and  C4_4 
REMARK    2  A    between atoms: C2_2  and  S1_25 
REMARK    3  A    between atoms: C4_4  and  N1_5 
REMARK    4  A    between atoms: N1_5  and  C5_7 
REMARK    5  A    between atoms: C6_10  and  C7_11 
REMARK    6  A    between atoms: C7_11  and  N3_12 
REMARK    7  A    between atoms: N3_12  and  C8_14 
ROOT
HETATM    1  C5  UNL     1      32.054  40.082  15.698  1.00  0.00     0.271 C 
HETATM    2  N2  UNL     1      32.131  40.305  17.104  1.00  0.00    -0.387 N 
ATOM      3  H2  UNL     1      32.968  40.071  17.637  1.00  0.00     0.156 HD
HETATM    4  C6  UNL     1      30.990  40.865  17.725  1.00  0.00     0.114 C 
HETATM    5  C14 UNL     1      30.400  42.081  17.086  1.00  0.00     0.149 C 
HETATM    6  N4  UNL     1      30.350  41.888  15.651  1.00  0.00    -0.356 N 
ATOM      7  H4  UNL     1      30.034  42.630  15.025  1.00  0.00     0.162 HD
HETATM    8  C15 UNL     1      30.767  40.595  15.142  1.00  0.00     0.260 C 
HETATM    9  O1  UNL     1      30.047  40.007  14.304  1.00  0.00    -0.269 OA
ENDROOT
BRANCH   1  10
HETATM   10  N1  UNL     1      33.141  40.693  15.053  1.00  0.00    -0.373 N 
ATOM     11  H1  UNL     1      33.485  41.565  15.453  1.00  0.00     0.161 HD
BRANCH  10  12
HETATM   12  C4  UNL     1      33.786  40.224  13.929  1.00  0.00     0.082 C 
BRANCH  12  13
HETATM   13  C2  UNL     1      35.267  40.192  13.793  1.00  0.00     0.087 C 
HETATM   14  C1  UNL     1      35.974  41.150  14.713  1.00  0.00     0.037 C 
HETATM   15  C3  UNL     1      35.742  40.219  12.391  1.00  0.00     0.037 C 
BRANCH  13  16
HETATM   16  S1  UNL     1      35.824  38.549  14.447  1.00  0.00     0.153 S 
HETATM   17  C16 UNL     1      35.534  37.379  13.166  1.00  0.00     0.162 C 
HETATM   18  O2  UNL     1      34.938  38.291  15.623  1.00  0.00    -0.227 OA
HETATM   19  O3  UNL     1      37.225  38.639  14.900  1.00  0.00    -0.227 OA
ENDBRANCH  13  16
ENDBRANCH  12  13
ENDBRANCH  10  12
ENDBRANCH   1  10
BRANCH   4  20
HETATM   20  C7  UNL     1      31.370  41.269  19.162  1.00  0.00     0.140 C 
BRANCH  20  21
HETATM   21  N3  UNL     1      30.409  42.213  19.603  1.00  0.00    -0.415 N 
ATOM     22  H3  UNL     1      30.146  43.017  19.034  1.00  0.00     0.153 HD
BRANCH  21  23
HETATM   23  C8  UNL     1      29.829  41.977  20.887  1.00  0.00     0.076 C 
HETATM   24  C9  UNL     1      28.907  40.790  20.795  1.00  0.00     0.024 C 
HETATM   25  C10 UNL     1      29.556  39.618  21.489  1.00  0.00     0.002 C 
HETATM   26  C11 UNL     1      29.505  39.878  22.990  1.00  0.00     0.000 C 
HETATM   27  C12 UNL     1      30.202  41.178  23.237  1.00  0.00     0.002 C 
HETATM   28  C13 UNL     1      30.816  41.758  21.981  1.00  0.00     0.024 C 
ENDBRANCH  21  23
ENDBRANCH  20  21
ENDBRANCH   4  20
TORSDOF 7
ENDMDL
