MODEL 1
REMARK VINA RESULT: -7.635488550      0.000      0.000
REMARK  10 active torsions:
REMARK  status: ('A' for Active; 'I' for Inactive)
REMARK       I    between atoms: N2_3  and  C2_5 
REMARK       I    between atoms: C2_5  and  N3_7 
REMARK    1  A    between atoms: N3_7  and  C3_9 
REMARK    2  A    between atoms: C3_9  and  C4_10 
REMARK    3  A    between atoms: C6_12  and  N4_13 
REMARK    4  A    between atoms: N4_13  and  N5_15 
REMARK    5  A    between atoms: N5_15  and  C7_17 
REMARK    6  A    between atoms: C7_17  and  C8_18 
REMARK    7  A    between atoms: C8_18  and  C9_19 
REMARK    8  A    between atoms: C9_19  and  C10_20 
REMARK    9  A    between atoms: C10_20  and  C11_21 
REMARK   10  A    between atoms: C11_21  and  C12_22 
ROOT
HETATM    1  N1  UNL     1      38.028  40.800  22.599  1.00  0.00    -0.172 NA
HETATM    2  C1  UNL     1      37.147  41.451  22.292  1.00  0.00     0.185 C 
HETATM    3  N2  UNL     1      36.103  42.302  21.920  1.00  0.00    -0.245 N 
ATOM      4  H2  UNL     1      36.328  43.163  21.422  1.00  0.00     0.183 HD
HETATM    5  C2  UNL     1      34.716  42.014  22.209  1.00  0.00     0.329 C 
HETATM    6  O1  UNL     1      34.430  40.956  22.793  1.00  0.00    -0.246 OA
HETATM    7  N3  UNL     1      33.755  42.986  21.829  1.00  0.00    -0.338 N 
ATOM      8  H3  UNL     1      34.082  43.777  21.275  1.00  0.00     0.164 HD
ENDROOT
BRANCH   7   9
HETATM    9  C3  UNL     1      32.340  42.946  22.165  1.00  0.00     0.163 C 
BRANCH   9  10
HETATM   10  C4  UNL     1      31.664  41.975  21.223  1.00  0.00    -0.026 A 
HETATM   11  C5  UNL     1      31.914  41.955  19.870  1.00  0.00     0.059 A 
HETATM   12  C6  UNL     1      31.326  40.957  19.057  1.00  0.00     0.122 A 
HETATM   13  N6  UNL     1      30.517  40.063  19.705  1.00  0.00    -0.322 N 
HETATM   14  C13 UNL     1      30.247  40.051  21.006  1.00  0.00     0.150 A 
ATOM     15  H6  UNL     1      30.079  39.338  19.136  1.00  0.00     0.169 HD
HETATM   16  C14 UNL     1      30.834  41.020  21.766  1.00  0.00     0.003 A 
HETATM   17  O4  UNL     1      29.454  39.249  21.878  1.00  0.00    -0.335 OA
HETATM   18  C15 UNL     1      30.403  40.837  23.193  1.00  0.00     0.070 C 
HETATM   19  C16 UNL     1      29.058  40.135  22.964  1.00  0.00     0.182 C 
BRANCH  12  20
HETATM   20  N4  UNL     1      31.643  40.806  17.862  1.00  0.00    -0.286 N 
ATOM     21  H4  UNL     1      32.220  40.002  17.613  1.00  0.00     0.188 HD
BRANCH  20  22
HETATM   22  N5  UNL     1      31.254  41.671  16.857  1.00  0.00    -0.310 N 
ATOM     23  H5  UNL     1      31.961  42.138  16.288  1.00  0.00     0.186 HD
BRANCH  22  24
HETATM   24  C7  UNL     1      30.019  41.891  16.634  1.00  0.00     0.107 C 
BRANCH  24  25
HETATM   25  C8  UNL     1      29.397  43.145  17.063  1.00  0.00     0.019 C 
BRANCH  25  26
HETATM   26  C9  UNL     1      28.330  43.175  17.822  1.00  0.00     0.002 C 
BRANCH  26  27
HETATM   27  C10 UNL     1      28.063  42.319  18.951  1.00  0.00     0.007 C 
BRANCH  27  28
HETATM   28  C11 UNL     1      27.127  42.480  19.807  1.00  0.00     0.084 C 
BRANCH  28  29
HETATM   29  C12 UNL     1      25.891  43.194  19.763  1.00  0.00     0.198 C 
HETATM   30  O2  UNL     1      25.716  44.250  20.506  1.00  0.00    -0.645 OA
HETATM   31  O3  UNL     1      24.777  42.905  19.005  1.00  0.00    -0.645 OA
ENDBRANCH  28  29
ENDBRANCH  27  28
ENDBRANCH  26  27
ENDBRANCH  25  26
ENDBRANCH  24  25
ENDBRANCH  22  24
ENDBRANCH  20  22
ENDBRANCH  12  20
ENDBRANCH   9  10
ENDBRANCH   7   9
TORSDOF 10
ENDMDL
MODEL 2
REMARK VINA RESULT: -7.616438172      2.751      4.298
REMARK  10 active torsions:
REMARK  status: ('A' for Active; 'I' for Inactive)
REMARK       I    between atoms: N2_3  and  C2_5 
REMARK       I    between atoms: C2_5  and  N3_7 
REMARK    1  A    between atoms: N3_7  and  C3_9 
REMARK    2  A    between atoms: C3_9  and  C4_10 
REMARK    3  A    between atoms: C6_12  and  N4_13 
REMARK    4  A    between atoms: N4_13  and  N5_15 
REMARK    5  A    between atoms: N5_15  and  C7_17 
REMARK    6  A    between atoms: C7_17  and  C8_18 
REMARK    7  A    between atoms: C8_18  and  C9_19 
REMARK    8  A    between atoms: C9_19  and  C10_20 
REMARK    9  A    between atoms: C10_20  and  C11_21 
REMARK   10  A    between atoms: C11_21  and  C12_22 
ROOT
HETATM    1  N1  UNL     1      38.043  40.800  22.595  1.00  0.00    -0.172 NA
HETATM    2  C1  UNL     1      37.164  41.456  22.288  1.00  0.00     0.185 C 
HETATM    3  N2  UNL     1      36.124  42.311  21.915  1.00  0.00    -0.245 N 
ATOM      4  H2  UNL     1      36.354  43.168  21.413  1.00  0.00     0.183 HD
HETATM    5  C2  UNL     1      34.737  42.032  22.210  1.00  0.00     0.329 C 
HETATM    6  O1  UNL     1      34.447  40.979  22.800  1.00  0.00    -0.246 OA
HETATM    7  N3  UNL     1      33.780  43.009  21.829  1.00  0.00    -0.338 N 
ATOM      8  H3  UNL     1      34.111  43.795  21.270  1.00  0.00     0.164 HD
ENDROOT
BRANCH   7   9
HETATM    9  C3  UNL     1      32.367  42.979  22.171  1.00  0.00     0.163 C 
BRANCH   9  10
HETATM   10  C4  UNL     1      31.681  42.012  21.232  1.00  0.00    -0.026 A 
HETATM   11  C5  UNL     1      31.927  41.986  19.879  1.00  0.00     0.059 A 
HETATM   12  C6  UNL     1      31.329  40.991  19.070  1.00  0.00     0.122 A 
HETATM   13  N6  UNL     1      30.514  40.105  19.722  1.00  0.00    -0.322 N 
HETATM   14  C13 UNL     1      30.248  40.098  21.024  1.00  0.00     0.150 A 
ATOM     15  H6  UNL     1      30.070  39.382  19.156  1.00  0.00     0.169 HD
HETATM   16  C14 UNL     1      30.845  41.064  21.780  1.00  0.00     0.003 A 
HETATM   17  O4  UNL     1      29.451  39.305  21.900  1.00  0.00    -0.335 OA
HETATM   18  C15 UNL     1      30.415  40.888  23.209  1.00  0.00     0.070 C 
HETATM   19  C16 UNL     1      29.065  40.196  22.984  1.00  0.00     0.182 C 
BRANCH  12  20
HETATM   20  N4  UNL     1      31.642  40.835  17.875  1.00  0.00    -0.286 N 
ATOM     21  H4  UNL     1      32.303  40.093  17.641  1.00  0.00     0.188 HD
BRANCH  20  22
HETATM   22  N5  UNL     1      31.140  41.613  16.849  1.00  0.00    -0.310 N 
ATOM     23  H5  UNL     1      31.466  42.573  16.735  1.00  0.00     0.186 HD
BRANCH  22  24
HETATM   24  C7  UNL     1      30.272  41.142  16.043  1.00  0.00     0.107 C 
BRANCH  24  25
HETATM   25  C8  UNL     1      29.704  39.810  16.258  1.00  0.00     0.019 C 
BRANCH  25  26
HETATM   26  C9  UNL     1      30.015  38.784  15.506  1.00  0.00     0.002 C 
BRANCH  26  27
HETATM   27  C10 UNL     1      31.129  37.890  15.704  1.00  0.00     0.007 C 
BRANCH  27  28
HETATM   28  C11 UNL     1      32.261  37.965  15.116  1.00  0.00     0.084 C 
BRANCH  28  29
HETATM   29  C12 UNL     1      33.412  38.783  15.336  1.00  0.00     0.198 C 
HETATM   30  O2  UNL     1      34.591  38.240  15.448  1.00  0.00    -0.645 OA
HETATM   31  O3  UNL     1      33.459  40.154  15.467  1.00  0.00    -0.645 OA
ENDBRANCH  28  29
ENDBRANCH  27  28
ENDBRANCH  26  27
ENDBRANCH  25  26
ENDBRANCH  24  25
ENDBRANCH  22  24
ENDBRANCH  20  22
ENDBRANCH  12  20
ENDBRANCH   9  10
ENDBRANCH   7   9
TORSDOF 10
ENDMDL
MODEL 3
REMARK VINA RESULT: -7.482425252      2.775      7.383
REMARK  10 active torsions:
REMARK  status: ('A' for Active; 'I' for Inactive)
REMARK       I    between atoms: N2_3  and  C2_5 
REMARK       I    between atoms: C2_5  and  N3_7 
REMARK    1  A    between atoms: N3_7  and  C3_9 
REMARK    2  A    between atoms: C3_9  and  C4_10 
REMARK    3  A    between atoms: C6_12  and  N4_13 
REMARK    4  A    between atoms: N4_13  and  N5_15 
REMARK    5  A    between atoms: N5_15  and  C7_17 
REMARK    6  A    between atoms: C7_17  and  C8_18 
REMARK    7  A    between atoms: C8_18  and  C9_19 
REMARK    8  A    between atoms: C9_19  and  C10_20 
REMARK    9  A    between atoms: C10_20  and  C11_21 
REMARK   10  A    between atoms: C11_21  and  C12_22 
ROOT
HETATM    1  N1  UNL     1      33.550  37.834  14.443  1.00  0.00    -0.172 NA
HETATM    2  C1  UNL     1      33.163  38.556  15.234  1.00  0.00     0.185 C 
HETATM    3  N2  UNL     1      32.697  39.396  16.248  1.00  0.00    -0.245 N 
ATOM      4  H2  UNL     1      33.065  39.273  17.192  1.00  0.00     0.183 HD
HETATM    5  C2  UNL     1      31.716  40.433  16.018  1.00  0.00     0.329 C 
HETATM    6  O1  UNL     1      31.282  40.605  14.868  1.00  0.00    -0.246 OA
HETATM    7  N3  UNL     1      31.282  41.181  17.143  1.00  0.00    -0.338 N 
ATOM      8  H3  UNL     1      31.766  41.023  18.027  1.00  0.00     0.164 HD
ENDROOT
BRANCH   7   9
HETATM    9  C3  UNL     1      30.202  42.156  17.138  1.00  0.00     0.163 C 
BRANCH   9  10
HETATM   10  C4  UNL     1      29.500  42.080  18.475  1.00  0.00    -0.026 A 
HETATM   11  C5  UNL     1      30.177  41.961  19.666  1.00  0.00     0.059 A 
HETATM   12  C6  UNL     1      29.468  41.996  20.890  1.00  0.00     0.122 A 
HETATM   13  N6  UNL     1      28.111  42.143  20.786  1.00  0.00    -0.322 N 
HETATM   14  C13 UNL     1      27.419  42.258  19.657  1.00  0.00     0.150 A 
ATOM     15  H6  UNL     1      27.580  42.168  21.657  1.00  0.00     0.169 HD
HETATM   16  C14 UNL     1      28.131  42.228  18.494  1.00  0.00     0.003 A 
HETATM   17  O4  UNL     1      26.045  42.409  19.311  1.00  0.00    -0.335 OA
HETATM   18  C15 UNL     1      27.174  42.366  17.343  1.00  0.00     0.070 C 
HETATM   19  C16 UNL     1      25.908  41.798  17.997  1.00  0.00     0.182 C 
BRANCH  12  20
HETATM   20  N4  UNL     1      30.049  42.048  21.990  1.00  0.00    -0.286 N 
ATOM     21  H4  UNL     1      30.087  41.201  22.557  1.00  0.00     0.188 HD
BRANCH  20  22
HETATM   22  N5  UNL     1      30.647  43.194  22.482  1.00  0.00    -0.310 N 
ATOM     23  H5  UNL     1      30.151  44.084  22.432  1.00  0.00     0.186 HD
BRANCH  22  24
HETATM   24  C7  UNL     1      31.812  43.147  22.996  1.00  0.00     0.107 C 
BRANCH  24  25
HETATM   25  C8  UNL     1      32.985  42.891  22.159  1.00  0.00     0.019 C 
BRANCH  25  26
HETATM   26  C9  UNL     1      33.692  41.793  22.258  1.00  0.00     0.002 C 
BRANCH  26  27
HETATM   27  C10 UNL     1      34.998  41.568  21.688  1.00  0.00     0.007 C 
BRANCH  27  28
HETATM   28  C11 UNL     1      35.989  41.022  22.283  1.00  0.00     0.084 C 
BRANCH  28  29
HETATM   29  C12 UNL     1      37.362  41.394  22.411  1.00  0.00     0.198 C 
HETATM   30  O2  UNL     1      37.722  42.637  22.260  1.00  0.00    -0.645 OA
HETATM   31  O3  UNL     1      38.436  40.574  22.681  1.00  0.00    -0.645 OA
ENDBRANCH  28  29
ENDBRANCH  27  28
ENDBRANCH  26  27
ENDBRANCH  25  26
ENDBRANCH  24  25
ENDBRANCH  22  24
ENDBRANCH  20  22
ENDBRANCH  12  20
ENDBRANCH   9  10
ENDBRANCH   7   9
TORSDOF 10
ENDMDL
MODEL 4
REMARK VINA RESULT: -7.396440620      1.124      1.263
REMARK  10 active torsions:
REMARK  status: ('A' for Active; 'I' for Inactive)
REMARK       I    between atoms: N2_3  and  C2_5 
REMARK       I    between atoms: C2_5  and  N3_7 
REMARK    1  A    between atoms: N3_7  and  C3_9 
REMARK    2  A    between atoms: C3_9  and  C4_10 
REMARK    3  A    between atoms: C6_12  and  N4_13 
REMARK    4  A    between atoms: N4_13  and  N5_15 
REMARK    5  A    between atoms: N5_15  and  C7_17 
REMARK    6  A    between atoms: C7_17  and  C8_18 
REMARK    7  A    between atoms: C8_18  and  C9_19 
REMARK    8  A    between atoms: C9_19  and  C10_20 
REMARK    9  A    between atoms: C10_20  and  C11_21 
REMARK   10  A    between atoms: C11_21  and  C12_22 
ROOT
HETATM    1  N1  UNL     1      37.722  40.830  22.597  1.00  0.00    -0.172 NA
HETATM    2  C1  UNL     1      36.872  41.486  22.219  1.00  0.00     0.185 C 
HETATM    3  N2  UNL     1      35.868  42.340  21.755  1.00  0.00    -0.245 N 
ATOM      4  H2  UNL     1      36.134  43.135  21.175  1.00  0.00     0.183 HD
HETATM    5  C2  UNL     1      34.469  42.145  22.063  1.00  0.00     0.329 C 
HETATM    6  O1  UNL     1      34.134  41.166  22.749  1.00  0.00    -0.246 OA
HETATM    7  N3  UNL     1      33.554  43.116  21.579  1.00  0.00    -0.338 N 
ATOM      8  H3  UNL     1      33.919  43.831  20.950  1.00  0.00     0.164 HD
ENDROOT
BRANCH   7   9
HETATM    9  C3  UNL     1      32.138  43.173  21.908  1.00  0.00     0.163 C 
BRANCH   9  10
HETATM   10  C4  UNL     1      31.411  42.200  21.008  1.00  0.00    -0.026 A 
HETATM   11  C5  UNL     1      31.456  42.278  19.635  1.00  0.00     0.059 A 
HETATM   12  C6  UNL     1      30.836  41.278  18.849  1.00  0.00     0.122 A 
HETATM   13  N6  UNL     1      30.210  40.279  19.545  1.00  0.00    -0.322 N 
HETATM   14  C13 UNL     1      30.141  40.168  20.867  1.00  0.00     0.150 A 
ATOM     15  H6  UNL     1      29.754  39.549  18.996  1.00  0.00     0.169 HD
HETATM   16  C14 UNL     1      30.754  41.143  21.598  1.00  0.00     0.003 A 
HETATM   17  O4  UNL     1      29.558  39.249  21.787  1.00  0.00    -0.335 OA
HETATM   18  C15 UNL     1      30.559  40.842  23.058  1.00  0.00     0.070 C 
HETATM   19  C16 UNL     1      29.258  40.032  22.977  1.00  0.00     0.182 C 
BRANCH  12  20
HETATM   20  N4  UNL     1      30.982  41.224  17.614  1.00  0.00    -0.286 N 
ATOM     21  H4  UNL     1      31.844  40.821  17.246  1.00  0.00     0.188 HD
BRANCH  20  22
HETATM   22  N5  UNL     1      30.035  41.681  16.716  1.00  0.00    -0.310 N 
ATOM     23  H5  UNL     1      29.183  41.141  16.559  1.00  0.00     0.186 HD
BRANCH  22  24
HETATM   24  C7  UNL     1      30.217  42.771  16.081  1.00  0.00     0.107 C 
BRANCH  24  25
HETATM   25  C8  UNL     1      29.586  44.011  16.536  1.00  0.00     0.019 C 
BRANCH  25  26
HETATM   26  C9  UNL     1      28.295  44.215  16.448  1.00  0.00     0.002 C 
BRANCH  26  27
HETATM   27  C10 UNL     1      27.410  44.554  17.535  1.00  0.00     0.007 C 
BRANCH  27  28
HETATM   28  C11 UNL     1      26.889  43.729  18.360  1.00  0.00     0.084 C 
BRANCH  28  29
HETATM   29  C12 UNL     1      27.372  42.524  18.956  1.00  0.00     0.198 C 
HETATM   30  O2  UNL     1      27.843  42.536  20.171  1.00  0.00    -0.645 OA
HETATM   31  O3  UNL     1      27.425  41.267  18.393  1.00  0.00    -0.645 OA
ENDBRANCH  28  29
ENDBRANCH  27  28
ENDBRANCH  26  27
ENDBRANCH  25  26
ENDBRANCH  24  25
ENDBRANCH  22  24
ENDBRANCH  20  22
ENDBRANCH  12  20
ENDBRANCH   9  10
ENDBRANCH   7   9
TORSDOF 10
ENDMDL
MODEL 5
REMARK VINA RESULT: -7.350165279      3.671      5.478
REMARK  10 active torsions:
REMARK  status: ('A' for Active; 'I' for Inactive)
REMARK       I    between atoms: N2_3  and  C2_5 
REMARK       I    between atoms: C2_5  and  N3_7 
REMARK    1  A    between atoms: N3_7  and  C3_9 
REMARK    2  A    between atoms: C3_9  and  C4_10 
REMARK    3  A    between atoms: C6_12  and  N4_13 
REMARK    4  A    between atoms: N4_13  and  N5_15 
REMARK    5  A    between atoms: N5_15  and  C7_17 
REMARK    6  A    between atoms: C7_17  and  C8_18 
REMARK    7  A    between atoms: C8_18  and  C9_19 
REMARK    8  A    between atoms: C9_19  and  C10_20 
REMARK    9  A    between atoms: C10_20  and  C11_21 
REMARK   10  A    between atoms: C11_21  and  C12_22 
ROOT
HETATM    1  N1  UNL     1      37.620  40.873  22.623  1.00  0.00    -0.172 NA
HETATM    2  C1  UNL     1      36.786  41.470  22.129  1.00  0.00     0.185 C 
HETATM    3  N2  UNL     1      35.803  42.248  21.513  1.00  0.00    -0.245 N 
ATOM      4  H2  UNL     1      36.087  42.912  20.792  1.00  0.00     0.183 HD
HETATM    5  C2  UNL     1      34.401  42.153  21.852  1.00  0.00     0.329 C 
HETATM    6  O1  UNL     1      34.044  41.331  22.711  1.00  0.00    -0.246 OA
HETATM    7  N3  UNL     1      33.509  43.040  21.195  1.00  0.00    -0.338 N 
ATOM      8  H3  UNL     1      33.889  43.614  20.441  1.00  0.00     0.164 HD
ENDROOT
BRANCH   7   9
HETATM    9  C3  UNL     1      32.098  43.198  21.507  1.00  0.00     0.163 C 
BRANCH   9  10
HETATM   10  C4  UNL     1      31.344  42.067  20.844  1.00  0.00    -0.026 A 
HETATM   11  C5  UNL     1      31.342  41.872  19.482  1.00  0.00     0.059 A 
HETATM   12  C6  UNL     1      30.700  40.737  18.931  1.00  0.00     0.122 A 
HETATM   13  N6  UNL     1      30.102  39.897  19.832  1.00  0.00    -0.322 N 
HETATM   14  C13 UNL     1      30.078  40.052  21.151  1.00  0.00     0.150 A 
ATOM     15  H6  UNL     1      29.630  39.075  19.454  1.00  0.00     0.169 HD
HETATM   16  C14 UNL     1      30.712  41.150  21.654  1.00  0.00     0.003 A 
HETATM   17  O4  UNL     1      29.530  39.335  22.254  1.00  0.00    -0.335 OA
HETATM   18  C15 UNL     1      30.567  41.144  23.149  1.00  0.00     0.070 C 
HETATM   19  C16 UNL     1      29.267  40.339  23.275  1.00  0.00     0.182 C 
BRANCH  12  20
HETATM   20  N4  UNL     1      30.804  40.439  17.727  1.00  0.00    -0.286 N 
ATOM     21  H4  UNL     1      29.955  40.209  17.210  1.00  0.00     0.188 HD
BRANCH  20  22
HETATM   22  N5  UNL     1      32.012  40.404  17.054  1.00  0.00    -0.310 N 
ATOM     23  H5  UNL     1      32.864  40.705  17.527  1.00  0.00     0.186 HD
BRANCH  22  24
HETATM   24  C7  UNL     1      32.068  40.001  15.846  1.00  0.00     0.107 C 
BRANCH  24  25
HETATM   25  C8  UNL     1      32.628  38.686  15.527  1.00  0.00     0.019 C 
BRANCH  25  26
HETATM   26  C9  UNL     1      33.669  38.537  14.746  1.00  0.00     0.002 C 
BRANCH  26  27
HETATM   27  C10 UNL     1      35.022  38.276  15.172  1.00  0.00     0.007 C 
BRANCH  27  28
HETATM   28  C11 UNL     1      36.051  38.967  14.858  1.00  0.00     0.084 C 
BRANCH  28  29
HETATM   29  C12 UNL     1      36.204  40.278  14.313  1.00  0.00     0.198 C 
HETATM   30  O2  UNL     1      36.525  40.435  13.060  1.00  0.00    -0.645 OA
HETATM   31  O3  UNL     1      36.062  41.484  14.965  1.00  0.00    -0.645 OA
ENDBRANCH  28  29
ENDBRANCH  27  28
ENDBRANCH  26  27
ENDBRANCH  25  26
ENDBRANCH  24  25
ENDBRANCH  22  24
ENDBRANCH  20  22
ENDBRANCH  12  20
ENDBRANCH   9  10
ENDBRANCH   7   9
TORSDOF 10
ENDMDL
