MODEL 1
REMARK VINA RESULT: -7.787466023      0.000      0.000
REMARK  9 active torsions:
REMARK  status: ('A' for Active; 'I' for Inactive)
REMARK    1  A    between atoms: N1_1  and  C1_4 
REMARK    2  A    between atoms: C3_8  and  S1_9 
REMARK    3  A    between atoms: S1_9  and  C4_10 
REMARK    4  A    between atoms: C4_10  and  C5_11 
REMARK    5  A    between atoms: C5_11  and  N3_12 
REMARK       I    between atoms: N3_12  and  C6_14 
REMARK    6  A    between atoms: C6_14  and  C7_16 
REMARK    7  A    between atoms: C7_16  and  N4_17 
REMARK    8  A    between atoms: C7_16  and  C8_21 
REMARK    9  A    between atoms: C8_21  and  C9_22 
ROOT
HETATM    1  N3  UNL     1       4.355   6.256   7.476  1.00  0.00    -0.359 N 
ATOM      2  H3  UNL     1       3.974   7.134   7.827  1.00  0.00     0.162 HD
HETATM    3  C6  UNL     1       4.730   5.238   8.377  1.00  0.00     0.248 C 
HETATM    4  O1  UNL     1       5.194   4.168   7.917  1.00  0.00    -0.271 OA
ENDROOT
BRANCH   1   5
HETATM    5  C5  UNL     1       4.515   6.050   6.047  1.00  0.00     0.133 C 
BRANCH   5   6
HETATM    6  C4  UNL     1       3.196   5.868   5.370  1.00  0.00     0.100 C 
BRANCH   6   7
HETATM    7  S1  UNL     1       2.800   4.177   4.986  1.00  0.00    -0.108 SA
BRANCH   7   8
HETATM    8  C3  UNL     1       4.173   3.131   4.624  1.00  0.00     0.101 A 
HETATM    9  C2  UNL     1       4.721   3.088   3.382  1.00  0.00     0.144 A 
HETATM   10  N2  UNL     1       5.757   2.274   3.128  1.00  0.00    -0.198 N 
HETATM   11  C1  UNL     1       6.268   1.494   4.088  1.00  0.00     0.690 A 
ATOM     12  H2  UNL     1       6.160   2.249   2.191  1.00  0.00     0.183 HD
HETATM   13  N6  UNL     1       5.729   1.533   5.320  1.00  0.00    -0.132 N 
HETATM   14  N5  UNL     1       4.694   2.343   5.578  1.00  0.00    -0.279 N 
ATOM     15  H6  UNL     1       6.110   0.943   6.059  1.00  0.00     0.205 HD
ATOM     16  H5  UNL     1       4.295   2.362   6.516  1.00  0.00     0.188 HD
BRANCH  11  17
HETATM   17  N1  UNL     1       7.258   0.727   3.812  1.00  0.00    -0.233 N 
ATOM     18  H12 UNL     1       8.154   1.102   3.502  1.00  0.00     0.174 HD
ATOM     19  H11 UNL     1       7.147  -0.283   3.906  1.00  0.00     0.174 HD
ENDBRANCH  11  17
ENDBRANCH   7   8
ENDBRANCH   6   7
ENDBRANCH   5   6
ENDBRANCH   1   5
BRANCH   3  20
HETATM   20  C7  UNL     1       4.560   5.467   9.834  1.00  0.00     0.278 C 
BRANCH  20  21
HETATM   21  N4  UNL     1       5.675   4.938  10.566  1.00  0.00    -0.066 N 
ATOM     22  H43 UNL     1       6.529   5.466  10.387  1.00  0.00     0.275 HD
ATOM     23  H42 UNL     1       5.589   5.118  11.567  1.00  0.00     0.275 HD
ATOM     24  H41 UNL     1       5.797   3.944  10.371  1.00  0.00     0.275 HD
ENDBRANCH  20  21
BRANCH  20  25
HETATM   25  C8  UNL     1       3.327   4.727  10.266  1.00  0.00     0.081 C 
BRANCH  25  26
HETATM   26  C9  UNL     1       2.276   5.568  10.825  1.00  0.00    -0.056 A 
HETATM   27  C10 UNL     1       1.626   6.438   9.961  1.00  0.00     0.007 A 
HETATM   28  C11 UNL     1       0.620   7.285  10.353  1.00  0.00     0.001 A 
HETATM   29  C12 UNL     1       0.243   7.260  11.683  1.00  0.00     0.000 A 
HETATM   30  C13 UNL     1       0.885   6.394  12.559  1.00  0.00     0.001 A 
HETATM   31  C14 UNL     1       1.892   5.552  12.147  1.00  0.00     0.007 A 
ENDBRANCH  25  26
ENDBRANCH  20  25
ENDBRANCH   3  20
TORSDOF 9
ENDMDL
MODEL 2
REMARK VINA RESULT: -7.766894502      1.524      1.676
REMARK  9 active torsions:
REMARK  status: ('A' for Active; 'I' for Inactive)
REMARK    1  A    between atoms: N1_1  and  C1_4 
REMARK    2  A    between atoms: C3_8  and  S1_9 
REMARK    3  A    between atoms: S1_9  and  C4_10 
REMARK    4  A    between atoms: C4_10  and  C5_11 
REMARK    5  A    between atoms: C5_11  and  N3_12 
REMARK       I    between atoms: N3_12  and  C6_14 
REMARK    6  A    between atoms: C6_14  and  C7_16 
REMARK    7  A    between atoms: C7_16  and  N4_17 
REMARK    8  A    between atoms: C7_16  and  C8_21 
REMARK    9  A    between atoms: C8_21  and  C9_22 
ROOT
HETATM    1  N3  UNL     1       5.204   5.742   7.425  1.00  0.00    -0.359 N 
ATOM      2  H3  UNL     1       4.704   6.533   7.832  1.00  0.00     0.162 HD
HETATM    3  C6  UNL     1       4.935   4.431   7.870  1.00  0.00     0.248 C 
HETATM    4  O1  UNL     1       5.564   3.479   7.350  1.00  0.00    -0.271 OA
ENDROOT
BRANCH   1   5
HETATM    5  C5  UNL     1       6.195   5.964   6.387  1.00  0.00     0.133 C 
BRANCH   5   6
HETATM    6  C4  UNL     1       5.632   6.756   5.252  1.00  0.00     0.100 C 
BRANCH   6   7
HETATM    7  S1  UNL     1       5.247   5.792   3.809  1.00  0.00    -0.108 SA
BRANCH   7   8
HETATM    8  C3  UNL     1       5.796   4.117   3.837  1.00  0.00     0.101 A 
HETATM    9  C2  UNL     1       6.934   3.735   3.201  1.00  0.00     0.144 A 
HETATM   10  N2  UNL     1       7.325   2.452   3.225  1.00  0.00    -0.198 N 
HETATM   11  C1  UNL     1       6.605   1.528   3.874  1.00  0.00     0.690 A 
ATOM     12  H2  UNL     1       8.181   2.177   2.744  1.00  0.00     0.183 HD
HETATM   13  N6  UNL     1       5.477   1.901   4.505  1.00  0.00    -0.132 N 
HETATM   14  N5  UNL     1       5.083   3.181   4.482  1.00  0.00    -0.279 N 
ATOM     15  H6  UNL     1       4.920   1.206   5.002  1.00  0.00     0.205 HD
ATOM     16  H5  UNL     1       4.225   3.449   4.964  1.00  0.00     0.188 HD
BRANCH  11  17
HETATM   17  N1  UNL     1       7.005   0.310   3.877  1.00  0.00    -0.233 N 
ATOM     18  H12 UNL     1       6.513  -0.415   3.357  1.00  0.00     0.174 HD
ATOM     19  H11 UNL     1       7.837   0.061   4.413  1.00  0.00     0.174 HD
ENDBRANCH  11  17
ENDBRANCH   7   8
ENDBRANCH   6   7
ENDBRANCH   5   6
ENDBRANCH   1   5
BRANCH   3  20
HETATM   20  C7  UNL     1       3.919   4.225   8.932  1.00  0.00     0.278 C 
BRANCH  20  21
HETATM   21  N4  UNL     1       3.267   2.958   8.774  1.00  0.00    -0.066 N 
ATOM     22  H43 UNL     1       3.522   2.508   7.895  1.00  0.00     0.275 HD
ATOM     23  H42 UNL     1       3.638   2.258   9.418  1.00  0.00     0.275 HD
ATOM     24  H41 UNL     1       2.255   3.057   8.867  1.00  0.00     0.275 HD
ENDBRANCH  20  21
BRANCH  20  25
HETATM   25  C8  UNL     1       2.885   5.302   8.782  1.00  0.00     0.081 C 
BRANCH  25  26
HETATM   26  C9  UNL     1       2.257   5.724  10.028  1.00  0.00    -0.056 A 
HETATM   27  C10 UNL     1       1.256   6.681   9.946  1.00  0.00     0.007 A 
HETATM   28  C11 UNL     1       0.582   7.168  11.039  1.00  0.00     0.001 A 
HETATM   29  C12 UNL     1       0.930   6.668  12.281  1.00  0.00     0.000 A 
HETATM   30  C13 UNL     1       1.931   5.710  12.376  1.00  0.00     0.001 A 
HETATM   31  C14 UNL     1       2.594   5.235  11.269  1.00  0.00     0.007 A 
ENDBRANCH  25  26
ENDBRANCH  20  25
ENDBRANCH   3  20
TORSDOF 9
ENDMDL
MODEL 3
REMARK VINA RESULT: -7.758754276      2.079      2.754
REMARK  9 active torsions:
REMARK  status: ('A' for Active; 'I' for Inactive)
REMARK    1  A    between atoms: N1_1  and  C1_4 
REMARK    2  A    between atoms: C3_8  and  S1_9 
REMARK    3  A    between atoms: S1_9  and  C4_10 
REMARK    4  A    between atoms: C4_10  and  C5_11 
REMARK    5  A    between atoms: C5_11  and  N3_12 
REMARK       I    between atoms: N3_12  and  C6_14 
REMARK    6  A    between atoms: C6_14  and  C7_16 
REMARK    7  A    between atoms: C7_16  and  N4_17 
REMARK    8  A    between atoms: C7_16  and  C8_21 
REMARK    9  A    between atoms: C8_21  and  C9_22 
ROOT
HETATM    1  N3  UNL     1       6.478   5.553   8.668  1.00  0.00    -0.359 N 
ATOM      2  H3  UNL     1       6.832   4.891   9.357  1.00  0.00     0.162 HD
HETATM    3  C6  UNL     1       5.089   5.746   8.519  1.00  0.00     0.248 C 
HETATM    4  O1  UNL     1       4.684   6.568   7.664  1.00  0.00    -0.271 OA
ENDROOT
BRANCH   1   5
HETATM    5  C5  UNL     1       7.404   6.302   7.836  1.00  0.00     0.133 C 
BRANCH   5   6
HETATM    6  C4  UNL     1       7.956   5.458   6.734  1.00  0.00     0.100 C 
BRANCH   6   7
HETATM    7  S1  UNL     1       7.354   3.784   6.724  1.00  0.00    -0.108 SA
BRANCH   7   8
HETATM    8  C3  UNL     1       5.966   3.475   5.681  1.00  0.00     0.101 A 
HETATM    9  C2  UNL     1       5.616   2.212   5.325  1.00  0.00     0.144 A 
HETATM   10  N2  UNL     1       4.564   2.003   4.520  1.00  0.00    -0.198 N 
HETATM   11  C1  UNL     1       3.841   3.029   4.056  1.00  0.00     0.690 A 
ATOM     12  H2  UNL     1       4.311   1.050   4.259  1.00  0.00     0.183 HD
HETATM   13  N6  UNL     1       4.183   4.282   4.405  1.00  0.00    -0.132 N 
HETATM   14  N5  UNL     1       5.234   4.496   5.208  1.00  0.00    -0.279 N 
ATOM     15  H6  UNL     1       3.640   5.072   4.057  1.00  0.00     0.205 HD
ATOM     16  H5  UNL     1       5.482   5.451   5.464  1.00  0.00     0.188 HD
BRANCH  11  17
HETATM   17  N1  UNL     1       2.842   2.795   3.288  1.00  0.00    -0.233 N 
ATOM     18  H12 UNL     1       2.039   2.253   3.606  1.00  0.00     0.174 HD
ATOM     19  H11 UNL     1       2.849   3.161   2.335  1.00  0.00     0.174 HD
ENDBRANCH  11  17
ENDBRANCH   7   8
ENDBRANCH   6   7
ENDBRANCH   5   6
ENDBRANCH   1   5
BRANCH   3  20
HETATM   20  C7  UNL     1       4.159   4.971   9.377  1.00  0.00     0.278 C 
BRANCH  20  21
HETATM   21  N4  UNL     1       4.245   3.569   9.087  1.00  0.00    -0.066 N 
ATOM     22  H43 UNL     1       5.054   3.353   8.505  1.00  0.00     0.275 HD
ATOM     23  H42 UNL     1       4.501   3.027   9.913  1.00  0.00     0.275 HD
ATOM     24  H41 UNL     1       3.378   3.232   8.668  1.00  0.00     0.275 HD
ENDBRANCH  20  21
BRANCH  20  25
HETATM   25  C8  UNL     1       2.765   5.427   9.057  1.00  0.00     0.081 C 
BRANCH  25  26
HETATM   26  C9  UNL     1       2.009   5.928  10.198  1.00  0.00    -0.056 A 
HETATM   27  C10 UNL     1       2.294   5.382  11.441  1.00  0.00     0.007 A 
HETATM   28  C11 UNL     1       1.658   5.760  12.599  1.00  0.00     0.001 A 
HETATM   29  C12 UNL     1       0.685   6.737  12.505  1.00  0.00     0.000 A 
HETATM   30  C13 UNL     1       0.389   7.291  11.266  1.00  0.00     0.001 A 
HETATM   31  C14 UNL     1       1.038   6.900  10.118  1.00  0.00     0.007 A 
ENDBRANCH  25  26
ENDBRANCH  20  25
ENDBRANCH   3  20
TORSDOF 9
ENDMDL
MODEL 4
REMARK VINA RESULT: -7.757117035      1.744      2.248
REMARK  9 active torsions:
REMARK  status: ('A' for Active; 'I' for Inactive)
REMARK    1  A    between atoms: N1_1  and  C1_4 
REMARK    2  A    between atoms: C3_8  and  S1_9 
REMARK    3  A    between atoms: S1_9  and  C4_10 
REMARK    4  A    between atoms: C4_10  and  C5_11 
REMARK    5  A    between atoms: C5_11  and  N3_12 
REMARK       I    between atoms: N3_12  and  C6_14 
REMARK    6  A    between atoms: C6_14  and  C7_16 
REMARK    7  A    between atoms: C7_16  and  N4_17 
REMARK    8  A    between atoms: C7_16  and  C8_21 
REMARK    9  A    between atoms: C8_21  and  C9_22 
ROOT
HETATM    1  N3  UNL     1       3.496   3.299   7.807  1.00  0.00    -0.359 N 
ATOM      2  H3  UNL     1       2.690   3.180   8.420  1.00  0.00     0.162 HD
HETATM    3  C6  UNL     1       4.496   4.240   8.128  1.00  0.00     0.248 C 
HETATM    4  O1  UNL     1       5.476   4.365   7.357  1.00  0.00    -0.271 OA
ENDROOT
BRANCH   1   5
HETATM    5  C5  UNL     1       3.617   2.501   6.600  1.00  0.00     0.133 C 
BRANCH   5   6
HETATM    6  C4  UNL     1       2.730   3.013   5.512  1.00  0.00     0.100 C 
BRANCH   6   7
HETATM    7  S1  UNL     1       3.489   3.043   3.904  1.00  0.00    -0.108 SA
BRANCH   7   8
HETATM    8  C3  UNL     1       5.213   3.410   3.877  1.00  0.00     0.101 A 
HETATM    9  C2  UNL     1       6.101   2.589   3.259  1.00  0.00     0.144 A 
HETATM   10  N2  UNL     1       7.410   2.882   3.263  1.00  0.00    -0.198 N 
HETATM   11  C1  UNL     1       7.864   3.985   3.872  1.00  0.00     0.690 A 
ATOM     12  H2  UNL     1       8.068   2.258   2.797  1.00  0.00     0.183 HD
HETATM   13  N6  UNL     1       6.989   4.802   4.485  1.00  0.00    -0.132 N 
HETATM   14  N5  UNL     1       5.680   4.512   4.484  1.00  0.00    -0.279 N 
ATOM     15  H6  UNL     1       7.322   5.645   4.952  1.00  0.00     0.205 HD
ATOM     16  H5  UNL     1       5.029   5.140   4.954  1.00  0.00     0.188 HD
BRANCH  11  17
HETATM   17  N1  UNL     1       9.120   4.237   3.858  1.00  0.00    -0.233 N 
ATOM     18  H12 UNL     1       9.810   3.504   3.695  1.00  0.00     0.174 HD
ATOM     19  H11 UNL     1       9.439   5.194   4.011  1.00  0.00     0.174 HD
ENDBRANCH  11  17
ENDBRANCH   7   8
ENDBRANCH   6   7
ENDBRANCH   5   6
ENDBRANCH   1   5
BRANCH   3  20
HETATM   20  C7  UNL     1       4.354   5.047   9.366  1.00  0.00     0.278 C 
BRANCH  20  21
HETATM   21  N4  UNL     1       5.536   4.955  10.173  1.00  0.00    -0.066 N 
ATOM     22  H43 UNL     1       5.316   4.708  11.138  1.00  0.00     0.275 HD
ATOM     23  H42 UNL     1       6.097   4.138   9.930  1.00  0.00     0.275 HD
ATOM     24  H41 UNL     1       6.080   5.816  10.119  1.00  0.00     0.275 HD
ENDBRANCH  20  21
BRANCH  20  25
HETATM   25  C8  UNL     1       3.210   4.473  10.150  1.00  0.00     0.081 C 
BRANCH  25  26
HETATM   26  C9  UNL     1       2.231   5.451  10.608  1.00  0.00    -0.056 A 
HETATM   27  C10 UNL     1       1.889   5.430  11.952  1.00  0.00     0.007 A 
HETATM   28  C11 UNL     1       0.982   6.293  12.517  1.00  0.00     0.001 A 
HETATM   29  C12 UNL     1       0.386   7.227  11.691  1.00  0.00     0.000 A 
HETATM   30  C13 UNL     1       0.719   7.258  10.343  1.00  0.00     0.001 A 
HETATM   31  C14 UNL     1       1.631   6.385   9.795  1.00  0.00     0.007 A 
ENDBRANCH  25  26
ENDBRANCH  20  25
ENDBRANCH   3  20
TORSDOF 9
ENDMDL
MODEL 5
REMARK VINA RESULT: -7.643919911      2.102      2.682
REMARK  9 active torsions:
REMARK  status: ('A' for Active; 'I' for Inactive)
REMARK    1  A    between atoms: N1_1  and  C1_4 
REMARK    2  A    between atoms: C3_8  and  S1_9 
REMARK    3  A    between atoms: S1_9  and  C4_10 
REMARK    4  A    between atoms: C4_10  and  C5_11 
REMARK    5  A    between atoms: C5_11  and  N3_12 
REMARK       I    between atoms: N3_12  and  C6_14 
REMARK    6  A    between atoms: C6_14  and  C7_16 
REMARK    7  A    between atoms: C7_16  and  N4_17 
REMARK    8  A    between atoms: C7_16  and  C8_21 
REMARK    9  A    between atoms: C8_21  and  C9_22 
ROOT
HETATM    1  N3  UNL     1       6.343   5.693   8.081  1.00  0.00    -0.359 N 
ATOM      2  H3  UNL     1       6.815   5.381   8.929  1.00  0.00     0.162 HD
HETATM    3  C6  UNL     1       4.944   5.559   7.959  1.00  0.00     0.248 C 
HETATM    4  O1  UNL     1       4.391   5.952   6.905  1.00  0.00    -0.271 OA
ENDROOT
BRANCH   1   5
HETATM    5  C5  UNL     1       7.110   6.275   6.993  1.00  0.00     0.133 C 
BRANCH   5   6
HETATM    6  C4  UNL     1       8.247   5.393   6.591  1.00  0.00     0.100 C 
BRANCH   6   7
HETATM    7  S1  UNL     1       7.893   4.329   5.211  1.00  0.00    -0.108 SA
BRANCH   7   8
HETATM    8  C3  UNL     1       6.219   3.794   5.064  1.00  0.00     0.101 A 
HETATM    9  C2  UNL     1       5.795   2.634   5.628  1.00  0.00     0.144 A 
HETATM   10  N2  UNL     1       4.519   2.242   5.491  1.00  0.00    -0.198 N 
HETATM   11  C1  UNL     1       3.644   2.983   4.801  1.00  0.00     0.690 A 
ATOM     12  H2  UNL     1       4.212   1.368   5.918  1.00  0.00     0.183 HD
HETATM   13  N6  UNL     1       4.059   4.133   4.240  1.00  0.00    -0.132 N 
HETATM   14  N5  UNL     1       5.332   4.528   4.373  1.00  0.00    -0.279 N 
ATOM     15  H6  UNL     1       3.402   4.706   3.712  1.00  0.00     0.205 HD
ATOM     16  H5  UNL     1       5.633   5.402   3.942  1.00  0.00     0.188 HD
BRANCH  11  17
HETATM   17  N1  UNL     1       2.433   2.580   4.688  1.00  0.00    -0.233 N 
ATOM     18  H12 UNL     1       2.202   1.588   4.635  1.00  0.00     0.174 HD
ATOM     19  H11 UNL     1       1.680   3.268   4.652  1.00  0.00     0.174 HD
ENDBRANCH  11  17
ENDBRANCH   7   8
ENDBRANCH   6   7
ENDBRANCH   5   6
ENDBRANCH   1   5
BRANCH   3  20
HETATM   20  C7  UNL     1       4.178   4.961   9.081  1.00  0.00     0.278 C 
BRANCH  20  21
HETATM   21  N4  UNL     1       4.215   3.529   9.017  1.00  0.00    -0.066 N 
ATOM     22  H43 UNL     1       3.282   3.131   8.912  1.00  0.00     0.275 HD
ATOM     23  H42 UNL     1       4.622   3.200   8.141  1.00  0.00     0.275 HD
ATOM     24  H41 UNL     1       4.701   3.142   9.827  1.00  0.00     0.275 HD
ENDBRANCH  20  21
BRANCH  20  25
HETATM   25  C8  UNL     1       2.749   5.396   8.933  1.00  0.00     0.081 C 
BRANCH  25  26
HETATM   26  C9  UNL     1       2.105   5.808  10.174  1.00  0.00    -0.056 A 
HETATM   27  C10 UNL     1       1.124   6.785  10.091  1.00  0.00     0.007 A 
HETATM   28  C11 UNL     1       0.438   7.266  11.179  1.00  0.00     0.001 A 
HETATM   29  C12 UNL     1       0.752   6.739  12.418  1.00  0.00     0.000 A 
HETATM   30  C13 UNL     1       1.733   5.760  12.516  1.00  0.00     0.001 A 
HETATM   31  C14 UNL     1       2.409   5.291  11.413  1.00  0.00     0.007 A 
ENDBRANCH  25  26
ENDBRANCH  20  25
ENDBRANCH   3  20
TORSDOF 9
ENDMDL
