MODEL 1
REMARK VINA RESULT: -7.823318244      0.000      0.000
REMARK  10 active torsions:
REMARK  status: ('A' for Active; 'I' for Inactive)
REMARK    1  A    between atoms: N1_1  and  N2_4 
REMARK       I    between atoms: N2_4  and  C1_6 
REMARK    2  A    between atoms: C1_6  and  C2_8 
REMARK    3  A    between atoms: C2_8  and  N3_9 
REMARK    4  A    between atoms: N3_9  and  C3_10 
REMARK    5  A    between atoms: C3_10  and  O2_11 
REMARK    6  A    between atoms: C3_10  and  C4_13 
REMARK    7  A    between atoms: C9_18  and  O3_19 
REMARK    8  A    between atoms: O3_19  and  C10_20 
REMARK    9  A    between atoms: C10_20  and  C11_21 
REMARK   10  A    between atoms: C11_21  and  C12_23 
ROOT
HETATM    1  C4  UNL     1       3.989   5.472   7.606  1.00  0.00     0.062 A 
HETATM    2  C5  UNL     1       4.957   6.433   7.841  1.00  0.00     0.020 A 
HETATM    3  C6  UNL     1       5.513   7.206   6.857  1.00  0.00     0.001 A 
HETATM    4  C7  UNL     1       5.091   7.018   5.559  1.00  0.00     0.003 A 
HETATM    5  C8  UNL     1       4.120   6.055   5.298  1.00  0.00     0.038 A 
HETATM    6  C9  UNL     1       3.577   5.283   6.336  1.00  0.00     0.085 A 
ENDROOT
BRANCH   1   7
HETATM    7  C3  UNL     1       3.365   4.806   8.770  1.00  0.00     0.227 C 
BRANCH   7   8
HETATM    8  N3  UNL     1       2.665   5.381   9.731  1.00  0.00    -0.387 NA
BRANCH   8   9
HETATM    9  C2  UNL     1       1.934   5.984  10.732  1.00  0.00     0.261 C 
BRANCH   9  10
HETATM   10  C1  UNL     1       1.991   5.392  12.094  1.00  0.00     0.288 C 
HETATM   11  N2  UNL     1       2.804   4.250  12.290  1.00  0.00    -0.271 N 
ATOM     12  H2  UNL     1       3.331   3.843  11.518  1.00  0.00     0.189 HD
HETATM   13  O1  UNL     1       1.320   5.916  13.030  1.00  0.00    -0.264 OA
BRANCH  11  14
HETATM   14  N1  UNL     1       2.863   3.704  13.549  1.00  0.00    -0.342 N 
ATOM     15  H12 UNL     1       3.680   3.868  14.137  1.00  0.00     0.176 HD
ATOM     16  H11 UNL     1       2.074   3.140  13.867  1.00  0.00     0.176 HD
ENDBRANCH  11  14
ENDBRANCH   9  10
ENDBRANCH   8   9
ENDBRANCH   7   8
BRANCH   7  17
HETATM   17  O2  UNL     1       3.570   3.517   8.789  1.00  0.00    -0.335 OA
ATOM     18  H2  UNL     1       4.119   3.111   8.129  1.00  0.00     0.220 HD
ENDBRANCH   7  17
ENDBRANCH   1   7
BRANCH   6  19
HETATM   19  O3  UNL     1       2.613   4.309   6.002  1.00  0.00    -0.342 OA
BRANCH  19  20
HETATM   20  C10 UNL     1       2.972   3.376   4.989  1.00  0.00     0.261 C 
BRANCH  20  21
HETATM   21  C11 UNL     1       3.896   2.343   5.436  1.00  0.00     0.206 C 
HETATM   22  O4  UNL     1       3.614   1.743   6.528  1.00  0.00    -0.288 OA
BRANCH  21  23
HETATM   23  C12 UNL     1       5.087   1.986   4.675  1.00  0.00     0.122 A 
HETATM   24  C13 UNL     1       5.488   2.591   3.476  1.00  0.00     0.043 A 
HETATM   25  C14 UNL     1       6.659   1.994   3.073  1.00  0.00     0.027 A 
HETATM   26  C15 UNL     1       6.939   1.031   4.051  1.00  0.00     0.142 A 
HETATM   27  O5  UNL     1       5.992   1.089   4.932  1.00  0.00    -0.319 OA
ENDBRANCH  21  23
ENDBRANCH  20  21
ENDBRANCH  19  20
ENDBRANCH   6  19
TORSDOF 10
ENDMDL
MODEL 2
REMARK VINA RESULT: -7.809967818      1.897      2.193
REMARK  10 active torsions:
REMARK  status: ('A' for Active; 'I' for Inactive)
REMARK    1  A    between atoms: N1_1  and  N2_4 
REMARK       I    between atoms: N2_4  and  C1_6 
REMARK    2  A    between atoms: C1_6  and  C2_8 
REMARK    3  A    between atoms: C2_8  and  N3_9 
REMARK    4  A    between atoms: N3_9  and  C3_10 
REMARK    5  A    between atoms: C3_10  and  O2_11 
REMARK    6  A    between atoms: C3_10  and  C4_13 
REMARK    7  A    between atoms: C9_18  and  O3_19 
REMARK    8  A    between atoms: O3_19  and  C10_20 
REMARK    9  A    between atoms: C10_20  and  C11_21 
REMARK   10  A    between atoms: C11_21  and  C12_23 
ROOT
HETATM    1  C4  UNL     1       4.468   4.824   9.069  1.00  0.00     0.062 A 
HETATM    2  C5  UNL     1       5.479   5.517   9.711  1.00  0.00     0.020 A 
HETATM    3  C6  UNL     1       6.706   5.760   9.152  1.00  0.00     0.001 A 
HETATM    4  C7  UNL     1       6.951   5.289   7.882  1.00  0.00     0.003 A 
HETATM    5  C8  UNL     1       5.949   4.586   7.217  1.00  0.00     0.038 A 
HETATM    6  C9  UNL     1       4.707   4.358   7.827  1.00  0.00     0.085 A 
ENDROOT
BRANCH   1   7
HETATM    7  C3  UNL     1       3.142   4.754   9.721  1.00  0.00     0.227 C 
BRANCH   7   8
HETATM    8  N3  UNL     1       2.301   5.753   9.918  1.00  0.00    -0.387 NA
BRANCH   8   9
HETATM    9  C2  UNL     1       1.421   6.793  10.124  1.00  0.00     0.261 C 
BRANCH   9  10
HETATM   10  C1  UNL     1       0.903   7.010  11.501  1.00  0.00     0.288 C 
HETATM   11  N2  UNL     1       1.839   7.072  12.561  1.00  0.00    -0.271 N 
ATOM     12  H2  UNL     1       2.838   6.966  12.386  1.00  0.00     0.189 HD
HETATM   13  O1  UNL     1      -0.343   7.130  11.687  1.00  0.00    -0.264 OA
BRANCH  11  14
HETATM   14  N1  UNL     1       1.364   7.278  13.833  1.00  0.00    -0.342 N 
ATOM     15  H12 UNL     1       0.410   7.610  13.974  1.00  0.00     0.176 HD
ATOM     16  H11 UNL     1       1.990   7.091  14.617  1.00  0.00     0.176 HD
ENDBRANCH  11  14
ENDBRANCH   9  10
ENDBRANCH   8   9
ENDBRANCH   7   8
BRANCH   7  17
HETATM   17  O2  UNL     1       2.837   3.550  10.124  1.00  0.00    -0.335 OA
ATOM     18  H2  UNL     1       3.120   2.793   9.625  1.00  0.00     0.220 HD
ENDBRANCH   7  17
ENDBRANCH   1   7
BRANCH   6  19
HETATM   19  O3  UNL     1       3.743   3.621   7.108  1.00  0.00    -0.342 OA
BRANCH  19  20
HETATM   20  C10 UNL     1       3.317   4.168   5.865  1.00  0.00     0.261 C 
BRANCH  20  21
HETATM   21  C11 UNL     1       3.327   3.215   4.763  1.00  0.00     0.206 C 
HETATM   22  O4  UNL     1       2.196   2.889   4.267  1.00  0.00    -0.288 OA
BRANCH  21  23
HETATM   23  C12 UNL     1       4.564   2.660   4.229  1.00  0.00     0.122 A 
HETATM   24  C13 UNL     1       5.419   1.788   4.917  1.00  0.00     0.043 A 
HETATM   25  C14 UNL     1       6.467   1.478   4.082  1.00  0.00     0.027 A 
HETATM   26  C15 UNL     1       6.215   2.180   2.896  1.00  0.00     0.142 A 
HETATM   27  O5  UNL     1       5.110   2.833   3.062  1.00  0.00    -0.319 OA
ENDBRANCH  21  23
ENDBRANCH  20  21
ENDBRANCH  19  20
ENDBRANCH   6  19
TORSDOF 10
ENDMDL
MODEL 3
REMARK VINA RESULT: -7.759219086      1.729      2.078
REMARK  10 active torsions:
REMARK  status: ('A' for Active; 'I' for Inactive)
REMARK    1  A    between atoms: N1_1  and  N2_4 
REMARK       I    between atoms: N2_4  and  C1_6 
REMARK    2  A    between atoms: C1_6  and  C2_8 
REMARK    3  A    between atoms: C2_8  and  N3_9 
REMARK    4  A    between atoms: N3_9  and  C3_10 
REMARK    5  A    between atoms: C3_10  and  O2_11 
REMARK    6  A    between atoms: C3_10  and  C4_13 
REMARK    7  A    between atoms: C9_18  and  O3_19 
REMARK    8  A    between atoms: O3_19  and  C10_20 
REMARK    9  A    between atoms: C10_20  and  C11_21 
REMARK   10  A    between atoms: C11_21  and  C12_23 
ROOT
HETATM    1  C4  UNL     1       5.032   5.219   9.768  1.00  0.00     0.062 A 
HETATM    2  C5  UNL     1       5.940   6.085  10.351  1.00  0.00     0.020 A 
HETATM    3  C6  UNL     1       7.130   6.439   9.774  1.00  0.00     0.001 A 
HETATM    4  C7  UNL     1       7.445   5.905   8.544  1.00  0.00     0.003 A 
HETATM    5  C8  UNL     1       6.548   5.029   7.939  1.00  0.00     0.038 A 
HETATM    6  C9  UNL     1       5.339   4.691   8.566  1.00  0.00     0.085 A 
ENDROOT
BRANCH   1   7
HETATM    7  C3  UNL     1       3.720   5.030  10.425  1.00  0.00     0.227 C 
BRANCH   7   8
HETATM    8  N3  UNL     1       3.088   5.896  11.197  1.00  0.00    -0.387 NA
BRANCH   8   9
HETATM    9  C2  UNL     1       2.426   6.797  12.003  1.00  0.00     0.261 C 
BRANCH   9  10
HETATM   10  C1  UNL     1       1.986   6.342  13.349  1.00  0.00     0.288 C 
HETATM   11  N2  UNL     1       1.902   4.949  13.585  1.00  0.00    -0.271 N 
ATOM     12  H2  UNL     1       2.132   4.278  12.852  1.00  0.00     0.189 HD
HETATM   13  O1  UNL     1       1.701   7.199  14.235  1.00  0.00    -0.264 OA
BRANCH  11  14
HETATM   14  N1  UNL     1       1.502   4.525  14.829  1.00  0.00    -0.342 N 
ATOM     15  H12 UNL     1       2.139   3.982  15.411  1.00  0.00     0.176 HD
ATOM     16  H11 UNL     1       0.562   4.770  15.141  1.00  0.00     0.176 HD
ENDBRANCH  11  14
ENDBRANCH   9  10
ENDBRANCH   8   9
ENDBRANCH   7   8
BRANCH   7  17
HETATM   17  O2  UNL     1       3.190   3.863  10.177  1.00  0.00    -0.335 OA
ATOM     18  H2  UNL     1       2.494   3.781   9.537  1.00  0.00     0.220 HD
ENDBRANCH   7  17
ENDBRANCH   1   7
BRANCH   6  19
HETATM   19  O3  UNL     1       4.484   3.782   7.909  1.00  0.00    -0.342 OA
BRANCH  19  20
HETATM   20  C10 UNL     1       4.541   3.765   6.487  1.00  0.00     0.261 C 
BRANCH  20  21
HETATM   21  C11 UNL     1       4.444   2.434   5.905  1.00  0.00     0.206 C 
HETATM   22  O4  UNL     1       3.491   1.689   6.313  1.00  0.00    -0.288 OA
BRANCH  21  23
HETATM   23  C12 UNL     1       5.377   1.962   4.889  1.00  0.00     0.122 A 
HETATM   24  C13 UNL     1       5.583   2.567   3.641  1.00  0.00     0.043 A 
HETATM   25  C14 UNL     1       6.543   1.843   2.974  1.00  0.00     0.027 A 
HETATM   26  C15 UNL     1       6.897   0.806   3.847  1.00  0.00     0.142 A 
HETATM   27  O5  UNL     1       6.185   0.944   4.919  1.00  0.00    -0.319 OA
ENDBRANCH  21  23
ENDBRANCH  20  21
ENDBRANCH  19  20
ENDBRANCH   6  19
TORSDOF 10
ENDMDL
MODEL 4
REMARK VINA RESULT: -7.747347824      1.749      2.306
REMARK  10 active torsions:
REMARK  status: ('A' for Active; 'I' for Inactive)
REMARK    1  A    between atoms: N1_1  and  N2_4 
REMARK       I    between atoms: N2_4  and  C1_6 
REMARK    2  A    between atoms: C1_6  and  C2_8 
REMARK    3  A    between atoms: C2_8  and  N3_9 
REMARK    4  A    between atoms: N3_9  and  C3_10 
REMARK    5  A    between atoms: C3_10  and  O2_11 
REMARK    6  A    between atoms: C3_10  and  C4_13 
REMARK    7  A    between atoms: C9_18  and  O3_19 
REMARK    8  A    between atoms: O3_19  and  C10_20 
REMARK    9  A    between atoms: C10_20  and  C11_21 
REMARK   10  A    between atoms: C11_21  and  C12_23 
ROOT
HETATM    1  C4  UNL     1       3.778   5.352   6.561  1.00  0.00     0.062 A 
HETATM    2  C5  UNL     1       2.588   5.387   5.856  1.00  0.00     0.020 A 
HETATM    3  C6  UNL     1       2.494   5.762   4.542  1.00  0.00     0.001 A 
HETATM    4  C7  UNL     1       3.646   6.127   3.882  1.00  0.00     0.003 A 
HETATM    5  C8  UNL     1       4.856   6.103   4.571  1.00  0.00     0.038 A 
HETATM    6  C9  UNL     1       4.908   5.714   5.918  1.00  0.00     0.085 A 
ENDROOT
BRANCH   1   7
HETATM    7  C3  UNL     1       3.768   4.793   7.930  1.00  0.00     0.227 C 
BRANCH   7   8
HETATM    8  N3  UNL     1       3.088   5.246   8.967  1.00  0.00    -0.387 NA
BRANCH   8   9
HETATM    9  C2  UNL     1       2.374   5.720  10.047  1.00  0.00     0.261 C 
BRANCH   9  10
HETATM   10  C1  UNL     1       2.804   5.303  11.408  1.00  0.00     0.288 C 
HETATM   11  N2  UNL     1       2.469   3.998  11.840  1.00  0.00    -0.271 N 
ATOM     12  H2  UNL     1       1.945   3.364  11.238  1.00  0.00     0.189 HD
HETATM   13  O1  UNL     1       3.448   6.115  12.134  1.00  0.00    -0.264 OA
BRANCH  11  14
HETATM   14  N1  UNL     1       2.871   3.608  13.095  1.00  0.00    -0.342 N 
ATOM     15  H12 UNL     1       2.175   3.360  13.798  1.00  0.00     0.176 HD
ATOM     16  H11 UNL     1       3.871   3.576  13.292  1.00  0.00     0.176 HD
ENDBRANCH  11  14
ENDBRANCH   9  10
ENDBRANCH   8   9
ENDBRANCH   7   8
BRANCH   7  17
HETATM   17  O2  UNL     1       4.536   3.745   8.057  1.00  0.00    -0.335 OA
ATOM     18  H2  UNL     1       5.412   3.835   8.412  1.00  0.00     0.220 HD
ENDBRANCH   7  17
ENDBRANCH   1   7
BRANCH   6  19
HETATM   19  O3  UNL     1       6.161   5.731   6.564  1.00  0.00    -0.342 OA
BRANCH  19  20
HETATM   20  C10 UNL     1       7.235   5.084   5.891  1.00  0.00     0.261 C 
BRANCH  20  21
HETATM   21  C11 UNL     1       7.208   3.631   5.992  1.00  0.00     0.206 C 
HETATM   22  O4  UNL     1       7.357   3.126   7.156  1.00  0.00    -0.288 OA
BRANCH  21  23
HETATM   23  C12 UNL     1       7.006   2.776   4.829  1.00  0.00     0.122 A 
HETATM   24  C13 UNL     1       6.599   3.222   3.564  1.00  0.00     0.043 A 
HETATM   25  C14 UNL     1       6.534   2.129   2.731  1.00  0.00     0.027 A 
HETATM   26  C15 UNL     1       6.909   1.037   3.526  1.00  0.00     0.142 A 
HETATM   27  O5  UNL     1       7.161   1.491   4.711  1.00  0.00    -0.319 OA
ENDBRANCH  21  23
ENDBRANCH  20  21
ENDBRANCH  19  20
ENDBRANCH   6  19
TORSDOF 10
ENDMDL
MODEL 5
REMARK VINA RESULT: -7.709828494      1.739      2.560
REMARK  10 active torsions:
REMARK  status: ('A' for Active; 'I' for Inactive)
REMARK    1  A    between atoms: N1_1  and  N2_4 
REMARK       I    between atoms: N2_4  and  C1_6 
REMARK    2  A    between atoms: C1_6  and  C2_8 
REMARK    3  A    between atoms: C2_8  and  N3_9 
REMARK    4  A    between atoms: N3_9  and  C3_10 
REMARK    5  A    between atoms: C3_10  and  O2_11 
REMARK    6  A    between atoms: C3_10  and  C4_13 
REMARK    7  A    between atoms: C9_18  and  O3_19 
REMARK    8  A    between atoms: O3_19  and  C10_20 
REMARK    9  A    between atoms: C10_20  and  C11_21 
REMARK   10  A    between atoms: C11_21  and  C12_23 
ROOT
HETATM    1  C4  UNL     1       3.661   4.449   6.491  1.00  0.00     0.062 A 
HETATM    2  C5  UNL     1       3.063   5.609   6.034  1.00  0.00     0.020 A 
HETATM    3  C6  UNL     1       2.607   5.775   4.753  1.00  0.00     0.001 A 
HETATM    4  C7  UNL     1       2.751   4.731   3.867  1.00  0.00     0.003 A 
HETATM    5  C8  UNL     1       3.353   3.553   4.303  1.00  0.00     0.038 A 
HETATM    6  C9  UNL     1       3.808   3.426   5.624  1.00  0.00     0.085 A 
ENDROOT
BRANCH   1   7
HETATM    7  C3  UNL     1       3.979   4.343   7.931  1.00  0.00     0.227 C 
BRANCH   7   8
HETATM    8  N3  UNL     1       3.298   4.868   8.934  1.00  0.00    -0.387 NA
BRANCH   8   9
HETATM    9  C2  UNL     1       2.588   5.412   9.983  1.00  0.00     0.261 C 
BRANCH   9  10
HETATM   10  C1  UNL     1       3.025   5.090  11.367  1.00  0.00     0.288 C 
HETATM   11  N2  UNL     1       2.498   3.927  11.977  1.00  0.00    -0.271 N 
ATOM     12  H2  UNL     1       1.834   3.331  11.484  1.00  0.00     0.189 HD
HETATM   13  O1  UNL     1       3.845   5.853  11.955  1.00  0.00    -0.264 OA
BRANCH  11  14
HETATM   14  N1  UNL     1       2.904   3.624  13.254  1.00  0.00    -0.342 N 
ATOM     15  H12 UNL     1       3.109   2.657  13.507  1.00  0.00     0.176 HD
ATOM     16  H11 UNL     1       2.991   4.387  13.925  1.00  0.00     0.176 HD
ENDBRANCH  11  14
ENDBRANCH   9  10
ENDBRANCH   8   9
ENDBRANCH   7   8
BRANCH   7  17
HETATM   17  O2  UNL     1       5.061   3.650   8.164  1.00  0.00    -0.335 OA
ATOM     18  H2  UNL     1       5.169   3.196   8.991  1.00  0.00     0.220 HD
ENDBRANCH   7  17
ENDBRANCH   1   7
BRANCH   6  19
HETATM   19  O3  UNL     1       4.428   2.215   5.996  1.00  0.00    -0.342 OA
BRANCH  19  20
HETATM   20  C10 UNL     1       5.505   1.771   5.179  1.00  0.00     0.261 C 
BRANCH  20  21
HETATM   21  C11 UNL     1       6.664   2.653   5.193  1.00  0.00     0.206 C 
HETATM   22  O4  UNL     1       7.195   2.896   6.329  1.00  0.00    -0.288 OA
BRANCH  21  23
HETATM   23  C12 UNL     1       7.215   3.229   3.973  1.00  0.00     0.122 A 
HETATM   24  C13 UNL     1       6.900   2.812   2.672  1.00  0.00     0.043 A 
HETATM   25  C14 UNL     1       7.606   3.601   1.793  1.00  0.00     0.027 A 
HETATM   26  C15 UNL     1       8.338   4.485   2.597  1.00  0.00     0.142 A 
HETATM   27  O5  UNL     1       8.059   4.206   3.830  1.00  0.00    -0.319 OA
ENDBRANCH  21  23
ENDBRANCH  20  21
ENDBRANCH  19  20
ENDBRANCH   6  19
TORSDOF 10
ENDMDL
