MODEL 1
REMARK VINA RESULT: -8.309454522      0.000      0.000
REMARK  8 active torsions:
REMARK  status: ('A' for Active; 'I' for Inactive)
REMARK    1  A    between atoms: C2_2  and  O2_4 
REMARK    2  A    between atoms: O2_4  and  C3_5 
REMARK    3  A    between atoms: C6_8  and  C7_9 
REMARK    4  A    between atoms: C7_9  and  N1_10 
REMARK    5  A    between atoms: N1_10  and  C8_12 
REMARK    6  A    between atoms: C8_12  and  C10_14 
REMARK       I    between atoms: C10_14  and  N2_16 
REMARK    7  A    between atoms: N2_16  and  C11_18 
REMARK    8  A    between atoms: C11_18  and  N3_21 
REMARK       I    between atoms: N3_21  and  C14_23 
ROOT
HETATM    1  C8  UNL     1      -2.240   5.269  17.110  1.00  0.00     0.165 C 
HETATM    2  C9  UNL     1      -2.294   4.680  18.530  1.00  0.00     0.042 C 
ENDROOT
BRANCH   1   3
HETATM    3  N1  UNL     1      -2.294   4.163  16.212  1.00  0.00    -0.406 N 
ATOM      4  H1  UNL     1      -2.525   3.221  16.530  1.00  0.00     0.154 HD
BRANCH   3   5
HETATM    5  C7  UNL     1      -2.009   4.446  14.844  1.00  0.00     0.153 C 
BRANCH   5   6
HETATM    6  C6  UNL     1      -0.811   3.626  14.463  1.00  0.00    -0.041 A 
HETATM    7  C5  UNL     1       0.202   4.122  13.671  1.00  0.00     0.011 A 
HETATM    8  C4  UNL     1       1.291   3.315  13.349  1.00  0.00     0.038 A 
HETATM    9  C3  UNL     1       1.396   2.014  13.799  1.00  0.00     0.079 A 
HETATM   10  C16 UNL     1       0.364   1.534  14.593  1.00  0.00     0.038 A 
HETATM   11  C15 UNL     1      -0.723   2.314  14.925  1.00  0.00     0.011 A 
BRANCH   9  12
HETATM   12  O2  UNL     1       2.491   1.210  13.471  1.00  0.00    -0.279 OA
BRANCH  12  13
HETATM   13  C2  UNL     1       2.240   0.074  12.717  1.00  0.00     0.260 C 
HETATM   14  C1  UNL     1       1.622   0.159  11.360  1.00  0.00     0.126 C 
HETATM   15  O1  UNL     1       2.538  -1.071  13.180  1.00  0.00    -0.265 OA
ENDBRANCH  12  13
ENDBRANCH   9  12
ENDBRANCH   5   6
ENDBRANCH   3   5
ENDBRANCH   1   3
BRANCH   1  16
HETATM   16  C10 UNL     1      -0.998   6.042  17.045  1.00  0.00     0.241 C 
HETATM   17  O3  UNL     1       0.080   5.540  17.443  1.00  0.00    -0.271 OA
HETATM   18  N2  UNL     1      -0.958   7.370  16.540  1.00  0.00    -0.333 N 
ATOM     19  H2  UNL     1      -1.824   7.797  16.212  1.00  0.00     0.165 HD
BRANCH  18  20
HETATM   20  C11 UNL     1       0.267   8.137  16.473  1.00  0.00     0.102 C 
HETATM   21  C12 UNL     1       0.055   9.532  15.952  1.00  0.00     0.062 C 
HETATM   22  C13 UNL     1       1.226   7.438  15.533  1.00  0.00     0.062 C 
BRANCH  20  23
HETATM   23  N3  UNL     1       0.912   8.207  17.771  1.00  0.00    -0.319 N 
HETATM   24  C14 UNL     1       0.174   8.762  18.849  1.00  0.00     0.330 C 
HETATM   25  N4  UNL     1       0.763   8.852  20.136  1.00  0.00    -0.040 NA
HETATM   26  O4  UNL     1      -0.999   9.186  18.709  1.00  0.00    -0.251 OA
ATOM     27  H3  UNL     1       1.865   7.868  17.904  1.00  0.00     0.166 HD
ENDBRANCH  20  23
ENDBRANCH  18  20
ENDBRANCH   1  16
TORSDOF 8
ENDMDL
MODEL 2
REMARK VINA RESULT: -8.273612284      2.866      7.777
REMARK  8 active torsions:
REMARK  status: ('A' for Active; 'I' for Inactive)
REMARK    1  A    between atoms: C2_2  and  O2_4 
REMARK    2  A    between atoms: O2_4  and  C3_5 
REMARK    3  A    between atoms: C6_8  and  C7_9 
REMARK    4  A    between atoms: C7_9  and  N1_10 
REMARK    5  A    between atoms: N1_10  and  C8_12 
REMARK    6  A    between atoms: C8_12  and  C10_14 
REMARK       I    between atoms: C10_14  and  N2_16 
REMARK    7  A    between atoms: N2_16  and  C11_18 
REMARK    8  A    between atoms: C11_18  and  N3_21 
REMARK       I    between atoms: N3_21  and  C14_23 
ROOT
HETATM    1  C8  UNL     1      -1.464   1.694  14.557  1.00  0.00     0.165 C 
HETATM    2  C9  UNL     1      -2.629   2.375  13.819  1.00  0.00     0.042 C 
ENDROOT
BRANCH   1   3
HETATM    3  N1  UNL     1      -1.359   2.335  15.827  1.00  0.00    -0.406 N 
ATOM      4  H1  UNL     1      -0.709   2.010  16.543  1.00  0.00     0.154 HD
BRANCH   3   5
HETATM    5  C7  UNL     1      -2.214   3.456  16.041  1.00  0.00     0.153 C 
BRANCH   5   6
HETATM    6  C6  UNL     1      -1.372   4.548  16.633  1.00  0.00    -0.041 A 
HETATM    7  C5  UNL     1      -1.242   4.725  17.994  1.00  0.00     0.011 A 
HETATM    8  C4  UNL     1      -0.447   5.756  18.488  1.00  0.00     0.038 A 
HETATM    9  C3  UNL     1       0.228   6.624  17.652  1.00  0.00     0.079 A 
HETATM   10  C16 UNL     1       0.083   6.429  16.286  1.00  0.00     0.038 A 
HETATM   11  C15 UNL     1      -0.699   5.415  15.775  1.00  0.00     0.011 A 
BRANCH   9  12
HETATM   12  O2  UNL     1       1.024   7.657  18.156  1.00  0.00    -0.279 OA
BRANCH  12  13
HETATM   13  C2  UNL     1       0.410   8.583  18.985  1.00  0.00     0.260 C 
HETATM   14  C1  UNL     1      -0.817   9.320  18.558  1.00  0.00     0.126 C 
HETATM   15  O1  UNL     1       0.893   8.819  20.136  1.00  0.00    -0.265 OA
ENDBRANCH  12  13
ENDBRANCH   9  12
ENDBRANCH   5   6
ENDBRANCH   3   5
ENDBRANCH   1   3
BRANCH   1  16
HETATM   16  C10 UNL     1      -0.292   1.863  13.695  1.00  0.00     0.241 C 
HETATM   17  O3  UNL     1       0.486   2.831  13.869  1.00  0.00    -0.271 OA
HETATM   18  N2  UNL     1       0.011   0.958  12.642  1.00  0.00    -0.333 N 
ATOM     19  H2  UNL     1      -0.610   0.165  12.482  1.00  0.00     0.165 HD
BRANCH  18  20
HETATM   20  C11 UNL     1       1.167   1.122  11.788  1.00  0.00     0.102 C 
HETATM   21  C12 UNL     1       1.049   2.302  10.864  1.00  0.00     0.062 C 
HETATM   22  C13 UNL     1       1.317  -0.117  10.931  1.00  0.00     0.062 C 
BRANCH  20  23
HETATM   23  N3  UNL     1       2.382   1.250  12.571  1.00  0.00    -0.319 N 
HETATM   24  C14 UNL     1       2.806   0.125  13.327  1.00  0.00     0.330 C 
HETATM   25  N4  UNL     1       3.986   0.203  14.108  1.00  0.00    -0.040 NA
HETATM   26  O4  UNL     1       2.167  -0.955  13.334  1.00  0.00    -0.251 OA
ATOM     27  H3  UNL     1       2.914   2.120  12.578  1.00  0.00     0.166 HD
ENDBRANCH  20  23
ENDBRANCH  18  20
ENDBRANCH   1  16
TORSDOF 8
ENDMDL
MODEL 3
REMARK VINA RESULT: -8.192403054      3.182      7.681
REMARK  8 active torsions:
REMARK  status: ('A' for Active; 'I' for Inactive)
REMARK    1  A    between atoms: C2_2  and  O2_4 
REMARK    2  A    between atoms: O2_4  and  C3_5 
REMARK    3  A    between atoms: C6_8  and  C7_9 
REMARK    4  A    between atoms: C7_9  and  N1_10 
REMARK    5  A    between atoms: N1_10  and  C8_12 
REMARK    6  A    between atoms: C8_12  and  C10_14 
REMARK       I    between atoms: C10_14  and  N2_16 
REMARK    7  A    between atoms: N2_16  and  C11_18 
REMARK    8  A    between atoms: C11_18  and  N3_21 
REMARK       I    between atoms: N3_21  and  C14_23 
ROOT
HETATM    1  C8  UNL     1      -1.579   1.277  14.572  1.00  0.00     0.165 C 
HETATM    2  C9  UNL     1      -2.727   2.143  14.028  1.00  0.00     0.042 C 
ENDROOT
BRANCH   1   3
HETATM    3  N1  UNL     1      -1.443   1.606  15.953  1.00  0.00    -0.406 N 
ATOM      4  H1  UNL     1      -0.602   1.374  16.482  1.00  0.00     0.154 HD
BRANCH   3   5
HETATM    5  C7  UNL     1      -2.547   2.279  16.553  1.00  0.00     0.153 C 
BRANCH   5   6
HETATM    6  C6  UNL     1      -1.998   3.475  17.275  1.00  0.00    -0.041 A 
HETATM    7  C5  UNL     1      -0.722   3.948  17.057  1.00  0.00     0.011 A 
HETATM    8  C4  UNL     1      -0.265   5.064  17.755  1.00  0.00     0.038 A 
HETATM    9  C3  UNL     1      -1.055   5.724  18.675  1.00  0.00     0.079 A 
HETATM   10  C16 UNL     1      -2.336   5.231  18.880  1.00  0.00     0.038 A 
HETATM   11  C15 UNL     1      -2.808   4.128  18.200  1.00  0.00     0.011 A 
BRANCH   9  12
HETATM   12  O2  UNL     1      -0.590   6.843  19.372  1.00  0.00    -0.279 OA
BRANCH  12  13
HETATM   13  C2  UNL     1      -0.047   7.875  18.622  1.00  0.00     0.260 C 
HETATM   14  C1  UNL     1      -0.908   8.783  17.806  1.00  0.00     0.126 C 
HETATM   15  O1  UNL     1       1.209   8.064  18.621  1.00  0.00    -0.265 OA
ENDBRANCH  12  13
ENDBRANCH   9  12
ENDBRANCH   5   6
ENDBRANCH   3   5
ENDBRANCH   1   3
BRANCH   1  16
HETATM   16  C10 UNL     1      -0.409   1.603  13.753  1.00  0.00     0.241 C 
HETATM   17  O3  UNL     1       0.290   2.610  14.023  1.00  0.00    -0.271 OA
HETATM   18  N2  UNL     1      -0.020   0.813  12.639  1.00  0.00    -0.333 N 
ATOM     19  H2  UNL     1      -0.575  -0.010  12.402  1.00  0.00     0.165 HD
BRANCH  18  20
HETATM   20  C11 UNL     1       1.135   1.132  11.828  1.00  0.00     0.102 C 
HETATM   21  C12 UNL     1       0.947   2.380  11.009  1.00  0.00     0.062 C 
HETATM   22  C13 UNL     1       1.384  -0.012  10.867  1.00  0.00     0.062 C 
BRANCH  20  23
HETATM   23  N3  UNL     1       2.325   1.273  12.644  1.00  0.00    -0.319 N 
HETATM   24  C14 UNL     1       2.804   0.121  13.323  1.00  0.00     0.330 C 
HETATM   25  N4  UNL     1       3.964   0.210  14.133  1.00  0.00    -0.040 NA
HETATM   26  O4  UNL     1       2.233  -0.993  13.235  1.00  0.00    -0.251 OA
ATOM     27  H3  UNL     1       2.803   2.171  12.728  1.00  0.00     0.166 HD
ENDBRANCH  20  23
ENDBRANCH  18  20
ENDBRANCH   1  16
TORSDOF 8
ENDMDL
MODEL 4
REMARK VINA RESULT: -8.175489890      3.059      7.443
REMARK  8 active torsions:
REMARK  status: ('A' for Active; 'I' for Inactive)
REMARK    1  A    between atoms: C2_2  and  O2_4 
REMARK    2  A    between atoms: O2_4  and  C3_5 
REMARK    3  A    between atoms: C6_8  and  C7_9 
REMARK    4  A    between atoms: C7_9  and  N1_10 
REMARK    5  A    between atoms: N1_10  and  C8_12 
REMARK    6  A    between atoms: C8_12  and  C10_14 
REMARK       I    between atoms: C10_14  and  N2_16 
REMARK    7  A    between atoms: N2_16  and  C11_18 
REMARK    8  A    between atoms: C11_18  and  N3_21 
REMARK       I    between atoms: N3_21  and  C14_23 
ROOT
HETATM    1  C8  UNL     1      -1.363   0.886  14.770  1.00  0.00     0.165 C 
HETATM    2  C9  UNL     1      -2.567   0.907  13.813  1.00  0.00     0.042 C 
ENDROOT
BRANCH   1   3
HETATM    3  N1  UNL     1      -1.762   1.605  15.936  1.00  0.00    -0.406 N 
ATOM      4  H1  UNL     1      -1.529   1.280  16.875  1.00  0.00     0.154 HD
BRANCH   3   5
HETATM    5  C7  UNL     1      -2.502   2.803  15.717  1.00  0.00     0.153 C 
BRANCH   5   6
HETATM    6  C6  UNL     1      -1.594   3.952  16.044  1.00  0.00    -0.041 A 
HETATM    7  C5  UNL     1      -1.073   4.147  17.305  1.00  0.00     0.011 A 
HETATM    8  C4  UNL     1      -0.234   5.232  17.551  1.00  0.00     0.038 A 
HETATM    9  C3  UNL     1       0.101   6.135  16.562  1.00  0.00     0.079 A 
HETATM   10  C16 UNL     1      -0.434   5.920  15.300  1.00  0.00     0.038 A 
HETATM   11  C15 UNL     1      -1.266   4.854  15.034  1.00  0.00     0.011 A 
BRANCH   9  12
HETATM   12  O2  UNL     1       0.944   7.221  16.816  1.00  0.00    -0.279 OA
BRANCH  12  13
HETATM   13  C2  UNL     1       0.565   8.095  17.823  1.00  0.00     0.260 C 
HETATM   14  C1  UNL     1      -0.542   9.079  17.626  1.00  0.00     0.126 C 
HETATM   15  O1  UNL     1       1.164   8.068  18.943  1.00  0.00    -0.265 OA
ENDBRANCH  12  13
ENDBRANCH   9  12
ENDBRANCH   5   6
ENDBRANCH   3   5
ENDBRANCH   1   3
BRANCH   1  16
HETATM   16  C10 UNL     1      -0.256   1.496  14.032  1.00  0.00     0.241 C 
HETATM   17  O3  UNL     1       0.741   1.948  14.646  1.00  0.00    -0.271 OA
HETATM   18  N2  UNL     1      -0.258   1.604  12.615  1.00  0.00    -0.333 N 
ATOM     19  H2  UNL     1      -1.059   1.243  12.096  1.00  0.00     0.165 HD
BRANCH  18  20
HETATM   20  C11 UNL     1       0.835   2.205  11.881  1.00  0.00     0.102 C 
HETATM   21  C12 UNL     1       0.968   3.681  12.138  1.00  0.00     0.062 C 
HETATM   22  C13 UNL     1       0.585   2.019  10.399  1.00  0.00     0.062 C 
BRANCH  20  23
HETATM   23  N3  UNL     1       2.094   1.553  12.189  1.00  0.00    -0.319 N 
HETATM   24  C14 UNL     1       2.213   0.169  11.895  1.00  0.00     0.330 C 
HETATM   25  N4  UNL     1       3.424  -0.512  12.178  1.00  0.00    -0.040 NA
HETATM   26  O4  UNL     1       1.274  -0.490  11.386  1.00  0.00    -0.251 OA
ATOM     27  H3  UNL     1       2.868   2.072  12.603  1.00  0.00     0.166 HD
ENDBRANCH  20  23
ENDBRANCH  18  20
ENDBRANCH   1  16
TORSDOF 8
ENDMDL
MODEL 5
REMARK VINA RESULT: -8.164522427      1.658      2.550
REMARK  8 active torsions:
REMARK  status: ('A' for Active; 'I' for Inactive)
REMARK    1  A    between atoms: C2_2  and  O2_4 
REMARK    2  A    between atoms: O2_4  and  C3_5 
REMARK    3  A    between atoms: C6_8  and  C7_9 
REMARK    4  A    between atoms: C7_9  and  N1_10 
REMARK    5  A    between atoms: N1_10  and  C8_12 
REMARK    6  A    between atoms: C8_12  and  C10_14 
REMARK       I    between atoms: C10_14  and  N2_16 
REMARK    7  A    between atoms: N2_16  and  C11_18 
REMARK    8  A    between atoms: C11_18  and  N3_21 
REMARK       I    between atoms: N3_21  and  C14_23 
ROOT
HETATM    1  C8  UNL     1      -0.637   7.238  15.531  1.00  0.00     0.165 C 
HETATM    2  C9  UNL     1      -1.990   7.246  14.798  1.00  0.00     0.042 C 
ENDROOT
BRANCH   1   3
HETATM    3  N1  UNL     1       0.121   6.168  14.968  1.00  0.00    -0.406 N 
ATOM      4  H1  UNL     1       0.937   5.780  15.441  1.00  0.00     0.154 HD
BRANCH   3   5
HETATM    5  C7  UNL     1      -0.326   5.672  13.709  1.00  0.00     0.153 C 
BRANCH   5   6
HETATM    6  C6  UNL     1       0.102   4.236  13.622  1.00  0.00    -0.041 A 
HETATM    7  C5  UNL     1       0.439   3.637  12.427  1.00  0.00     0.011 A 
HETATM    8  C4  UNL     1       0.829   2.299  12.406  1.00  0.00     0.038 A 
HETATM    9  C3  UNL     1       0.890   1.537  13.556  1.00  0.00     0.079 A 
HETATM   10  C16 UNL     1       0.545   2.160  14.747  1.00  0.00     0.038 A 
HETATM   11  C15 UNL     1       0.156   3.482  14.792  1.00  0.00     0.011 A 
BRANCH   9  12
HETATM   12  O2  UNL     1       1.282   0.196  13.527  1.00  0.00    -0.279 OA
BRANCH  12  13
HETATM   13  C2  UNL     1       2.614  -0.068  13.248  1.00  0.00     0.260 C 
HETATM   14  C1  UNL     1       3.094  -0.260  11.846  1.00  0.00     0.126 C 
HETATM   15  O1  UNL     1       3.454  -0.152  14.197  1.00  0.00    -0.265 OA
ENDBRANCH  12  13
ENDBRANCH   9  12
ENDBRANCH   5   6
ENDBRANCH   3   5
ENDBRANCH   1   3
BRANCH   1  16
HETATM   16  C10 UNL     1      -0.952   7.076  16.951  1.00  0.00     0.241 C 
HETATM   17  O3  UNL     1      -0.410   6.162  17.619  1.00  0.00    -0.271 OA
HETATM   18  N2  UNL     1      -1.869   7.927  17.626  1.00  0.00    -0.333 N 
ATOM     19  H2  UNL     1      -2.321   8.676  17.102  1.00  0.00     0.165 HD
BRANCH  18  20
HETATM   20  C11 UNL     1      -2.183   7.770  19.030  1.00  0.00     0.102 C 
HETATM   21  C12 UNL     1      -2.965   6.518  19.317  1.00  0.00     0.062 C 
HETATM   22  C13 UNL     1      -3.025   8.948  19.473  1.00  0.00     0.062 C 
BRANCH  20  23
HETATM   23  N3  UNL     1      -0.979   7.775  19.839  1.00  0.00    -0.319 N 
HETATM   24  C14 UNL     1      -0.117   8.899  19.738  1.00  0.00     0.330 C 
HETATM   25  N4  UNL     1       1.072   8.949  20.509  1.00  0.00    -0.040 NA
HETATM   26  O4  UNL     1      -0.365   9.867  18.979  1.00  0.00    -0.251 OA
ATOM     27  H3  UNL     1      -0.760   6.997  20.461  1.00  0.00     0.166 HD
ENDBRANCH  20  23
ENDBRANCH  18  20
ENDBRANCH   1  16
TORSDOF 8
ENDMDL
