MODEL 1
REMARK VINA RESULT: -8.393935561      0.000      0.000
REMARK  10 active torsions:
REMARK  status: ('A' for Active; 'I' for Inactive)
REMARK    1  A    between atoms: C2_2  and  C3_3 
REMARK    2  A    between atoms: C2_2  and  C4_8 
REMARK    3  A    between atoms: C3_3  and  O1_4 
REMARK    4  A    between atoms: O1_4  and  N1_5 
REMARK    5  A    between atoms: C4_8  and  O2_9 
REMARK    6  A    between atoms: O2_9  and  C5_10 
REMARK    7  A    between atoms: C8_13  and  C9_14 
REMARK    8  A    between atoms: C9_14  and  C10_15 
REMARK    9  A    between atoms: C10_15  and  C11_16 
REMARK   10  A    between atoms: C12_21  and  N4_22 
ROOT
HETATM    1  C5  UNL     1       0.324   3.841  14.113  1.00  0.00     0.068 A 
HETATM    2  C6  UNL     1      -0.486   4.829  13.597  1.00  0.00     0.037 A 
HETATM    3  C7  UNL     1      -0.380   6.128  14.083  1.00  0.00     0.014 A 
HETATM    4  C8  UNL     1       0.494   6.513  15.062  1.00  0.00    -0.036 A 
HETATM    5  C14 UNL     1       1.299   5.479  15.557  1.00  0.00     0.014 A 
HETATM    6  C15 UNL     1       1.251   4.197  15.136  1.00  0.00     0.037 A 
ENDROOT
BRANCH   4   7
HETATM    7  C9  UNL     1       0.636   7.861  15.596  1.00  0.00     0.014 C 
BRANCH   7   8
HETATM    8  C10 UNL     1       0.785   8.109  16.850  1.00  0.00     0.037 C 
BRANCH   8   9
HETATM    9  C11 UNL     1      -0.206   8.292  17.881  1.00  0.00     0.117 A 
HETATM   10  N2  UNL     1      -1.532   8.270  17.488  1.00  0.00    -0.281 N 
HETATM   11  N3  UNL     1      -2.499   8.428  18.355  1.00  0.00    -0.132 N 
ATOM     12  H2  UNL     1      -1.760   8.129  16.504  1.00  0.00     0.187 HD
HETATM   13  C12 UNL     1      -2.273   8.617  19.661  1.00  0.00     0.693 A 
ATOM     14  H3  UNL     1      -3.464   8.405  18.023  1.00  0.00     0.205 HD
HETATM   15  N5  UNL     1      -0.999   8.641  20.055  1.00  0.00    -0.153 N 
HETATM   16  C13 UNL     1       0.044   8.483  19.206  1.00  0.00     0.287 A 
ATOM     17  H5  UNL     1      -0.801   8.784  21.045  1.00  0.00     0.187 HD
HETATM   18  O3  UNL     1       1.221   8.513  19.625  1.00  0.00    -0.265 OA
BRANCH  13  19
HETATM   19  N4  UNL     1      -3.236   8.773  20.519  1.00  0.00    -0.233 N 
ATOM     20  H42 UNL     1      -4.054   9.337  20.287  1.00  0.00     0.174 HD
ATOM     21  H41 UNL     1      -3.217   8.346  21.446  1.00  0.00     0.174 HD
ENDBRANCH  13  19
ENDBRANCH   8   9
ENDBRANCH   7   8
ENDBRANCH   4   7
BRANCH   1  22
HETATM   22  O2  UNL     1       0.250   2.613  13.687  1.00  0.00    -0.351 OA
BRANCH  22  23
HETATM   23  C4  UNL     1       0.310   1.634  12.859  1.00  0.00     0.182 C 
BRANCH  23  24
HETATM   24  C2  UNL     1       1.251   1.633  11.665  1.00  0.00     0.032 C 
HETATM   25  C1  UNL     1       0.824   2.531  10.588  1.00  0.00     0.014 C 
BRANCH  24  26
HETATM   26  C3  UNL     1       1.437   0.194  11.210  1.00  0.00     0.206 C 
BRANCH  26  27
HETATM   27  O1  UNL     1       2.206  -0.431  12.212  1.00  0.00    -0.287 OA
BRANCH  27  28
HETATM   28  N1  UNL     1       3.504  -0.099  12.109  1.00  0.00    -0.311 N 
ATOM     29  H12 UNL     1       3.841   0.864  12.110  1.00  0.00     0.184 HD
ATOM     30  H11 UNL     1       4.094  -0.927  12.031  1.00  0.00     0.184 HD
ENDBRANCH  27  28
ENDBRANCH  26  27
ENDBRANCH  24  26
ENDBRANCH  23  24
ENDBRANCH  22  23
ENDBRANCH   1  22
TORSDOF 10
ENDMDL
MODEL 2
REMARK VINA RESULT: -8.352739993      0.790      1.287
REMARK  10 active torsions:
REMARK  status: ('A' for Active; 'I' for Inactive)
REMARK    1  A    between atoms: C2_2  and  C3_3 
REMARK    2  A    between atoms: C2_2  and  C4_8 
REMARK    3  A    between atoms: C3_3  and  O1_4 
REMARK    4  A    between atoms: O1_4  and  N1_5 
REMARK    5  A    between atoms: C4_8  and  O2_9 
REMARK    6  A    between atoms: O2_9  and  C5_10 
REMARK    7  A    between atoms: C8_13  and  C9_14 
REMARK    8  A    between atoms: C9_14  and  C10_15 
REMARK    9  A    between atoms: C10_15  and  C11_16 
REMARK   10  A    between atoms: C12_21  and  N4_22 
ROOT
HETATM    1  C5  UNL     1       0.557   4.630  14.442  1.00  0.00     0.068 A 
HETATM    2  C6  UNL     1       1.441   5.174  15.350  1.00  0.00     0.037 A 
HETATM    3  C7  UNL     1       1.330   6.516  15.696  1.00  0.00     0.014 A 
HETATM    4  C8  UNL     1       0.381   7.364  15.193  1.00  0.00    -0.036 A 
HETATM    5  C14 UNL     1      -0.496   6.770  14.276  1.00  0.00     0.014 A 
HETATM    6  C15 UNL     1      -0.448   5.476  13.892  1.00  0.00     0.037 A 
ENDROOT
BRANCH   4   7
HETATM    7  C9  UNL     1       0.232   8.773  15.531  1.00  0.00     0.014 C 
BRANCH   7   8
HETATM    8  C10 UNL     1       0.191   9.206  16.741  1.00  0.00     0.037 C 
BRANCH   8   9
HETATM    9  C11 UNL     1      -0.640   8.791  17.844  1.00  0.00     0.117 A 
HETATM   10  N2  UNL     1      -2.001   8.718  17.612  1.00  0.00    -0.281 N 
HETATM   11  N3  UNL     1      -2.832   8.350  18.554  1.00  0.00    -0.132 N 
ATOM     12  H2  UNL     1      -2.365   8.955  16.689  1.00  0.00     0.187 HD
HETATM   13  C12 UNL     1      -2.424   8.026  19.787  1.00  0.00     0.693 A 
ATOM     14  H3  UNL     1      -3.828   8.310  18.340  1.00  0.00     0.205 HD
HETATM   15  N5  UNL     1      -1.114   8.091  20.027  1.00  0.00    -0.153 N 
HETATM   16  C13 UNL     1      -0.206   8.464  19.094  1.00  0.00     0.287 A 
ATOM     17  H5  UNL     1      -0.780   7.849  20.959  1.00  0.00     0.187 HD
HETATM   18  O3  UNL     1       1.012   8.510  19.367  1.00  0.00    -0.265 OA
BRANCH  13  19
HETATM   19  N4  UNL     1      -3.252   7.661  20.721  1.00  0.00    -0.233 N 
ATOM     20  H42 UNL     1      -3.997   6.991  20.524  1.00  0.00     0.174 HD
ATOM     21  H41 UNL     1      -3.195   8.022  21.674  1.00  0.00     0.174 HD
ENDBRANCH  13  19
ENDBRANCH   8   9
ENDBRANCH   7   8
ENDBRANCH   4   7
BRANCH   1  22
HETATM   22  O2  UNL     1       0.634   3.379  14.090  1.00  0.00    -0.351 OA
BRANCH  22  23
HETATM   23  C4  UNL     1       0.791   2.367  13.316  1.00  0.00     0.182 C 
BRANCH  23  24
HETATM   24  C2  UNL     1       1.276   2.505  11.882  1.00  0.00     0.032 C 
HETATM   25  C1  UNL     1       0.291   3.131  10.993  1.00  0.00     0.014 C 
BRANCH  24  26
HETATM   26  C3  UNL     1       1.734   1.137  11.403  1.00  0.00     0.206 C 
BRANCH  26  27
HETATM   27  O1  UNL     1       2.412   0.554  12.492  1.00  0.00    -0.287 OA
BRANCH  27  28
HETATM   28  N1  UNL     1       3.523  -0.086  12.090  1.00  0.00    -0.311 N 
ATOM     29  H12 UNL     1       4.349   0.392  11.730  1.00  0.00     0.184 HD
ATOM     30  H11 UNL     1       3.427  -1.096  12.193  1.00  0.00     0.184 HD
ENDBRANCH  27  28
ENDBRANCH  26  27
ENDBRANCH  24  26
ENDBRANCH  23  24
ENDBRANCH  22  23
ENDBRANCH   1  22
TORSDOF 10
ENDMDL
MODEL 3
REMARK VINA RESULT: -8.352527113      1.689      2.119
REMARK  10 active torsions:
REMARK  status: ('A' for Active; 'I' for Inactive)
REMARK    1  A    between atoms: C2_2  and  C3_3 
REMARK    2  A    between atoms: C2_2  and  C4_8 
REMARK    3  A    between atoms: C3_3  and  O1_4 
REMARK    4  A    between atoms: O1_4  and  N1_5 
REMARK    5  A    between atoms: C4_8  and  O2_9 
REMARK    6  A    between atoms: O2_9  and  C5_10 
REMARK    7  A    between atoms: C8_13  and  C9_14 
REMARK    8  A    between atoms: C9_14  and  C10_15 
REMARK    9  A    between atoms: C10_15  and  C11_16 
REMARK   10  A    between atoms: C12_21  and  N4_22 
ROOT
HETATM    1  C5  UNL     1      -0.393   3.033  13.953  1.00  0.00     0.068 A 
HETATM    2  C6  UNL     1      -1.544   3.323  14.655  1.00  0.00     0.037 A 
HETATM    3  C7  UNL     1      -1.921   4.648  14.839  1.00  0.00     0.014 A 
HETATM    4  C8  UNL     1      -1.219   5.720  14.361  1.00  0.00    -0.036 A 
HETATM    5  C14 UNL     1      -0.059   5.382  13.653  1.00  0.00     0.014 A 
HETATM    6  C15 UNL     1       0.370   4.120  13.436  1.00  0.00     0.037 A 
ENDROOT
BRANCH   4   7
HETATM    7  C9  UNL     1      -1.581   7.122  14.532  1.00  0.00     0.014 C 
BRANCH   7   8
HETATM    8  C10 UNL     1      -0.790   7.995  15.047  1.00  0.00     0.037 C 
BRANCH   8   9
HETATM    9  C11 UNL     1      -0.428   8.215  16.426  1.00  0.00     0.117 A 
HETATM   10  N2  UNL     1      -1.349   8.875  17.219  1.00  0.00    -0.281 N 
HETATM   11  N3  UNL     1      -1.106   9.118  18.481  1.00  0.00    -0.132 N 
ATOM     12  H2  UNL     1      -2.234   9.177  16.812  1.00  0.00     0.187 HD
HETATM   13  C12 UNL     1       0.034   8.751  19.079  1.00  0.00     0.693 A 
ATOM     14  H3  UNL     1      -1.813   9.607  19.031  1.00  0.00     0.205 HD
HETATM   15  N5  UNL     1       0.932   8.114  18.327  1.00  0.00    -0.153 N 
HETATM   16  C13 UNL     1       0.738   7.833  17.017  1.00  0.00     0.287 A 
ATOM     17  H5  UNL     1       1.809   7.824  18.761  1.00  0.00     0.187 HD
HETATM   18  O3  UNL     1       1.611   7.234  16.354  1.00  0.00    -0.265 OA
BRANCH  13  19
HETATM   19  N4  UNL     1       0.272   8.994  20.334  1.00  0.00    -0.233 N 
ATOM     20  H42 UNL     1      -0.162   8.430  21.065  1.00  0.00     0.174 HD
ATOM     21  H41 UNL     1       0.891   9.746  20.637  1.00  0.00     0.174 HD
ENDBRANCH  13  19
ENDBRANCH   8   9
ENDBRANCH   7   8
ENDBRANCH   4   7
BRANCH   1  22
HETATM   22  O2  UNL     1      -0.006   1.805  13.765  1.00  0.00    -0.351 OA
BRANCH  22  23
HETATM   23  C4  UNL     1       0.592   0.817  13.204  1.00  0.00     0.182 C 
BRANCH  23  24
HETATM   24  C2  UNL     1       1.923   0.972  12.486  1.00  0.00     0.032 C 
HETATM   25  C1  UNL     1       1.787   1.427  11.099  1.00  0.00     0.014 C 
BRANCH  24  26
HETATM   26  C3  UNL     1       2.687  -0.337  12.617  1.00  0.00     0.206 C 
BRANCH  26  27
HETATM   27  O1  UNL     1       3.260  -0.322  13.904  1.00  0.00    -0.287 OA
BRANCH  27  28
HETATM   28  N1  UNL     1       3.894   0.838  14.144  1.00  0.00    -0.311 N 
ATOM     29  H12 UNL     1       3.932   1.607  13.475  1.00  0.00     0.184 HD
ATOM     30  H11 UNL     1       4.322   0.842  15.069  1.00  0.00     0.184 HD
ENDBRANCH  27  28
ENDBRANCH  26  27
ENDBRANCH  24  26
ENDBRANCH  23  24
ENDBRANCH  22  23
ENDBRANCH   1  22
TORSDOF 10
ENDMDL
MODEL 4
REMARK VINA RESULT: -8.272347404      1.428      1.641
REMARK  10 active torsions:
REMARK  status: ('A' for Active; 'I' for Inactive)
REMARK    1  A    between atoms: C2_2  and  C3_3 
REMARK    2  A    between atoms: C2_2  and  C4_8 
REMARK    3  A    between atoms: C3_3  and  O1_4 
REMARK    4  A    between atoms: O1_4  and  N1_5 
REMARK    5  A    between atoms: C4_8  and  O2_9 
REMARK    6  A    between atoms: O2_9  and  C5_10 
REMARK    7  A    between atoms: C8_13  and  C9_14 
REMARK    8  A    between atoms: C9_14  and  C10_15 
REMARK    9  A    between atoms: C10_15  and  C11_16 
REMARK   10  A    between atoms: C12_21  and  N4_22 
ROOT
HETATM    1  C5  UNL     1       0.909   4.802  14.547  1.00  0.00     0.068 A 
HETATM    2  C6  UNL     1      -0.190   5.415  13.984  1.00  0.00     0.037 A 
HETATM    3  C7  UNL     1      -0.500   6.725  14.334  1.00  0.00     0.014 A 
HETATM    4  C8  UNL     1       0.225   7.476  15.218  1.00  0.00    -0.036 A 
HETATM    5  C14 UNL     1       1.333   6.816  15.765  1.00  0.00     0.014 A 
HETATM    6  C15 UNL     1       1.694   5.547  15.474  1.00  0.00     0.037 A 
ENDROOT
BRANCH   4   7
HETATM    7  C9  UNL     1      -0.067   8.849  15.610  1.00  0.00     0.014 C 
BRANCH   7   8
HETATM    8  C10 UNL     1      -0.057   9.249  16.832  1.00  0.00     0.037 C 
BRANCH   8   9
HETATM    9  C11 UNL     1      -0.901   8.866  17.938  1.00  0.00     0.117 A 
HETATM   10  N2  UNL     1      -2.254   8.742  17.681  1.00  0.00    -0.281 N 
HETATM   11  N3  UNL     1      -3.094   8.398  18.623  1.00  0.00    -0.132 N 
ATOM     12  H2  UNL     1      -2.603   8.921  16.740  1.00  0.00     0.187 HD
HETATM   13  C12 UNL     1      -2.705   8.148  19.880  1.00  0.00     0.693 A 
ATOM     14  H3  UNL     1      -4.084   8.318  18.391  1.00  0.00     0.205 HD
HETATM   15  N5  UNL     1      -1.403   8.264  20.143  1.00  0.00    -0.153 N 
HETATM   16  C13 UNL     1      -0.486   8.615  19.211  1.00  0.00     0.287 A 
ATOM     17  H5  UNL     1      -1.082   8.079  21.093  1.00  0.00     0.187 HD
HETATM   18  O3  UNL     1       0.724   8.711  19.507  1.00  0.00    -0.265 OA
BRANCH  13  19
HETATM   19  N4  UNL     1      -3.543   7.807  20.813  1.00  0.00    -0.233 N 
ATOM     20  H42 UNL     1      -3.215   7.596  21.756  1.00  0.00     0.174 HD
ATOM     21  H41 UNL     1      -4.547   7.737  20.647  1.00  0.00     0.174 HD
ENDBRANCH  13  19
ENDBRANCH   8   9
ENDBRANCH   7   8
ENDBRANCH   4   7
BRANCH   1  22
HETATM   22  O2  UNL     1       1.228   3.576  14.248  1.00  0.00    -0.351 OA
BRANCH  22  23
HETATM   23  C4  UNL     1       1.749   2.608  13.585  1.00  0.00     0.182 C 
BRANCH  23  24
HETATM   24  C2  UNL     1       0.932   1.724  12.657  1.00  0.00     0.032 C 
HETATM   25  C1  UNL     1       0.154   0.701  13.363  1.00  0.00     0.014 C 
BRANCH  24  26
HETATM   26  C3  UNL     1       1.869   1.148  11.606  1.00  0.00     0.206 C 
BRANCH  26  27
HETATM   27  O1  UNL     1       1.790   2.018  10.500  1.00  0.00    -0.287 OA
BRANCH  27  28
HETATM   28  N1  UNL     1       0.556   2.021   9.969  1.00  0.00    -0.311 N 
ATOM     29  H12 UNL     1      -0.007   2.865   9.856  1.00  0.00     0.184 HD
ATOM     30  H11 UNL     1       0.266   1.081   9.699  1.00  0.00     0.184 HD
ENDBRANCH  27  28
ENDBRANCH  26  27
ENDBRANCH  24  26
ENDBRANCH  23  24
ENDBRANCH  22  23
ENDBRANCH   1  22
TORSDOF 10
ENDMDL
MODEL 5
REMARK VINA RESULT: -8.198504775      1.770      2.114
REMARK  10 active torsions:
REMARK  status: ('A' for Active; 'I' for Inactive)
REMARK    1  A    between atoms: C2_2  and  C3_3 
REMARK    2  A    between atoms: C2_2  and  C4_8 
REMARK    3  A    between atoms: C3_3  and  O1_4 
REMARK    4  A    between atoms: O1_4  and  N1_5 
REMARK    5  A    between atoms: C4_8  and  O2_9 
REMARK    6  A    between atoms: O2_9  and  C5_10 
REMARK    7  A    between atoms: C8_13  and  C9_14 
REMARK    8  A    between atoms: C9_14  and  C10_15 
REMARK    9  A    between atoms: C10_15  and  C11_16 
REMARK   10  A    between atoms: C12_21  and  N4_22 
ROOT
HETATM    1  C5  UNL     1      -0.419   2.839  13.805  1.00  0.00     0.068 A 
HETATM    2  C6  UNL     1      -1.581   3.116  14.494  1.00  0.00     0.037 A 
HETATM    3  C7  UNL     1      -1.937   4.439  14.735  1.00  0.00     0.014 A 
HETATM    4  C8  UNL     1      -1.204   5.519  14.327  1.00  0.00    -0.036 A 
HETATM    5  C14 UNL     1      -0.033   5.192  13.630  1.00  0.00     0.014 A 
HETATM    6  C15 UNL     1       0.377   3.934  13.361  1.00  0.00     0.037 A 
ENDROOT
BRANCH   4   7
HETATM    7  C9  UNL     1      -1.543   6.917  14.558  1.00  0.00     0.014 C 
BRANCH   7   8
HETATM    8  C10 UNL     1      -0.760   7.740  15.162  1.00  0.00     0.037 C 
BRANCH   8   9
HETATM    9  C11 UNL     1      -0.650   8.051  16.566  1.00  0.00     0.117 A 
HETATM   10  N2  UNL     1      -0.809   7.005  17.455  1.00  0.00    -0.281 N 
HETATM   11  N3  UNL     1      -0.725   7.194  18.747  1.00  0.00    -0.132 N 
ATOM     12  H2  UNL     1      -0.994   6.067  17.098  1.00  0.00     0.187 HD
HETATM   13  C12 UNL     1      -0.484   8.395  19.286  1.00  0.00     0.693 A 
ATOM     14  H3  UNL     1      -0.849   6.394  19.369  1.00  0.00     0.205 HD
HETATM   15  N5  UNL     1      -0.328   9.415  18.441  1.00  0.00    -0.153 N 
HETATM   16  C13 UNL     1      -0.403   9.282  17.095  1.00  0.00     0.287 A 
ATOM     17  H5  UNL     1      -0.144  10.341  18.827  1.00  0.00     0.187 HD
HETATM   18  O3  UNL     1      -0.250  10.269  16.344  1.00  0.00    -0.265 OA
BRANCH  13  19
HETATM   19  N4  UNL     1      -0.401   8.579  20.570  1.00  0.00    -0.233 N 
ATOM     20  H42 UNL     1       0.281   8.065  21.127  1.00  0.00     0.174 HD
ATOM     21  H41 UNL     1      -1.004   9.235  21.068  1.00  0.00     0.174 HD
ENDBRANCH  13  19
ENDBRANCH   8   9
ENDBRANCH   7   8
ENDBRANCH   4   7
BRANCH   1  22
HETATM   22  O2  UNL     1      -0.051   1.614  13.566  1.00  0.00    -0.351 OA
BRANCH  22  23
HETATM   23  C4  UNL     1       0.608   0.651  13.030  1.00  0.00     0.182 C 
BRANCH  23  24
HETATM   24  C2  UNL     1       1.959   0.860  12.364  1.00  0.00     0.032 C 
HETATM   25  C1  UNL     1       1.858   1.319  10.975  1.00  0.00     0.014 C 
BRANCH  24  26
HETATM   26  C3  UNL     1       2.765  -0.421  12.517  1.00  0.00     0.206 C 
BRANCH  26  27
HETATM   27  O1  UNL     1       3.293  -0.390  13.824  1.00  0.00    -0.287 OA
BRANCH  27  28
HETATM   28  N1  UNL     1       3.796   0.820  14.119  1.00  0.00    -0.311 N 
ATOM     29  H12 UNL     1       4.283   1.408  13.443  1.00  0.00     0.184 HD
ATOM     30  H11 UNL     1       3.626   1.064  15.095  1.00  0.00     0.184 HD
ENDBRANCH  27  28
ENDBRANCH  26  27
ENDBRANCH  24  26
ENDBRANCH  23  24
ENDBRANCH  22  23
ENDBRANCH   1  22
TORSDOF 10
ENDMDL
