MODEL 1
REMARK VINA RESULT: -9.057358520      0.000      0.000
REMARK  6 active torsions:
REMARK  status: ('A' for Active; 'I' for Inactive)
REMARK    1  A    between atoms: N3_4  and  N4_6 
REMARK    2  A    between atoms: N4_6  and  C2_7 
REMARK       I    between atoms: N4_6  and  C15_23 
REMARK    3  A    between atoms: C2_7  and  C3_8 
REMARK    4  A    between atoms: C6_11  and  O1_12 
REMARK    5  A    between atoms: O1_12  and  C7_13 
REMARK    6  A    between atoms: C7_13  and  C8_14 
REMARK       I    between atoms: C15_23  and  N6_24 
REMARK       I    between atoms: C15_23  and  N7_28 
ROOT
HETATM    1  C2  UNL     1      -1.163   7.159  16.701  1.00  0.00     0.186 C 
ENDROOT
BRANCH   1   2
HETATM    2  N4  UNL     1      -0.061   8.058  16.833  1.00  0.00    -0.269 N 
HETATM    3  C15 UNL     1       0.340   8.868  15.705  1.00  0.00     0.497 C 
HETATM    4  N6  UNL     1      -0.485   8.643  14.546  1.00  0.00    -0.031 N 
HETATM    5  N7  UNL     1       0.303  10.283  16.038  1.00  0.00    -0.031 N 
ATOM      6  H63 UNL     1      -0.508   7.654  14.298  1.00  0.00     0.279 HD
ATOM      7  H62 UNL     1      -1.472   8.780  14.765  1.00  0.00     0.279 HD
ATOM      8  H61 UNL     1      -0.201   9.214  13.750  1.00  0.00     0.279 HD
ATOM      9  H73 UNL     1      -0.611  10.562  16.394  1.00  0.00     0.279 HD
ATOM     10  H72 UNL     1       0.862  10.488  16.866  1.00  0.00     0.279 HD
ATOM     11  H71 UNL     1       0.587  10.854  15.242  1.00  0.00     0.279 HD
BRANCH   2  12
HETATM   12  N3  UNL     1       0.622   8.150  18.042  1.00  0.00    -0.275 N 
HETATM   13  C1  UNL     1       0.190   8.840  19.043  1.00  0.00     0.215 C 
HETATM   14  N1  UNL     1       0.967   8.866  20.231  1.00  0.00    -0.065 NA
HETATM   15  N2  UNL     1      -1.033   9.563  18.971  1.00  0.00    -0.065 NA
ATOM     16  H3  UNL     1       1.504   7.648  18.141  1.00  0.00     0.189 HD
ENDBRANCH   2  12
ENDBRANCH   1   2
BRANCH   1  17
HETATM   17  C3  UNL     1      -0.769   5.783  16.306  1.00  0.00    -0.023 A 
HETATM   18  C4  UNL     1      -1.731   4.863  15.886  1.00  0.00     0.014 A 
HETATM   19  C5  UNL     1      -1.356   3.583  15.524  1.00  0.00     0.057 A 
HETATM   20  C6  UNL     1      -0.043   3.164  15.561  1.00  0.00     0.142 A 
HETATM   21  N5  UNL     1       0.871   4.061  15.967  1.00  0.00    -0.346 N 
HETATM   22  C14 UNL     1       0.532   5.335  16.331  1.00  0.00     0.099 A 
ATOM     23  H5  UNL     1       1.851   3.783  16.006  1.00  0.00     0.167 HD
BRANCH  20  24
HETATM   24  O1  UNL     1       0.268   1.866  15.184  1.00  0.00    -0.331 OA
BRANCH  24  25
HETATM   25  C7  UNL     1      -0.420   1.147  14.208  1.00  0.00     0.216 C 
BRANCH  25  26
HETATM   26  C8  UNL     1       0.141   1.502  12.876  1.00  0.00    -0.034 A 
HETATM   27  C9  UNL     1       1.015   0.659  12.235  1.00  0.00     0.009 A 
HETATM   28  C10 UNL     1       1.545   0.975  10.993  1.00  0.00     0.001 A 
HETATM   29  C11 UNL     1       1.180   2.166  10.395  1.00  0.00     0.000 A 
HETATM   30  C12 UNL     1       0.307   3.029  11.013  1.00  0.00     0.001 A 
HETATM   31  C13 UNL     1      -0.196   2.680  12.242  1.00  0.00     0.009 A 
ENDBRANCH  25  26
ENDBRANCH  24  25
ENDBRANCH  20  24
ENDBRANCH   1  17
TORSDOF 6
ENDMDL
MODEL 2
REMARK VINA RESULT: -8.926806021      1.234      1.918
REMARK  6 active torsions:
REMARK  status: ('A' for Active; 'I' for Inactive)
REMARK    1  A    between atoms: N3_4  and  N4_6 
REMARK    2  A    between atoms: N4_6  and  C2_7 
REMARK       I    between atoms: N4_6  and  C15_23 
REMARK    3  A    between atoms: C2_7  and  C3_8 
REMARK    4  A    between atoms: C6_11  and  O1_12 
REMARK    5  A    between atoms: O1_12  and  C7_13 
REMARK    6  A    between atoms: C7_13  and  C8_14 
REMARK       I    between atoms: C15_23  and  N6_24 
REMARK       I    between atoms: C15_23  and  N7_28 
ROOT
HETATM    1  C2  UNL     1       0.539   7.544  17.293  1.00  0.00     0.186 C 
ENDROOT
BRANCH   1   2
HETATM    2  N4  UNL     1      -0.532   8.367  16.828  1.00  0.00    -0.269 N 
HETATM    3  C15 UNL     1      -0.278   9.367  15.815  1.00  0.00     0.497 C 
HETATM    4  N6  UNL     1       1.098   9.382  15.390  1.00  0.00    -0.031 N 
HETATM    5  N7  UNL     1      -1.125   9.160  14.653  1.00  0.00    -0.031 N 
ATOM      6  H63 UNL     1       1.727   9.496  16.185  1.00  0.00     0.279 HD
ATOM      7  H62 UNL     1       1.396   8.458  15.078  1.00  0.00     0.279 HD
ATOM      8  H61 UNL     1       1.277  10.088  14.676  1.00  0.00     0.279 HD
ATOM      9  H73 UNL     1      -1.028   8.215  14.280  1.00  0.00     0.279 HD
ATOM     10  H72 UNL     1      -2.112   9.125  14.908  1.00  0.00     0.279 HD
ATOM     11  H71 UNL     1      -0.946   9.865  13.938  1.00  0.00     0.279 HD
BRANCH   2  12
HETATM   12  N3  UNL     1      -1.811   8.207  17.352  1.00  0.00    -0.275 N 
HETATM   13  C1  UNL     1      -2.258   8.903  18.342  1.00  0.00     0.215 C 
HETATM   14  N1  UNL     1      -3.580   8.658  18.799  1.00  0.00    -0.065 NA
HETATM   15  N2  UNL     1      -1.456   9.897  18.970  1.00  0.00    -0.065 NA
ATOM     16  H3  UNL     1      -2.423   7.507  16.934  1.00  0.00     0.189 HD
ENDBRANCH   2  12
ENDBRANCH   1   2
BRANCH   1  17
HETATM   17  C3  UNL     1       0.535   6.175  16.718  1.00  0.00    -0.023 A 
HETATM   18  C4  UNL     1      -0.278   5.180  17.263  1.00  0.00     0.014 A 
HETATM   19  C5  UNL     1      -0.273   3.908  16.725  1.00  0.00     0.057 A 
HETATM   20  C6  UNL     1       0.519   3.568  15.648  1.00  0.00     0.142 A 
HETATM   21  N5  UNL     1       1.296   4.537  15.136  1.00  0.00    -0.346 N 
HETATM   22  C14 UNL     1       1.313   5.806  15.646  1.00  0.00     0.099 A 
ATOM     23  H5  UNL     1       1.894   4.318  14.340  1.00  0.00     0.167 HD
BRANCH  20  24
HETATM   24  O1  UNL     1       0.477   2.273  15.154  1.00  0.00    -0.331 OA
BRANCH  24  25
HETATM   25  C7  UNL     1      -0.474   1.810  14.248  1.00  0.00     0.216 C 
BRANCH  25  26
HETATM   26  C8  UNL     1       0.085   1.928  12.874  1.00  0.00    -0.034 A 
HETATM   27  C9  UNL     1      -0.164   3.041  12.109  1.00  0.00     0.009 A 
HETATM   28  C10 UNL     1       0.351   3.167  10.826  1.00  0.00     0.001 A 
HETATM   29  C11 UNL     1       1.130   2.146  10.317  1.00  0.00     0.000 A 
HETATM   30  C12 UNL     1       1.396   1.021  11.060  1.00  0.00     0.001 A 
HETATM   31  C13 UNL     1       0.868   0.934  12.325  1.00  0.00     0.009 A 
ENDBRANCH  25  26
ENDBRANCH  24  25
ENDBRANCH  20  24
ENDBRANCH   1  17
TORSDOF 6
ENDMDL
MODEL 3
REMARK VINA RESULT: -8.870221515      1.421      2.344
REMARK  6 active torsions:
REMARK  status: ('A' for Active; 'I' for Inactive)
REMARK    1  A    between atoms: N3_4  and  N4_6 
REMARK    2  A    between atoms: N4_6  and  C2_7 
REMARK       I    between atoms: N4_6  and  C15_23 
REMARK    3  A    between atoms: C2_7  and  C3_8 
REMARK    4  A    between atoms: C6_11  and  O1_12 
REMARK    5  A    between atoms: O1_12  and  C7_13 
REMARK    6  A    between atoms: C7_13  and  C8_14 
REMARK       I    between atoms: C15_23  and  N6_24 
REMARK       I    between atoms: C15_23  and  N7_28 
ROOT
HETATM    1  C2  UNL     1      -1.064   6.378  18.054  1.00  0.00     0.186 C 
ENDROOT
BRANCH   1   2
HETATM    2  N4  UNL     1      -1.120   7.558  17.252  1.00  0.00    -0.269 N 
HETATM    3  C15 UNL     1      -0.282   8.688  17.584  1.00  0.00     0.497 C 
HETATM    4  N6  UNL     1       0.542   8.441  18.739  1.00  0.00    -0.031 N 
HETATM    5  N7  UNL     1       0.574   9.050  16.467  1.00  0.00    -0.031 N 
ATOM      6  H63 UNL     1      -0.022   8.154  19.539  1.00  0.00     0.279 HD
ATOM      7  H62 UNL     1       1.098   7.594  18.619  1.00  0.00     0.279 HD
ATOM      8  H61 UNL     1       1.133   9.239  18.973  1.00  0.00     0.279 HD
ATOM      9  H73 UNL     1       1.126   8.255  16.143  1.00  0.00     0.279 HD
ATOM     10  H72 UNL     1       0.034   9.219  15.618  1.00  0.00     0.279 HD
ATOM     11  H71 UNL     1       1.165   9.848  16.701  1.00  0.00     0.279 HD
BRANCH   2  12
HETATM   12  N3  UNL     1      -1.979   7.617  16.159  1.00  0.00    -0.275 N 
HETATM   13  C1  UNL     1      -3.165   8.120  16.223  1.00  0.00     0.215 C 
HETATM   14  N1  UNL     1      -3.960   8.130  15.047  1.00  0.00    -0.065 NA
HETATM   15  N2  UNL     1      -3.678   8.655  17.438  1.00  0.00    -0.065 NA
ATOM     16  H3  UNL     1      -1.655   7.246  15.266  1.00  0.00     0.189 HD
ENDBRANCH   2  12
ENDBRANCH   1   2
BRANCH   1  17
HETATM   17  C3  UNL     1      -0.700   5.154  17.297  1.00  0.00    -0.023 A 
HETATM   18  C4  UNL     1      -1.596   4.088  17.199  1.00  0.00     0.014 A 
HETATM   19  C5  UNL     1      -1.249   2.952  16.495  1.00  0.00     0.057 A 
HETATM   20  C6  UNL     1      -0.026   2.819  15.870  1.00  0.00     0.142 A 
HETATM   21  N5  UNL     1       0.825   3.854  15.974  1.00  0.00    -0.346 N 
HETATM   22  C14 UNL     1       0.510   4.992  16.663  1.00  0.00     0.099 A 
ATOM     23  H5  UNL     1       1.737   3.788  15.523  1.00  0.00     0.167 HD
BRANCH  20  24
HETATM   24  O1  UNL     1       0.262   1.652  15.178  1.00  0.00    -0.331 OA
BRANCH  24  25
HETATM   25  C7  UNL     1      -0.531   1.129  14.158  1.00  0.00     0.216 C 
BRANCH  25  26
HETATM   26  C8  UNL     1       0.054   1.531  12.850  1.00  0.00    -0.034 A 
HETATM   27  C9  UNL     1       0.874   0.675  12.157  1.00  0.00     0.009 A 
HETATM   28  C10 UNL     1       1.427   1.034  10.936  1.00  0.00     0.001 A 
HETATM   29  C11 UNL     1       1.142   2.282  10.415  1.00  0.00     0.000 A 
HETATM   30  C12 UNL     1       0.324   3.158  11.087  1.00  0.00     0.001 A 
HETATM   31  C13 UNL     1      -0.204   2.765  12.292  1.00  0.00     0.009 A 
ENDBRANCH  25  26
ENDBRANCH  24  25
ENDBRANCH  20  24
ENDBRANCH   1  17
TORSDOF 6
ENDMDL
MODEL 4
REMARK VINA RESULT: -8.828389098      3.100      8.175
REMARK  6 active torsions:
REMARK  status: ('A' for Active; 'I' for Inactive)
REMARK    1  A    between atoms: N3_4  and  N4_6 
REMARK    2  A    between atoms: N4_6  and  C2_7 
REMARK       I    between atoms: N4_6  and  C15_23 
REMARK    3  A    between atoms: C2_7  and  C3_8 
REMARK    4  A    between atoms: C6_11  and  O1_12 
REMARK    5  A    between atoms: O1_12  and  C7_13 
REMARK    6  A    between atoms: C7_13  and  C8_14 
REMARK       I    between atoms: C15_23  and  N6_24 
REMARK       I    between atoms: C15_23  and  N7_28 
ROOT
HETATM    1  C2  UNL     1       0.551   3.452  13.114  1.00  0.00     0.186 C 
ENDROOT
BRANCH   1   2
HETATM    2  N4  UNL     1       0.413   2.196  13.778  1.00  0.00    -0.269 N 
HETATM    3  C15 UNL     1      -0.904   1.636  13.984  1.00  0.00     0.497 C 
HETATM    4  N6  UNL     1      -1.947   2.474  13.450  1.00  0.00    -0.031 N 
HETATM    5  N7  UNL     1      -1.011   0.316  13.386  1.00  0.00    -0.031 N 
ATOM      6  H63 UNL     1      -1.887   3.420  13.825  1.00  0.00     0.279 HD
ATOM      7  H62 UNL     1      -1.784   2.678  12.464  1.00  0.00     0.279 HD
ATOM      8  H61 UNL     1      -2.876   2.079  13.596  1.00  0.00     0.279 HD
ATOM      9  H73 UNL     1      -0.759   0.330  12.397  1.00  0.00     0.279 HD
ATOM     10  H72 UNL     1      -0.279  -0.310  13.723  1.00  0.00     0.279 HD
ATOM     11  H71 UNL     1      -1.940  -0.079  13.532  1.00  0.00     0.279 HD
BRANCH   2  12
HETATM   12  N3  UNL     1       1.542   1.517  14.226  1.00  0.00    -0.275 N 
HETATM   13  C1  UNL     1       2.248   0.748  13.467  1.00  0.00     0.215 C 
HETATM   14  N1  UNL     1       3.382   0.103  14.027  1.00  0.00    -0.065 NA
HETATM   15  N2  UNL     1       1.908   0.543  12.101  1.00  0.00    -0.065 NA
ATOM     16  H3  UNL     1       1.826   1.634  15.198  1.00  0.00     0.189 HD
ENDBRANCH   2  12
ENDBRANCH   1   2
BRANCH   1  17
HETATM   17  C3  UNL     1       0.535   4.620  14.031  1.00  0.00    -0.023 A 
HETATM   18  C4  UNL     1      -0.322   5.696  13.795  1.00  0.00     0.014 A 
HETATM   19  C5  UNL     1      -0.328   6.780  14.651  1.00  0.00     0.057 A 
HETATM   20  C6  UNL     1       0.496   6.849  15.755  1.00  0.00     0.142 A 
HETATM   21  N5  UNL     1       1.315   5.805  15.968  1.00  0.00    -0.346 N 
HETATM   22  C14 UNL     1       1.344   4.718  15.139  1.00  0.00     0.099 A 
ATOM     23  H5  UNL     1       1.938   5.826  16.775  1.00  0.00     0.167 HD
BRANCH  20  24
HETATM   24  O1  UNL     1       0.442   7.965  16.576  1.00  0.00    -0.331 OA
BRANCH  24  25
HETATM   25  C7  UNL     1       0.683   7.941  17.948  1.00  0.00     0.216 C 
BRANCH  25  26
HETATM   26  C8  UNL     1      -0.604   8.182  18.658  1.00  0.00    -0.034 A 
HETATM   27  C9  UNL     1      -1.104   9.454  18.789  1.00  0.00     0.009 A 
HETATM   28  C10 UNL     1      -2.302   9.696  19.446  1.00  0.00     0.001 A 
HETATM   29  C11 UNL     1      -2.999   8.627  19.978  1.00  0.00     0.000 A 
HETATM   30  C12 UNL     1      -2.521   7.344  19.861  1.00  0.00     0.001 A 
HETATM   31  C13 UNL     1      -1.333   7.147  19.203  1.00  0.00     0.009 A 
ENDBRANCH  25  26
ENDBRANCH  24  25
ENDBRANCH  20  24
ENDBRANCH   1  17
TORSDOF 6
ENDMDL
MODEL 5
REMARK VINA RESULT: -8.825065449      2.929      7.824
REMARK  6 active torsions:
REMARK  status: ('A' for Active; 'I' for Inactive)
REMARK    1  A    between atoms: N3_4  and  N4_6 
REMARK    2  A    between atoms: N4_6  and  C2_7 
REMARK       I    between atoms: N4_6  and  C15_23 
REMARK    3  A    between atoms: C2_7  and  C3_8 
REMARK    4  A    between atoms: C6_11  and  O1_12 
REMARK    5  A    between atoms: O1_12  and  C7_13 
REMARK    6  A    between atoms: C7_13  and  C8_14 
REMARK       I    between atoms: C15_23  and  N6_24 
REMARK       I    between atoms: C15_23  and  N7_28 
ROOT
HETATM    1  C2  UNL     1       0.444   3.854  13.203  1.00  0.00     0.186 C 
ENDROOT
BRANCH   1   2
HETATM    2  N4  UNL     1       0.810   2.607  13.794  1.00  0.00    -0.269 N 
HETATM    3  C15 UNL     1       1.690   1.708  13.080  1.00  0.00     0.497 C 
HETATM    4  N6  UNL     1       2.099   2.237  11.805  1.00  0.00    -0.031 N 
HETATM    5  N7  UNL     1       2.875   1.405  13.864  1.00  0.00    -0.031 N 
ATOM      6  H63 UNL     1       1.292   2.491  11.235  1.00  0.00     0.279 HD
ATOM      7  H62 UNL     1       2.522   3.160  11.909  1.00  0.00     0.279 HD
ATOM      8  H61 UNL     1       2.719   1.603  11.302  1.00  0.00     0.279 HD
ATOM      9  H73 UNL     1       3.361   2.253  14.155  1.00  0.00     0.279 HD
ATOM     10  H72 UNL     1       2.633   1.041  14.786  1.00  0.00     0.279 HD
ATOM     11  H71 UNL     1       3.495   0.770  13.361  1.00  0.00     0.279 HD
BRANCH   2  12
HETATM   12  N3  UNL     1       0.320   2.260  15.049  1.00  0.00    -0.275 N 
HETATM   13  C1  UNL     1      -0.847   1.737  15.229  1.00  0.00     0.215 C 
HETATM   14  N1  UNL     1      -1.249   1.422  16.553  1.00  0.00    -0.065 NA
HETATM   15  N2  UNL     1      -1.718   1.478  14.134  1.00  0.00    -0.065 NA
ATOM     16  H3  UNL     1       0.909   2.427  15.864  1.00  0.00     0.189 HD
ENDBRANCH   2  12
ENDBRANCH   1   2
BRANCH   1  17
HETATM   17  C3  UNL     1       0.471   4.998  14.150  1.00  0.00    -0.023 A 
HETATM   18  C4  UNL     1      -0.497   6.000  14.079  1.00  0.00     0.014 A 
HETATM   19  C5  UNL     1      -0.463   7.062  14.961  1.00  0.00     0.057 A 
HETATM   20  C6  UNL     1       0.510   7.180  15.932  1.00  0.00     0.142 A 
HETATM   21  N5  UNL     1       1.435   6.207  15.987  1.00  0.00    -0.346 N 
HETATM   22  C14 UNL     1       1.427   5.143  15.128  1.00  0.00     0.099 A 
ATOM     23  H5  UNL     1       2.168   6.264  16.693  1.00  0.00     0.167 HD
BRANCH  20  24
HETATM   24  O1  UNL     1       0.488   8.270  16.788  1.00  0.00    -0.331 OA
BRANCH  24  25
HETATM   25  C7  UNL     1       0.637   8.185  18.171  1.00  0.00     0.216 C 
BRANCH  25  26
HETATM   26  C8  UNL     1      -0.707   8.311  18.800  1.00  0.00    -0.034 A 
HETATM   27  C9  UNL     1      -1.283   9.545  18.979  1.00  0.00     0.009 A 
HETATM   28  C10 UNL     1      -2.535   9.680  19.561  1.00  0.00     0.001 A 
HETATM   29  C11 UNL     1      -3.208   8.544  19.968  1.00  0.00     0.000 A 
HETATM   30  C12 UNL     1      -2.655   7.297  19.801  1.00  0.00     0.001 A 
HETATM   31  C13 UNL     1      -1.415   7.205  19.220  1.00  0.00     0.009 A 
ENDBRANCH  25  26
ENDBRANCH  24  25
ENDBRANCH  20  24
ENDBRANCH   1  17
TORSDOF 6
ENDMDL
