MODEL 1
REMARK VINA RESULT: -8.693490295      0.000      0.000
REMARK  8 active torsions:
REMARK  status: ('A' for Active; 'I' for Inactive)
REMARK    1  A    between atoms: C2_2  and  N1_3 
REMARK    2  A    between atoms: C2_2  and  C13_25 
REMARK       I    between atoms: N1_3  and  C3_5 
REMARK    3  A    between atoms: C3_5  and  C4_7 
REMARK    4  A    between atoms: C4_7  and  C6_10 
REMARK    5  A    between atoms: C6_10  and  N4_14 
REMARK    6  A    between atoms: N4_14  and  O2_16 
REMARK    7  A    between atoms: O2_16  and  C7_17 
REMARK    8  A    between atoms: C7_17  and  C8_18 
ROOT
HETATM    1  C4  UNL     1       3.640   3.421   6.073  1.00  0.00     0.253 C 
HETATM    2  C5  UNL     1       2.884   3.101   4.867  1.00  0.00     0.081 C 
HETATM    3  N2  UNL     1       2.274   2.848   3.915  1.00  0.00    -0.196 NA
ENDROOT
BRANCH   1   4
HETATM    4  C3  UNL     1       5.102   3.250   5.843  1.00  0.00     0.243 C 
HETATM    5  N1  UNL     1       5.984   4.358   5.726  1.00  0.00    -0.348 N 
ATOM      6  H1  UNL     1       5.633   5.313   5.797  1.00  0.00     0.163 HD
HETATM    7  O1  UNL     1       5.542   2.078   5.753  1.00  0.00    -0.272 OA
BRANCH   5   8
HETATM    8  C2  UNL     1       7.375   4.104   5.505  1.00  0.00     0.148 C 
HETATM    9  C1  UNL     1       8.139   5.332   6.016  1.00  0.00     0.040 C 
BRANCH   8  10
HETATM   10  C13 UNL     1       7.681   3.920   4.044  1.00  0.00     0.103 A 
HETATM   11  N6  UNL     1       6.859   3.478   3.074  1.00  0.00    -0.353 N 
HETATM   12  C14 UNL     1       7.483   3.447   1.897  1.00  0.00     0.106 A 
ATOM     13  H6  UNL     1       5.888   3.204   3.221  1.00  0.00     0.166 HD
HETATM   14  C15 UNL     1       8.767   3.890   2.121  1.00  0.00     0.106 A 
HETATM   15  N7  UNL     1       8.855   4.168   3.435  1.00  0.00    -0.353 N 
ATOM     16  H7  UNL     1       9.691   4.517   3.903  1.00  0.00     0.166 HD
ENDBRANCH   8  10
ENDBRANCH   5   8
ENDBRANCH   1   4
BRANCH   1  17
HETATM   17  C6  UNL     1       3.141   2.558   7.155  1.00  0.00     0.122 C 
HETATM   18  N3  UNL     1       2.656   1.408   6.869  1.00  0.00    -0.386 N 
ATOM     19  H32 UNL     1       2.638   1.141   5.884  1.00  0.00     0.157 HD
ATOM     20  H31 UNL     1       2.310   0.809   7.618  1.00  0.00     0.157 HD
BRANCH  17  21
HETATM   21  N4  UNL     1       3.167   2.930   8.527  1.00  0.00    -0.253 N 
ATOM     22  H4  UNL     1       3.122   2.187   9.224  1.00  0.00     0.195 HD
BRANCH  21  23
HETATM   23  O2  UNL     1       3.244   4.185   8.960  1.00  0.00    -0.273 OA
BRANCH  23  24
HETATM   24  C7  UNL     1       3.130   4.337  10.322  1.00  0.00     0.258 C 
BRANCH  24  25
HETATM   25  C8  UNL     1       2.110   5.353  10.713  1.00  0.00     0.035 A 
HETATM   26  C9  UNL     1       1.662   6.319   9.863  1.00  0.00     0.027 A 
HETATM   27  C10 UNL     1       0.717   7.271  10.206  1.00  0.00     0.003 A 
HETATM   28  C11 UNL     1       0.201   7.236  11.484  1.00  0.00     0.017 A 
HETATM   29  C12 UNL     1       0.670   6.250  12.327  1.00  0.00     0.088 A 
HETATM   30  N5  UNL     1       1.589   5.339  11.964  1.00  0.00    -0.367 N 
ATOM     31  H5  UNL     1       1.895   4.633  12.633  1.00  0.00     0.165 HD
ENDBRANCH  24  25
ENDBRANCH  23  24
ENDBRANCH  21  23
ENDBRANCH  17  21
ENDBRANCH   1  17
TORSDOF 8
ENDMDL
MODEL 2
REMARK VINA RESULT: -8.343425643      2.079      2.966
REMARK  8 active torsions:
REMARK  status: ('A' for Active; 'I' for Inactive)
REMARK    1  A    between atoms: C2_2  and  N1_3 
REMARK    2  A    between atoms: C2_2  and  C13_25 
REMARK       I    between atoms: N1_3  and  C3_5 
REMARK    3  A    between atoms: C3_5  and  C4_7 
REMARK    4  A    between atoms: C4_7  and  C6_10 
REMARK    5  A    between atoms: C6_10  and  N4_14 
REMARK    6  A    between atoms: N4_14  and  O2_16 
REMARK    7  A    between atoms: O2_16  and  C7_17 
REMARK    8  A    between atoms: C7_17  and  C8_18 
ROOT
HETATM    1  C4  UNL     1       5.056   3.191   6.113  1.00  0.00     0.253 C 
HETATM    2  C5  UNL     1       5.580   2.096   5.304  1.00  0.00     0.081 C 
HETATM    3  N2  UNL     1       5.987   1.224   4.658  1.00  0.00    -0.196 NA
ENDROOT
BRANCH   1   4
HETATM    4  C3  UNL     1       6.118   3.760   6.988  1.00  0.00     0.243 C 
HETATM    5  N1  UNL     1       6.023   5.065   7.543  1.00  0.00    -0.348 N 
ATOM      6  H1  UNL     1       5.212   5.654   7.353  1.00  0.00     0.163 HD
HETATM    7  O1  UNL     1       7.120   3.042   7.226  1.00  0.00    -0.272 OA
BRANCH   5   8
HETATM    8  C2  UNL     1       7.090   5.534   8.374  1.00  0.00     0.148 C 
HETATM    9  C1  UNL     1       6.467   6.478   9.409  1.00  0.00     0.040 C 
BRANCH   8  10
HETATM   10  C13 UNL     1       8.116   6.296   7.582  1.00  0.00     0.103 A 
HETATM   11  N6  UNL     1       8.760   5.905   6.466  1.00  0.00    -0.353 N 
HETATM   12  C14 UNL     1       9.601   6.849   6.046  1.00  0.00     0.106 A 
ATOM     13  H6  UNL     1       8.622   5.007   6.004  1.00  0.00     0.166 HD
HETATM   14  C15 UNL     1       9.492   7.897   6.933  1.00  0.00     0.106 A 
HETATM   15  N7  UNL     1       8.583   7.528   7.855  1.00  0.00    -0.353 N 
ATOM     16  H7  UNL     1       8.289   8.100   8.646  1.00  0.00     0.166 HD
ENDBRANCH   8  10
ENDBRANCH   5   8
ENDBRANCH   1   4
BRANCH   1  17
HETATM   17  C6  UNL     1       3.916   2.670   6.885  1.00  0.00     0.122 C 
HETATM   18  N3  UNL     1       3.098   1.858   6.328  1.00  0.00    -0.386 N 
ATOM     19  H32 UNL     1       3.277   1.608   5.355  1.00  0.00     0.157 HD
ATOM     20  H31 UNL     1       2.308   1.497   6.863  1.00  0.00     0.157 HD
BRANCH  17  21
HETATM   21  N4  UNL     1       3.666   3.019   8.241  1.00  0.00    -0.253 N 
ATOM     22  H4  UNL     1       3.920   2.345   8.962  1.00  0.00     0.195 HD
BRANCH  21  23
HETATM   23  O2  UNL     1       3.120   4.169   8.628  1.00  0.00    -0.273 OA
BRANCH  23  24
HETATM   24  C7  UNL     1       3.321   4.490   9.950  1.00  0.00     0.258 C 
BRANCH  24  25
HETATM   25  C8  UNL     1       2.280   5.410  10.493  1.00  0.00     0.035 A 
HETATM   26  C9  UNL     1       1.662   6.359   9.735  1.00  0.00     0.027 A 
HETATM   27  C10 UNL     1       0.694   7.223  10.219  1.00  0.00     0.003 A 
HETATM   28  C11 UNL     1       0.337   7.113  11.546  1.00  0.00     0.017 A 
HETATM   29  C12 UNL     1       0.977   6.146  12.293  1.00  0.00     0.088 A 
HETATM   30  N5  UNL     1       1.913   5.321  11.794  1.00  0.00    -0.367 N 
ATOM     31  H5  UNL     1       2.350   4.625  12.398  1.00  0.00     0.165 HD
ENDBRANCH  24  25
ENDBRANCH  23  24
ENDBRANCH  21  23
ENDBRANCH  17  21
ENDBRANCH   1  17
TORSDOF 8
ENDMDL
MODEL 3
REMARK VINA RESULT: -8.311996106      3.712      7.362
REMARK  8 active torsions:
REMARK  status: ('A' for Active; 'I' for Inactive)
REMARK    1  A    between atoms: C2_2  and  N1_3 
REMARK    2  A    between atoms: C2_2  and  C13_25 
REMARK       I    between atoms: N1_3  and  C3_5 
REMARK    3  A    between atoms: C3_5  and  C4_7 
REMARK    4  A    between atoms: C4_7  and  C6_10 
REMARK    5  A    between atoms: C6_10  and  N4_14 
REMARK    6  A    between atoms: N4_14  and  O2_16 
REMARK    7  A    between atoms: O2_16  and  C7_17 
REMARK    8  A    between atoms: C7_17  and  C8_18 
ROOT
HETATM    1  C4  UNL     1       2.828   6.157  11.878  1.00  0.00     0.253 C 
HETATM    2  C5  UNL     1       1.424   6.349  12.227  1.00  0.00     0.081 C 
HETATM    3  N2  UNL     1       0.310   6.494  12.511  1.00  0.00    -0.196 NA
ENDROOT
BRANCH   1   4
HETATM    4  C3  UNL     1       3.236   7.090  10.791  1.00  0.00     0.243 C 
HETATM    5  N1  UNL     1       4.455   7.819  10.838  1.00  0.00    -0.348 N 
ATOM      6  H1  UNL     1       5.091   7.720  11.630  1.00  0.00     0.163 HD
HETATM    7  O1  UNL     1       2.459   7.218   9.814  1.00  0.00    -0.272 OA
BRANCH   5   8
HETATM    8  C2  UNL     1       4.770   8.695   9.751  1.00  0.00     0.148 C 
HETATM    9  C1  UNL     1       5.653   7.900   8.780  1.00  0.00     0.040 C 
BRANCH   8  10
HETATM   10  C13 UNL     1       5.533   9.904  10.216  1.00  0.00     0.103 A 
HETATM   11  N6  UNL     1       6.692  10.390   9.733  1.00  0.00    -0.353 N 
HETATM   12  C14 UNL     1       7.066  11.482  10.399  1.00  0.00     0.106 A 
ATOM     13  H6  UNL     1       7.214   9.977   8.960  1.00  0.00     0.166 HD
HETATM   14  C15 UNL     1       6.101  11.709  11.355  1.00  0.00     0.106 A 
HETATM   15  N7  UNL     1       5.185  10.733  11.217  1.00  0.00    -0.353 N 
ATOM     16  H7  UNL     1       4.347  10.635  11.790  1.00  0.00     0.166 HD
ENDBRANCH   8  10
ENDBRANCH   5   8
ENDBRANCH   1   4
BRANCH   1  17
HETATM   17  C6  UNL     1       3.004   4.746  11.498  1.00  0.00     0.122 C 
HETATM   18  N3  UNL     1       2.579   3.826  12.280  1.00  0.00    -0.386 N 
ATOM     19  H32 UNL     1       2.130   4.122  13.148  1.00  0.00     0.157 HD
ATOM     20  H31 UNL     1       2.701   2.849  12.017  1.00  0.00     0.157 HD
BRANCH  17  21
HETATM   21  N4  UNL     1       3.629   4.335  10.289  1.00  0.00    -0.253 N 
ATOM     22  H4  UNL     1       4.648   4.299  10.267  1.00  0.00     0.195 HD
BRANCH  21  23
HETATM   23  O2  UNL     1       2.971   3.994   9.185  1.00  0.00    -0.273 OA
BRANCH  23  24
HETATM   24  C7  UNL     1       3.739   3.401   8.210  1.00  0.00     0.258 C 
BRANCH  24  25
HETATM   25  C8  UNL     1       3.389   3.855   6.834  1.00  0.00     0.035 A 
HETATM   26  C9  UNL     1       3.187   5.164   6.513  1.00  0.00     0.027 A 
HETATM   27  C10 UNL     1       2.860   5.606   5.242  1.00  0.00     0.003 A 
HETATM   28  C11 UNL     1       2.734   4.663   4.245  1.00  0.00     0.017 A 
HETATM   29  C12 UNL     1       2.943   3.344   4.592  1.00  0.00     0.088 A 
HETATM   30  N5  UNL     1       3.259   2.946   5.836  1.00  0.00    -0.367 N 
ATOM     31  H5  UNL     1       3.402   1.956   6.031  1.00  0.00     0.165 HD
ENDBRANCH  24  25
ENDBRANCH  23  24
ENDBRANCH  21  23
ENDBRANCH  17  21
ENDBRANCH   1  17
TORSDOF 8
ENDMDL
MODEL 4
REMARK VINA RESULT: -8.281447618      1.914      3.247
REMARK  8 active torsions:
REMARK  status: ('A' for Active; 'I' for Inactive)
REMARK    1  A    between atoms: C2_2  and  N1_3 
REMARK    2  A    between atoms: C2_2  and  C13_25 
REMARK       I    between atoms: N1_3  and  C3_5 
REMARK    3  A    between atoms: C3_5  and  C4_7 
REMARK    4  A    between atoms: C4_7  and  C6_10 
REMARK    5  A    between atoms: C6_10  and  N4_14 
REMARK    6  A    between atoms: N4_14  and  O2_16 
REMARK    7  A    between atoms: O2_16  and  C7_17 
REMARK    8  A    between atoms: C7_17  and  C8_18 
ROOT
HETATM    1  C4  UNL     1       4.335   2.973   5.506  1.00  0.00     0.253 C 
HETATM    2  C5  UNL     1       5.276   1.907   5.182  1.00  0.00     0.081 C 
HETATM    3  N2  UNL     1       6.016   1.053   4.925  1.00  0.00    -0.196 NA
ENDROOT
BRANCH   1   4
HETATM    4  C3  UNL     1       5.045   4.268   5.695  1.00  0.00     0.243 C 
HETATM    5  N1  UNL     1       6.459   4.342   5.828  1.00  0.00    -0.348 N 
ATOM      6  H1  UNL     1       7.030   3.498   5.798  1.00  0.00     0.163 HD
HETATM    7  O1  UNL     1       4.350   5.312   5.734  1.00  0.00    -0.272 OA
BRANCH   5   8
HETATM    8  C2  UNL     1       7.061   5.629   6.006  1.00  0.00     0.148 C 
HETATM    9  C1  UNL     1       8.477   5.542   5.424  1.00  0.00     0.040 C 
BRANCH   8  10
HETATM   10  C13 UNL     1       7.160   5.999   7.460  1.00  0.00     0.103 A 
HETATM   11  N6  UNL     1       6.198   5.934   8.400  1.00  0.00    -0.353 N 
HETATM   12  C14 UNL     1       6.657   6.347   9.581  1.00  0.00     0.106 A 
ATOM     13  H6  UNL     1       5.246   5.613   8.230  1.00  0.00     0.166 HD
HETATM   14  C15 UNL     1       7.976   6.693   9.392  1.00  0.00     0.106 A 
HETATM   15  N7  UNL     1       8.250   6.470   8.093  1.00  0.00    -0.353 N 
ATOM     16  H7  UNL     1       9.155   6.635   7.651  1.00  0.00     0.166 HD
ENDBRANCH   8  10
ENDBRANCH   5   8
ENDBRANCH   1   4
BRANCH   1  17
HETATM   17  C6  UNL     1       3.593   2.563   6.710  1.00  0.00     0.122 C 
HETATM   18  N3  UNL     1       2.717   1.634   6.622  1.00  0.00    -0.386 N 
ATOM     19  H32 UNL     1       2.570   1.215   5.704  1.00  0.00     0.157 HD
ATOM     20  H31 UNL     1       2.203   1.350   7.456  1.00  0.00     0.157 HD
BRANCH  17  21
HETATM   21  N4  UNL     1       3.797   3.147   7.990  1.00  0.00    -0.253 N 
ATOM     22  H4  UNL     1       4.572   2.801   8.555  1.00  0.00     0.195 HD
BRANCH  21  23
HETATM   23  O2  UNL     1       3.042   4.116   8.498  1.00  0.00    -0.273 OA
BRANCH  23  24
HETATM   24  C7  UNL     1       3.253   4.378   9.832  1.00  0.00     0.258 C 
BRANCH  24  25
HETATM   25  C8  UNL     1       2.261   5.333  10.405  1.00  0.00     0.035 A 
HETATM   26  C9  UNL     1       1.671   6.318   9.670  1.00  0.00     0.027 A 
HETATM   27  C10 UNL     1       0.749   7.215  10.183  1.00  0.00     0.003 A 
HETATM   28  C11 UNL     1       0.411   7.102  11.514  1.00  0.00     0.017 A 
HETATM   29  C12 UNL     1       1.021   6.099  12.237  1.00  0.00     0.088 A 
HETATM   30  N5  UNL     1       1.913   5.242  11.711  1.00  0.00    -0.367 N 
ATOM     31  H5  UNL     1       2.330   4.520  12.298  1.00  0.00     0.165 HD
ENDBRANCH  24  25
ENDBRANCH  23  24
ENDBRANCH  21  23
ENDBRANCH  17  21
ENDBRANCH   1  17
TORSDOF 8
ENDMDL
MODEL 5
REMARK VINA RESULT: -8.256359543      2.539      7.971
REMARK  8 active torsions:
REMARK  status: ('A' for Active; 'I' for Inactive)
REMARK    1  A    between atoms: C2_2  and  N1_3 
REMARK    2  A    between atoms: C2_2  and  C13_25 
REMARK       I    between atoms: N1_3  and  C3_5 
REMARK    3  A    between atoms: C3_5  and  C4_7 
REMARK    4  A    between atoms: C4_7  and  C6_10 
REMARK    5  A    between atoms: C6_10  and  N4_14 
REMARK    6  A    between atoms: N4_14  and  O2_16 
REMARK    7  A    between atoms: O2_16  and  C7_17 
REMARK    8  A    between atoms: C7_17  and  C8_18 
ROOT
HETATM    1  C4  UNL     1       4.503   6.210   8.625  1.00  0.00     0.253 C 
HETATM    2  C5  UNL     1       4.904   7.538   9.076  1.00  0.00     0.081 C 
HETATM    3  N2  UNL     1       5.231   8.592   9.428  1.00  0.00    -0.196 NA
ENDROOT
BRANCH   1   4
HETATM    4  C3  UNL     1       3.322   5.724   9.391  1.00  0.00     0.243 C 
HETATM    5  N1  UNL     1       2.593   6.568  10.272  1.00  0.00    -0.348 N 
ATOM      6  H1  UNL     1       2.864   7.542  10.404  1.00  0.00     0.163 HD
HETATM    7  O1  UNL     1       2.981   4.526   9.234  1.00  0.00    -0.272 OA
BRANCH   5   8
HETATM    8  C2  UNL     1       1.469   6.021  10.969  1.00  0.00     0.148 C 
HETATM    9  C1  UNL     1       0.484   7.172  11.201  1.00  0.00     0.040 C 
BRANCH   8  10
HETATM   10  C13 UNL     1       1.868   5.451  12.303  1.00  0.00     0.103 A 
HETATM   11  N6  UNL     1       2.825   4.541  12.563  1.00  0.00    -0.353 N 
HETATM   12  C14 UNL     1       2.891   4.278  13.868  1.00  0.00     0.106 A 
ATOM     13  H6  UNL     1       3.420   4.110  11.856  1.00  0.00     0.166 HD
HETATM   14  C15 UNL     1       1.931   5.056  14.475  1.00  0.00     0.106 A 
HETATM   15  N7  UNL     1       1.327   5.757  13.497  1.00  0.00    -0.353 N 
ATOM     16  H7  UNL     1       0.568   6.423  13.639  1.00  0.00     0.166 HD
ENDBRANCH   8  10
ENDBRANCH   5   8
ENDBRANCH   1   4
BRANCH   1  17
HETATM   17  C6  UNL     1       5.666   5.319   8.769  1.00  0.00     0.122 C 
HETATM   18  N3  UNL     1       6.778   5.799   9.185  1.00  0.00    -0.386 N 
ATOM     19  H32 UNL     1       6.805   6.797   9.400  1.00  0.00     0.157 HD
ATOM     20  H31 UNL     1       7.584   5.183   9.285  1.00  0.00     0.157 HD
BRANCH  17  21
HETATM   21  N4  UNL     1       5.629   3.930   8.470  1.00  0.00    -0.253 N 
ATOM     22  H4  UNL     1       5.374   3.287   9.219  1.00  0.00     0.195 HD
BRANCH  21  23
HETATM   23  O2  UNL     1       5.904   3.415   7.275  1.00  0.00    -0.273 OA
BRANCH  23  24
HETATM   24  C7  UNL     1       4.805   3.057   6.530  1.00  0.00     0.258 C 
BRANCH  24  25
HETATM   25  C8  UNL     1       4.371   4.122   5.580  1.00  0.00     0.035 A 
HETATM   26  C9  UNL     1       3.102   4.618   5.552  1.00  0.00     0.027 A 
HETATM   27  C10 UNL     1       2.679   5.606   4.679  1.00  0.00     0.003 A 
HETATM   28  C11 UNL     1       3.598   6.115   3.787  1.00  0.00     0.017 A 
HETATM   29  C12 UNL     1       4.876   5.597   3.833  1.00  0.00     0.088 A 
HETATM   30  N5  UNL     1       5.257   4.637   4.694  1.00  0.00    -0.367 N 
ATOM     31  H5  UNL     1       6.217   4.296   4.680  1.00  0.00     0.165 HD
ENDBRANCH  24  25
ENDBRANCH  23  24
ENDBRANCH  21  23
ENDBRANCH  17  21
ENDBRANCH   1  17
TORSDOF 8
ENDMDL
