MODEL 1
REMARK VINA RESULT: -9.064237876      0.000      0.000
REMARK  7 active torsions:
REMARK  status: ('A' for Active; 'I' for Inactive)
REMARK    1  A    between atoms: C1_4  and  C2_5 
REMARK    2  A    between atoms: C2_5  and  N2_6 
REMARK       I    between atoms: N2_6  and  C3_8 
REMARK    3  A    between atoms: C3_8  and  C4_10 
REMARK    4  A    between atoms: C6_12  and  C7_13 
REMARK    5  A    between atoms: C7_13  and  C8_14 
REMARK    6  A    between atoms: C12_20  and  C13_21 
REMARK    7  A    between atoms: C15_25  and  N5_26 
ROOT
HETATM    1  C4  UNL     1       5.484   4.195   8.110  1.00  0.00     0.034 A 
HETATM    2  C5  UNL     1       4.250   4.002   8.695  1.00  0.00     0.024 A 
HETATM    3  C6  UNL     1       3.770   4.787   9.752  1.00  0.00    -0.049 A 
HETATM    4  C14 UNL     1       4.585   5.778  10.200  1.00  0.00     0.043 A 
HETATM    5  C15 UNL     1       5.847   6.022   9.648  1.00  0.00     0.104 A 
HETATM    6  C16 UNL     1       6.258   5.221   8.617  1.00  0.00     0.053 A 
ENDROOT
BRANCH   3   7
HETATM    7  C7  UNL     1       2.394   4.489  10.293  1.00  0.00     0.096 C 
BRANCH   7   8
HETATM    8  C8  UNL     1       2.265   4.851  11.698  1.00  0.00     0.028 A 
HETATM    9  N3  UNL     1       2.885   4.030  12.612  1.00  0.00    -0.368 N 
HETATM   10  C9  UNL     1       2.931   4.310  13.921  1.00  0.00     0.088 A 
ATOM     11  H3  UNL     1       3.328   3.174  12.279  1.00  0.00     0.165 HD
HETATM   12  C10 UNL     1       2.350   5.453  14.429  1.00  0.00     0.018 A 
HETATM   13  C11 UNL     1       1.724   6.290  13.548  1.00  0.00     0.020 A 
HETATM   14  C12 UNL     1       1.684   5.977  12.174  1.00  0.00     0.052 A 
BRANCH  14  15
HETATM   15  C13 UNL     1       0.887   6.864  11.375  1.00  0.00     0.266 C 
HETATM   16  N4  UNL     1       1.310   7.704  10.328  1.00  0.00    -0.057 NA
HETATM   17  O2  UNL     1      -0.376   6.915  11.617  1.00  0.00    -0.271 OA
ENDBRANCH  14  15
ENDBRANCH   7   8
ENDBRANCH   3   7
BRANCH   1  18
HETATM   18  C3  UNL     1       5.946   3.352   7.009  1.00  0.00     0.252 C 
HETATM   19  N2  UNL     1       5.150   2.912   5.949  1.00  0.00    -0.352 N 
ATOM     20  H2  UNL     1       4.167   3.185   5.913  1.00  0.00     0.163 HD
HETATM   21  O1  UNL     1       7.169   2.998   7.030  1.00  0.00    -0.268 OA
BRANCH  19  22
HETATM   22  C2  UNL     1       5.696   2.076   4.898  1.00  0.00     0.166 C 
BRANCH  22  23
HETATM   23  C1  UNL     1       5.149   2.464   3.587  1.00  0.00     0.072 C 
HETATM   24  N1  UNL     1       3.900   2.657   3.461  1.00  0.00    -0.410 N 
ATOM     25  H12 UNL     1       3.294   2.539   4.272  1.00  0.00     0.155 HD
ATOM     26  H11 UNL     1       3.521   2.926   2.553  1.00  0.00     0.155 HD
ENDBRANCH  22  23
ENDBRANCH  19  22
ENDBRANCH   1  18
BRANCH   5  27
HETATM   27  N5  UNL     1       6.667   7.068  10.145  1.00  0.00    -0.116 N 
HETATM   28  O3  UNL     1       7.887   7.072   9.835  1.00  0.00    -0.532 OA
HETATM   29  O4  UNL     1       6.171   8.047  10.935  1.00  0.00    -0.532 OA
ENDBRANCH   5  27
TORSDOF 7
ENDMDL
MODEL 2
REMARK VINA RESULT: -9.033400069      1.887      2.915
REMARK  7 active torsions:
REMARK  status: ('A' for Active; 'I' for Inactive)
REMARK    1  A    between atoms: C1_4  and  C2_5 
REMARK    2  A    between atoms: C2_5  and  N2_6 
REMARK       I    between atoms: N2_6  and  C3_8 
REMARK    3  A    between atoms: C3_8  and  C4_10 
REMARK    4  A    between atoms: C6_12  and  C7_13 
REMARK    5  A    between atoms: C7_13  and  C8_14 
REMARK    6  A    between atoms: C12_20  and  C13_21 
REMARK    7  A    between atoms: C15_25  and  N5_26 
ROOT
HETATM    1  C4  UNL     1       4.769   4.609   8.636  1.00  0.00     0.034 A 
HETATM    2  C5  UNL     1       4.358   4.971   9.901  1.00  0.00     0.024 A 
HETATM    3  C6  UNL     1       5.102   5.814  10.739  1.00  0.00    -0.049 A 
HETATM    4  C14 UNL     1       6.281   6.280  10.250  1.00  0.00     0.043 A 
HETATM    5  C15 UNL     1       6.751   5.949   8.975  1.00  0.00     0.104 A 
HETATM    6  C16 UNL     1       5.978   5.122   8.206  1.00  0.00     0.053 A 
ENDROOT
BRANCH   3   7
HETATM    7  C7  UNL     1       4.534   6.152  12.095  1.00  0.00     0.096 C 
BRANCH   7   8
HETATM    8  C8  UNL     1       3.104   6.422  12.040  1.00  0.00     0.028 A 
HETATM    9  N3  UNL     1       2.657   7.203  10.997  1.00  0.00    -0.368 N 
HETATM   10  C9  UNL     1       1.358   7.437  10.775  1.00  0.00     0.088 A 
ATOM     11  H3  UNL     1       3.344   7.620  10.369  1.00  0.00     0.165 HD
HETATM   12  C10 UNL     1       0.383   6.900  11.590  1.00  0.00     0.018 A 
HETATM   13  C11 UNL     1       0.793   6.122  12.637  1.00  0.00     0.020 A 
HETATM   14  C12 UNL     1       2.166   5.888  12.857  1.00  0.00     0.052 A 
BRANCH  14  15
HETATM   15  C13 UNL     1       2.472   5.166  14.060  1.00  0.00     0.266 C 
HETATM   16  N4  UNL     1       3.015   3.874  14.180  1.00  0.00    -0.057 NA
HETATM   17  O2  UNL     1       2.239   5.749  15.182  1.00  0.00    -0.271 OA
ENDBRANCH  14  15
ENDBRANCH   7   8
ENDBRANCH   3   7
BRANCH   1  18
HETATM   18  C3  UNL     1       3.963   3.727   7.796  1.00  0.00     0.252 C 
HETATM   19  N2  UNL     1       3.896   3.790   6.402  1.00  0.00    -0.352 N 
ATOM     20  H2  UNL     1       4.440   4.496   5.905  1.00  0.00     0.163 HD
HETATM   21  O1  UNL     1       3.273   2.837   8.391  1.00  0.00    -0.268 OA
BRANCH  19  22
HETATM   22  C2  UNL     1       3.066   2.870   5.649  1.00  0.00     0.166 C 
BRANCH  22  23
HETATM   23  C1  UNL     1       2.759   3.417   4.317  1.00  0.00     0.072 C 
HETATM   24  N1  UNL     1       2.792   2.655   3.302  1.00  0.00    -0.410 N 
ATOM     25  H12 UNL     1       3.031   1.671   3.427  1.00  0.00     0.155 HD
ATOM     26  H11 UNL     1       2.579   3.034   2.380  1.00  0.00     0.155 HD
ENDBRANCH  22  23
ENDBRANCH  19  22
ENDBRANCH   1  18
BRANCH   5  27
HETATM   27  N5  UNL     1       7.989   6.458   8.502  1.00  0.00    -0.116 N 
HETATM   28  O3  UNL     1       8.520   7.416   9.121  1.00  0.00    -0.532 OA
HETATM   29  O4  UNL     1       8.599   5.940   7.412  1.00  0.00    -0.532 OA
ENDBRANCH   5  27
TORSDOF 7
ENDMDL
MODEL 3
REMARK VINA RESULT: -8.918796294      1.829      2.810
REMARK  7 active torsions:
REMARK  status: ('A' for Active; 'I' for Inactive)
REMARK    1  A    between atoms: C1_4  and  C2_5 
REMARK    2  A    between atoms: C2_5  and  N2_6 
REMARK       I    between atoms: N2_6  and  C3_8 
REMARK    3  A    between atoms: C3_8  and  C4_10 
REMARK    4  A    between atoms: C6_12  and  C7_13 
REMARK    5  A    between atoms: C7_13  and  C8_14 
REMARK    6  A    between atoms: C12_20  and  C13_21 
REMARK    7  A    between atoms: C15_25  and  N5_26 
ROOT
HETATM    1  C4  UNL     1       5.451   4.847   8.801  1.00  0.00     0.034 A 
HETATM    2  C5  UNL     1       4.867   5.126  10.019  1.00  0.00     0.024 A 
HETATM    3  C6  UNL     1       5.303   6.157  10.862  1.00  0.00    -0.049 A 
HETATM    4  C14 UNL     1       6.355   6.900  10.428  1.00  0.00     0.043 A 
HETATM    5  C15 UNL     1       6.989   6.666   9.204  1.00  0.00     0.104 A 
HETATM    6  C16 UNL     1       6.516   5.644   8.427  1.00  0.00     0.053 A 
ENDROOT
BRANCH   3   7
HETATM    7  C7  UNL     1       4.567   6.375  12.161  1.00  0.00     0.096 C 
BRANCH   7   8
HETATM    8  C8  UNL     1       3.142   6.592  11.955  1.00  0.00     0.028 A 
HETATM    9  N3  UNL     1       2.776   7.309  10.838  1.00  0.00    -0.368 N 
HETATM   10  C9  UNL     1       1.498   7.487  10.480  1.00  0.00     0.088 A 
ATOM     11  H3  UNL     1       3.508   7.721  10.260  1.00  0.00     0.165 HD
HETATM   12  C10 UNL     1       0.465   6.954  11.223  1.00  0.00     0.018 A 
HETATM   13  C11 UNL     1       0.794   6.238  12.340  1.00  0.00     0.020 A 
HETATM   14  C12 UNL     1       2.146   6.062  12.703  1.00  0.00     0.052 A 
BRANCH  14  15
HETATM   15  C13 UNL     1       2.354   5.406  13.963  1.00  0.00     0.266 C 
HETATM   16  N4  UNL     1       2.879   4.121  14.194  1.00  0.00    -0.057 NA
HETATM   17  O2  UNL     1       2.038   6.049  15.031  1.00  0.00    -0.271 OA
ENDBRANCH  14  15
ENDBRANCH   7   8
ENDBRANCH   3   7
BRANCH   1  18
HETATM   18  C3  UNL     1       4.965   3.761   7.954  1.00  0.00     0.252 C 
HETATM   19  N2  UNL     1       3.647   3.298   7.922  1.00  0.00    -0.352 N 
ATOM     20  H2  UNL     1       2.948   3.732   8.526  1.00  0.00     0.163 HD
HETATM   21  O1  UNL     1       5.817   3.201   7.189  1.00  0.00    -0.268 OA
BRANCH  19  22
HETATM   22  C2  UNL     1       3.255   2.212   7.046  1.00  0.00     0.166 C 
BRANCH  22  23
HETATM   23  C1  UNL     1       2.885   2.724   5.716  1.00  0.00     0.072 C 
HETATM   24  N1  UNL     1       3.684   2.571   4.741  1.00  0.00    -0.410 N 
ATOM     25  H12 UNL     1       4.572   2.094   4.895  1.00  0.00     0.155 HD
ATOM     26  H11 UNL     1       3.428   2.925   3.819  1.00  0.00     0.155 HD
ENDBRANCH  22  23
ENDBRANCH  19  22
ENDBRANCH   1  18
BRANCH   5  27
HETATM   27  N5  UNL     1       8.086   7.465   8.789  1.00  0.00    -0.116 N 
HETATM   28  O3  UNL     1       8.666   7.174   7.712  1.00  0.00    -0.532 OA
HETATM   29  O4  UNL     1       8.514   8.520   9.519  1.00  0.00    -0.532 OA
ENDBRANCH   5  27
TORSDOF 7
ENDMDL
MODEL 4
REMARK VINA RESULT: -8.865353883      1.395      2.345
REMARK  7 active torsions:
REMARK  status: ('A' for Active; 'I' for Inactive)
REMARK    1  A    between atoms: C1_4  and  C2_5 
REMARK    2  A    between atoms: C2_5  and  N2_6 
REMARK       I    between atoms: N2_6  and  C3_8 
REMARK    3  A    between atoms: C3_8  and  C4_10 
REMARK    4  A    between atoms: C6_12  and  C7_13 
REMARK    5  A    between atoms: C7_13  and  C8_14 
REMARK    6  A    between atoms: C12_20  and  C13_21 
REMARK    7  A    between atoms: C15_25  and  N5_26 
ROOT
HETATM    1  C4  UNL     1       5.939   4.679   8.476  1.00  0.00     0.034 A 
HETATM    2  C5  UNL     1       5.098   4.540   9.560  1.00  0.00     0.024 A 
HETATM    3  C6  UNL     1       5.035   5.470  10.607  1.00  0.00    -0.049 A 
HETATM    4  C14 UNL     1       5.856   6.549  10.520  1.00  0.00     0.043 A 
HETATM    5  C15 UNL     1       6.731   6.745   9.447  1.00  0.00     0.104 A 
HETATM    6  C16 UNL     1       6.745   5.801   8.456  1.00  0.00     0.053 A 
ENDROOT
BRANCH   3   7
HETATM    7  C7  UNL     1       4.057   5.214  11.728  1.00  0.00     0.096 C 
BRANCH   7   8
HETATM    8  C8  UNL     1       2.804   5.931  11.537  1.00  0.00     0.028 A 
HETATM    9  N3  UNL     1       2.529   6.378  10.264  1.00  0.00    -0.368 N 
HETATM   10  C9  UNL     1       1.367   6.955   9.936  1.00  0.00     0.088 A 
ATOM     11  H3  UNL     1       3.240   6.264   9.542  1.00  0.00     0.165 HD
HETATM   12  C10 UNL     1       0.368   7.136  10.870  1.00  0.00     0.018 A 
HETATM   13  C11 UNL     1       0.609   6.705  12.145  1.00  0.00     0.020 A 
HETATM   14  C12 UNL     1       1.840   6.101  12.472  1.00  0.00     0.052 A 
BRANCH  14  15
HETATM   15  C13 UNL     1       2.021   5.813  13.867  1.00  0.00     0.266 C 
HETATM   16  N4  UNL     1       2.418   4.599  14.457  1.00  0.00    -0.057 NA
HETATM   17  O2  UNL     1       1.807   6.764  14.706  1.00  0.00    -0.271 OA
ENDBRANCH  14  15
ENDBRANCH   7   8
ENDBRANCH   3   7
BRANCH   1  18
HETATM   18  C3  UNL     1       5.973   3.686   7.405  1.00  0.00     0.252 C 
HETATM   19  N2  UNL     1       4.875   3.307   6.629  1.00  0.00    -0.352 N 
ATOM     20  H2  UNL     1       3.967   3.740   6.799  1.00  0.00     0.163 HD
HETATM   21  O1  UNL     1       7.095   3.129   7.171  1.00  0.00    -0.268 OA
BRANCH  19  22
HETATM   22  C2  UNL     1       5.003   2.309   5.585  1.00  0.00     0.166 C 
BRANCH  22  23
HETATM   23  C1  UNL     1       4.519   2.837   4.299  1.00  0.00     0.072 C 
HETATM   24  N1  UNL     1       3.317   2.627   3.947  1.00  0.00    -0.410 N 
ATOM     25  H12 UNL     1       2.704   2.094   4.564  1.00  0.00     0.155 HD
ATOM     26  H11 UNL     1       2.981   2.993   3.056  1.00  0.00     0.155 HD
ENDBRANCH  22  23
ENDBRANCH  19  22
ENDBRANCH   1  18
BRANCH   5  27
HETATM   27  N5  UNL     1       7.573   7.886   9.395  1.00  0.00    -0.116 N 
HETATM   28  O3  UNL     1       8.671   7.794   8.787  1.00  0.00    -0.532 OA
HETATM   29  O4  UNL     1       7.223   9.055   9.978  1.00  0.00    -0.532 OA
ENDBRANCH   5  27
TORSDOF 7
ENDMDL
MODEL 5
REMARK VINA RESULT: -8.808477063      2.195      4.985
REMARK  7 active torsions:
REMARK  status: ('A' for Active; 'I' for Inactive)
REMARK    1  A    between atoms: C1_4  and  C2_5 
REMARK    2  A    between atoms: C2_5  and  N2_6 
REMARK       I    between atoms: N2_6  and  C3_8 
REMARK    3  A    between atoms: C3_8  and  C4_10 
REMARK    4  A    between atoms: C6_12  and  C7_13 
REMARK    5  A    between atoms: C7_13  and  C8_14 
REMARK    6  A    between atoms: C12_20  and  C13_21 
REMARK    7  A    between atoms: C15_25  and  N5_26 
ROOT
HETATM    1  C4  UNL     1       5.507   7.030   9.954  1.00  0.00     0.034 A 
HETATM    2  C5  UNL     1       4.297   6.456  10.281  1.00  0.00     0.024 A 
HETATM    3  C6  UNL     1       3.887   5.204   9.803  1.00  0.00    -0.049 A 
HETATM    4  C14 UNL     1       4.747   4.550   8.979  1.00  0.00     0.043 A 
HETATM    5  C15 UNL     1       5.987   5.080   8.611  1.00  0.00     0.104 A 
HETATM    6  C16 UNL     1       6.329   6.307   9.111  1.00  0.00     0.053 A 
ENDROOT
BRANCH   3   7
HETATM    7  C7  UNL     1       2.547   4.675  10.251  1.00  0.00     0.096 C 
BRANCH   7   8
HETATM    8  C8  UNL     1       2.297   4.934  11.662  1.00  0.00     0.028 A 
HETATM    9  N3  UNL     1       2.930   4.113  12.568  1.00  0.00    -0.368 N 
HETATM   10  C9  UNL     1       2.867   4.312  13.890  1.00  0.00     0.088 A 
ATOM     11  H3  UNL     1       3.468   3.321  12.217  1.00  0.00     0.165 HD
HETATM   12  C10 UNL     1       2.155   5.366  14.424  1.00  0.00     0.018 A 
HETATM   13  C11 UNL     1       1.513   6.200  13.552  1.00  0.00     0.020 A 
HETATM   14  C12 UNL     1       1.588   5.973  12.161  1.00  0.00     0.052 A 
BRANCH  14  15
HETATM   15  C13 UNL     1       0.766   6.837  11.362  1.00  0.00     0.266 C 
HETATM   16  N4  UNL     1       1.158   7.653  10.285  1.00  0.00    -0.057 NA
HETATM   17  O2  UNL     1      -0.490   6.888  11.635  1.00  0.00    -0.271 OA
ENDBRANCH  14  15
ENDBRANCH   7   8
ENDBRANCH   3   7
BRANCH   1  18
HETATM   18  C3  UNL     1       5.895   8.339  10.474  1.00  0.00     0.252 C 
HETATM   19  N2  UNL     1       6.376   9.398   9.700  1.00  0.00    -0.352 N 
ATOM     20  H2  UNL     1       6.474   9.278   8.691  1.00  0.00     0.163 HD
HETATM   21  O1  UNL     1       5.783   8.516  11.731  1.00  0.00    -0.268 OA
BRANCH  19  22
HETATM   22  C2  UNL     1       6.738  10.665  10.305  1.00  0.00     0.166 C 
BRANCH  22  23
HETATM   23  C1  UNL     1       5.539  11.482  10.558  1.00  0.00     0.072 C 
HETATM   24  N1  UNL     1       5.094  11.593  11.742  1.00  0.00    -0.410 N 
ATOM     25  H12 UNL     1       5.577  11.114  12.502  1.00  0.00     0.155 HD
ATOM     26  H11 UNL     1       4.264  12.159  11.918  1.00  0.00     0.155 HD
ENDBRANCH  22  23
ENDBRANCH  19  22
ENDBRANCH   1  18
BRANCH   5  27
HETATM   27  N5  UNL     1       6.857   4.364   7.747  1.00  0.00    -0.116 N 
HETATM   28  O3  UNL     1       7.918   4.922   7.368  1.00  0.00    -0.532 OA
HETATM   29  O4  UNL     1       6.569   3.110   7.329  1.00  0.00    -0.532 OA
ENDBRANCH   5  27
TORSDOF 7
ENDMDL
