MODEL 1
REMARK VINA RESULT: -8.581145799      0.000      0.000
REMARK  8 active torsions:
REMARK  status: ('A' for Active; 'I' for Inactive)
REMARK    1  A    between atoms: C5_6  and  S1_7 
REMARK    2  A    between atoms: S1_7  and  N2_10 
REMARK    3  A    between atoms: N2_10  and  C6_12 
REMARK    4  A    between atoms: C6_12  and  C7_13 
REMARK    5  A    between atoms: C7_13  and  N3_14 
REMARK    6  A    between atoms: C7_13  and  C8_18 
REMARK    7  A    between atoms: C8_18  and  N4_19 
REMARK       I    between atoms: N4_19  and  C9_21 
REMARK    8  A    between atoms: C9_21  and  C10_23 
ROOT
HETATM    1  C7  UNL     1       3.519   3.149   7.532  1.00  0.00     0.219 C 
ENDROOT
BRANCH   1   2
HETATM    2  C6  UNL     1       4.796   3.725   8.144  1.00  0.00     0.166 C 
BRANCH   2   3
HETATM    3  N2  UNL     1       4.654   3.954   9.552  1.00  0.00    -0.313 N 
ATOM      4  H2  UNL     1       4.569   3.199  10.234  1.00  0.00     0.172 HD
BRANCH   3   5
HETATM    5  S1  UNL     1       4.640   5.598   9.980  1.00  0.00     0.258 S 
HETATM    6  O1  UNL     1       5.766   5.824  10.975  1.00  0.00    -0.201 OA
HETATM    7  O2  UNL     1       4.859   6.527   8.854  1.00  0.00    -0.201 OA
BRANCH   5   8
HETATM    8  C5  UNL     1       3.167   6.076  10.809  1.00  0.00     0.081 A 
HETATM    9  C4  UNL     1       2.070   6.359  10.020  1.00  0.00     0.025 A 
HETATM   10  C3  UNL     1       0.888   6.738  10.602  1.00  0.00     0.003 A 
HETATM   11  C2  UNL     1       0.816   6.831  11.974  1.00  0.00     0.026 A 
HETATM   12  C1  UNL     1       1.898   6.553  12.776  1.00  0.00     0.047 A 
HETATM   13  N1  UNL     1       1.827   6.647  14.194  1.00  0.00    -0.102 NA
HETATM   14  C14 UNL     1       3.072   6.174  12.160  1.00  0.00     0.051 A 
ENDBRANCH   5   8
ENDBRANCH   3   5
ENDBRANCH   2   3
ENDBRANCH   1   2
BRANCH   1  15
HETATM   15  N3  UNL     1       2.901   2.416   8.611  1.00  0.00    -0.072 N 
ATOM     16  H33 UNL     1       2.957   2.882   9.517  1.00  0.00     0.274 HD
ATOM     17  H32 UNL     1       1.883   2.384   8.563  1.00  0.00     0.274 HD
ATOM     18  H31 UNL     1       3.349   1.500   8.586  1.00  0.00     0.274 HD
ENDBRANCH   1  15
BRANCH   1  19
HETATM   19  C8  UNL     1       3.915   2.231   6.432  1.00  0.00     0.157 C 
BRANCH  19  20
HETATM   20  N4  UNL     1       4.755   2.725   5.402  1.00  0.00    -0.353 N 
HETATM   21  C9  UNL     1       5.755   2.114   4.659  1.00  0.00     0.275 C 
HETATM   22  O3  UNL     1       6.107   0.935   4.797  1.00  0.00    -0.265 OA
ATOM     23  H4  UNL     1       4.596   3.704   5.164  1.00  0.00     0.162 HD
BRANCH  21  24
HETATM   24  C10 UNL     1       6.489   2.867   3.614  1.00  0.00     0.142 A 
HETATM   25  C11 UNL     1       6.391   4.228   3.399  1.00  0.00     0.045 A 
HETATM   26  C12 UNL     1       7.234   4.525   2.338  1.00  0.00     0.027 A 
HETATM   27  C13 UNL     1       7.799   3.351   1.959  1.00  0.00     0.143 A 
HETATM   28  O4  UNL     1       7.331   2.418   2.733  1.00  0.00    -0.317 OA
ENDBRANCH  21  24
ENDBRANCH  19  20
ENDBRANCH   1  19
TORSDOF 8
ENDMDL
MODEL 2
REMARK VINA RESULT: -8.479271355      1.060      1.213
REMARK  8 active torsions:
REMARK  status: ('A' for Active; 'I' for Inactive)
REMARK    1  A    between atoms: C5_6  and  S1_7 
REMARK    2  A    between atoms: S1_7  and  N2_10 
REMARK    3  A    between atoms: N2_10  and  C6_12 
REMARK    4  A    between atoms: C6_12  and  C7_13 
REMARK    5  A    between atoms: C7_13  and  N3_14 
REMARK    6  A    between atoms: C7_13  and  C8_18 
REMARK    7  A    between atoms: C8_18  and  N4_19 
REMARK       I    between atoms: N4_19  and  C9_21 
REMARK    8  A    between atoms: C9_21  and  C10_23 
ROOT
HETATM    1  C7  UNL     1       3.815   3.518   7.391  1.00  0.00     0.219 C 
ENDROOT
BRANCH   1   2
HETATM    2  C6  UNL     1       3.332   3.775   8.819  1.00  0.00     0.166 C 
BRANCH   2   3
HETATM    3  N2  UNL     1       4.410   4.149   9.686  1.00  0.00    -0.313 N 
ATOM      4  H2  UNL     1       5.166   3.513   9.941  1.00  0.00     0.172 HD
BRANCH   3   5
HETATM    5  S1  UNL     1       4.313   5.748  10.248  1.00  0.00     0.258 S 
HETATM    6  O1  UNL     1       5.616   6.065  10.963  1.00  0.00    -0.201 OA
HETATM    7  O2  UNL     1       4.138   6.762   9.189  1.00  0.00    -0.201 OA
BRANCH   5   8
HETATM    8  C5  UNL     1       3.045   5.978  11.443  1.00  0.00     0.081 A 
HETATM    9  C4  UNL     1       1.850   6.502  10.991  1.00  0.00     0.025 A 
HETATM   10  C3  UNL     1       0.818   6.707  11.870  1.00  0.00     0.003 A 
HETATM   11  C2  UNL     1       0.993   6.384  13.198  1.00  0.00     0.026 A 
HETATM   12  C1  UNL     1       2.177   5.861  13.664  1.00  0.00     0.047 A 
HETATM   13  N1  UNL     1       2.362   5.525  15.035  1.00  0.00    -0.102 NA
HETATM   14  C14 UNL     1       3.195   5.667  12.756  1.00  0.00     0.051 A 
ENDBRANCH   5   8
ENDBRANCH   3   5
ENDBRANCH   2   3
ENDBRANCH   1   2
BRANCH   1  15
HETATM   15  N3  UNL     1       3.264   2.229   7.050  1.00  0.00    -0.072 N 
ATOM     16  H33 UNL     1       2.755   1.779   7.811  1.00  0.00     0.274 HD
ATOM     17  H32 UNL     1       2.480   2.271   6.399  1.00  0.00     0.274 HD
ATOM     18  H31 UNL     1       4.061   1.693   6.707  1.00  0.00     0.274 HD
ENDBRANCH   1  15
BRANCH   1  19
HETATM   19  C8  UNL     1       5.301   3.464   7.417  1.00  0.00     0.157 C 
BRANCH  19  20
HETATM   20  N4  UNL     1       6.009   3.599   6.195  1.00  0.00    -0.353 N 
HETATM   21  C9  UNL     1       6.213   2.712   5.148  1.00  0.00     0.275 C 
HETATM   22  O3  UNL     1       5.773   1.555   5.116  1.00  0.00    -0.265 OA
ATOM     23  H4  UNL     1       6.446   4.511   6.063  1.00  0.00     0.162 HD
BRANCH  21  24
HETATM   24  C10 UNL     1       6.999   3.115   3.958  1.00  0.00     0.142 A 
HETATM   25  C11 UNL     1       6.609   2.925   2.646  1.00  0.00     0.045 A 
HETATM   26  C12 UNL     1       7.622   3.440   1.851  1.00  0.00     0.027 A 
HETATM   27  C13 UNL     1       8.570   3.914   2.699  1.00  0.00     0.143 A 
HETATM   28  O4  UNL     1       8.158   3.699   3.913  1.00  0.00    -0.317 OA
ENDBRANCH  21  24
ENDBRANCH  19  20
ENDBRANCH   1  19
TORSDOF 8
ENDMDL
MODEL 3
REMARK VINA RESULT: -8.462472422      1.041      1.101
REMARK  8 active torsions:
REMARK  status: ('A' for Active; 'I' for Inactive)
REMARK    1  A    between atoms: C5_6  and  S1_7 
REMARK    2  A    between atoms: S1_7  and  N2_10 
REMARK    3  A    between atoms: N2_10  and  C6_12 
REMARK    4  A    between atoms: C6_12  and  C7_13 
REMARK    5  A    between atoms: C7_13  and  N3_14 
REMARK    6  A    between atoms: C7_13  and  C8_18 
REMARK    7  A    between atoms: C8_18  and  N4_19 
REMARK       I    between atoms: N4_19  and  C9_21 
REMARK    8  A    between atoms: C9_21  and  C10_23 
ROOT
HETATM    1  C7  UNL     1       3.429   3.951   7.805  1.00  0.00     0.219 C 
ENDROOT
BRANCH   1   2
HETATM    2  C6  UNL     1       4.654   4.859   7.916  1.00  0.00     0.166 C 
BRANCH   2   3
HETATM    3  N2  UNL     1       4.294   6.190   8.306  1.00  0.00    -0.313 N 
ATOM      4  H2  UNL     1       3.919   6.879   7.654  1.00  0.00     0.172 HD
BRANCH   3   5
HETATM    5  S1  UNL     1       4.552   6.514   9.953  1.00  0.00     0.258 S 
HETATM    6  O1  UNL     1       5.310   5.336  10.541  1.00  0.00    -0.201 OA
HETATM    7  O2  UNL     1       5.351   7.727  10.222  1.00  0.00    -0.201 OA
BRANCH   5   8
HETATM    8  C5  UNL     1       3.057   6.627  10.870  1.00  0.00     0.081 A 
HETATM    9  C4  UNL     1       1.895   6.817  10.149  1.00  0.00     0.025 A 
HETATM   10  C3  UNL     1       0.693   6.913  10.802  1.00  0.00     0.003 A 
HETATM   11  C2  UNL     1       0.667   6.817  12.176  1.00  0.00     0.026 A 
HETATM   12  C1  UNL     1       1.815   6.627  12.910  1.00  0.00     0.047 A 
HETATM   13  N1  UNL     1       1.792   6.527  14.329  1.00  0.00    -0.102 NA
HETATM   14  C14 UNL     1       3.007   6.535  12.224  1.00  0.00     0.051 A 
ENDBRANCH   5   8
ENDBRANCH   3   5
ENDBRANCH   2   3
ENDBRANCH   1   2
BRANCH   1  15
HETATM   15  N3  UNL     1       3.300   3.357   9.114  1.00  0.00    -0.072 N 
ATOM     16  H33 UNL     1       3.467   4.005   9.883  1.00  0.00     0.274 HD
ATOM     17  H32 UNL     1       2.342   3.121   9.371  1.00  0.00     0.274 HD
ATOM     18  H31 UNL     1       3.935   2.559   9.096  1.00  0.00     0.274 HD
ENDBRANCH   1  15
BRANCH   1  19
HETATM   19  C8  UNL     1       3.723   2.912   6.783  1.00  0.00     0.157 C 
BRANCH  19  20
HETATM   20  N4  UNL     1       4.702   3.186   5.794  1.00  0.00    -0.353 N 
HETATM   21  C9  UNL     1       5.596   2.358   5.131  1.00  0.00     0.275 C 
HETATM   22  O3  UNL     1       5.690   1.137   5.320  1.00  0.00    -0.265 OA
ATOM     23  H4  UNL     1       4.760   4.167   5.523  1.00  0.00     0.162 HD
BRANCH  21  24
HETATM   24  C10 UNL     1       6.525   2.907   4.115  1.00  0.00     0.142 A 
HETATM   25  C11 UNL     1       6.385   2.760   2.748  1.00  0.00     0.045 A 
HETATM   26  C12 UNL     1       7.457   3.419   2.165  1.00  0.00     0.027 A 
HETATM   27  C13 UNL     1       8.192   3.930   3.185  1.00  0.00     0.143 A 
HETATM   28  O4  UNL     1       7.606   3.603   4.298  1.00  0.00    -0.317 OA
ENDBRANCH  21  24
ENDBRANCH  19  20
ENDBRANCH   1  19
TORSDOF 8
ENDMDL
MODEL 4
REMARK VINA RESULT: -8.428194682      1.459      1.649
REMARK  8 active torsions:
REMARK  status: ('A' for Active; 'I' for Inactive)
REMARK    1  A    between atoms: C5_6  and  S1_7 
REMARK    2  A    between atoms: S1_7  and  N2_10 
REMARK    3  A    between atoms: N2_10  and  C6_12 
REMARK    4  A    between atoms: C6_12  and  C7_13 
REMARK    5  A    between atoms: C7_13  and  N3_14 
REMARK    6  A    between atoms: C7_13  and  C8_18 
REMARK    7  A    between atoms: C8_18  and  N4_19 
REMARK       I    between atoms: N4_19  and  C9_21 
REMARK    8  A    between atoms: C9_21  and  C10_23 
ROOT
HETATM    1  C7  UNL     1       3.082   3.151   6.945  1.00  0.00     0.219 C 
ENDROOT
BRANCH   1   2
HETATM    2  C6  UNL     1       4.136   3.354   8.034  1.00  0.00     0.166 C 
BRANCH   2   3
HETATM    3  N2  UNL     1       3.537   3.614   9.310  1.00  0.00    -0.313 N 
ATOM      4  H2  UNL     1       2.995   2.918   9.823  1.00  0.00     0.172 HD
BRANCH   3   5
HETATM    5  S1  UNL     1       3.815   5.186   9.889  1.00  0.00     0.258 S 
HETATM    6  O1  UNL     1       5.249   5.246  10.389  1.00  0.00    -0.201 OA
HETATM    7  O2  UNL     1       3.661   6.249   8.876  1.00  0.00    -0.201 OA
BRANCH   5   8
HETATM    8  C5  UNL     1       2.810   5.595  11.271  1.00  0.00     0.081 A 
HETATM    9  C4  UNL     1       1.598   6.199  11.003  1.00  0.00     0.025 A 
HETATM   10  C3  UNL     1       0.763   6.544  12.035  1.00  0.00     0.003 A 
HETATM   11  C2  UNL     1       1.152   6.280  13.329  1.00  0.00     0.026 A 
HETATM   12  C1  UNL     1       2.356   5.678  13.614  1.00  0.00     0.047 A 
HETATM   13  N1  UNL     1       2.761   5.402  14.950  1.00  0.00    -0.102 NA
HETATM   14  C14 UNL     1       3.172   5.343  12.555  1.00  0.00     0.051 A 
ENDBRANCH   5   8
ENDBRANCH   3   5
ENDBRANCH   2   3
ENDBRANCH   1   2
BRANCH   1  15
HETATM   15  N3  UNL     1       3.414   1.877   6.355  1.00  0.00    -0.072 N 
ATOM     16  H33 UNL     1       4.187   1.394   6.813  1.00  0.00     0.274 HD
ATOM     17  H32 UNL     1       2.717   1.150   6.514  1.00  0.00     0.274 HD
ATOM     18  H31 UNL     1       3.579   2.087   5.371  1.00  0.00     0.274 HD
ENDBRANCH   1  15
BRANCH   1  19
HETATM   19  C8  UNL     1       3.235   4.247   5.952  1.00  0.00     0.157 C 
BRANCH  19  20
HETATM   20  N4  UNL     1       4.350   4.221   5.076  1.00  0.00    -0.353 N 
HETATM   21  C9  UNL     1       4.522   3.649   3.824  1.00  0.00     0.275 C 
HETATM   22  O3  UNL     1       3.651   3.006   3.223  1.00  0.00    -0.265 OA
ATOM     23  H4  UNL     1       5.171   4.712   5.429  1.00  0.00     0.162 HD
BRANCH  21  24
HETATM   24  C10 UNL     1       5.811   3.781   3.103  1.00  0.00     0.142 A 
HETATM   25  C11 UNL     1       6.616   2.727   2.716  1.00  0.00     0.045 A 
HETATM   26  C12 UNL     1       7.715   3.280   2.076  1.00  0.00     0.027 A 
HETATM   27  C13 UNL     1       7.534   4.625   2.099  1.00  0.00     0.143 A 
HETATM   28  O4  UNL     1       6.411   4.863   2.708  1.00  0.00    -0.317 OA
ENDBRANCH  21  24
ENDBRANCH  19  20
ENDBRANCH   1  19
TORSDOF 8
ENDMDL
MODEL 5
REMARK VINA RESULT: -8.414230945      1.085      1.196
REMARK  8 active torsions:
REMARK  status: ('A' for Active; 'I' for Inactive)
REMARK    1  A    between atoms: C5_6  and  S1_7 
REMARK    2  A    between atoms: S1_7  and  N2_10 
REMARK    3  A    between atoms: N2_10  and  C6_12 
REMARK    4  A    between atoms: C6_12  and  C7_13 
REMARK    5  A    between atoms: C7_13  and  N3_14 
REMARK    6  A    between atoms: C7_13  and  C8_18 
REMARK    7  A    between atoms: C8_18  and  N4_19 
REMARK       I    between atoms: N4_19  and  C9_21 
REMARK    8  A    between atoms: C9_21  and  C10_23 
ROOT
HETATM    1  C7  UNL     1       3.497   3.050   7.301  1.00  0.00     0.219 C 
ENDROOT
BRANCH   1   2
HETATM    2  C6  UNL     1       4.827   3.606   7.812  1.00  0.00     0.166 C 
BRANCH   2   3
HETATM    3  N2  UNL     1       4.824   3.762   9.236  1.00  0.00    -0.313 N 
ATOM      4  H2  UNL     1       4.780   2.974   9.883  1.00  0.00     0.172 HD
BRANCH   3   5
HETATM    5  S1  UNL     1       4.901   5.380   9.748  1.00  0.00     0.258 S 
HETATM    6  O1  UNL     1       5.941   5.464  10.853  1.00  0.00    -0.201 OA
HETATM    7  O2  UNL     1       5.301   6.337   8.698  1.00  0.00    -0.201 OA
BRANCH   5   8
HETATM    8  C5  UNL     1       3.398   5.945  10.462  1.00  0.00     0.081 A 
HETATM    9  C4  UNL     1       2.355   6.206   9.595  1.00  0.00     0.025 A 
HETATM   10  C3  UNL     1       1.153   6.649  10.085  1.00  0.00     0.003 A 
HETATM   11  C2  UNL     1       1.008   6.826  11.443  1.00  0.00     0.026 A 
HETATM   12  C1  UNL     1       2.036   6.571  12.320  1.00  0.00     0.047 A 
HETATM   13  N1  UNL     1       1.889   6.753  13.724  1.00  0.00    -0.102 NA
HETATM   14  C14 UNL     1       3.231   6.126  11.797  1.00  0.00     0.051 A 
ENDBRANCH   5   8
ENDBRANCH   3   5
ENDBRANCH   2   3
ENDBRANCH   1   2
BRANCH   1  15
HETATM   15  N3  UNL     1       3.010   2.229   8.382  1.00  0.00    -0.072 N 
ATOM     16  H33 UNL     1       3.633   2.190   9.189  1.00  0.00     0.274 HD
ATOM     17  H32 UNL     1       2.209   2.622   8.876  1.00  0.00     0.274 HD
ATOM     18  H31 UNL     1       2.830   1.322   7.952  1.00  0.00     0.274 HD
ENDBRANCH   1  15
BRANCH   1  19
HETATM   19  C8  UNL     1       3.781   2.223   6.098  1.00  0.00     0.157 C 
BRANCH  19  20
HETATM   20  N4  UNL     1       4.765   2.671   5.180  1.00  0.00    -0.353 N 
HETATM   21  C9  UNL     1       4.684   3.008   3.837  1.00  0.00     0.275 C 
HETATM   22  O3  UNL     1       3.644   2.960   3.166  1.00  0.00    -0.265 OA
ATOM     23  H4  UNL     1       5.699   2.761   5.579  1.00  0.00     0.162 HD
BRANCH  21  24
HETATM   24  C10 UNL     1       5.884   3.465   3.097  1.00  0.00     0.142 A 
HETATM   25  C11 UNL     1       6.841   2.635   2.545  1.00  0.00     0.045 A 
HETATM   26  C12 UNL     1       7.785   3.458   1.948  1.00  0.00     0.027 A 
HETATM   27  C13 UNL     1       7.369   4.732   2.160  1.00  0.00     0.143 A 
HETATM   28  O4  UNL     1       6.259   4.680   2.833  1.00  0.00    -0.317 OA
ENDBRANCH  21  24
ENDBRANCH  19  20
ENDBRANCH   1  19
TORSDOF 8
ENDMDL
