MODEL 1
REMARK VINA RESULT: -7.461640457      0.000      0.000
REMARK  10 active torsions:
REMARK  status: ('A' for Active; 'I' for Inactive)
REMARK    1  A    between atoms: C4_7  and  N3_8 
REMARK    2  A    between atoms: N3_8  and  C5_10 
REMARK    3  A    between atoms: C5_10  and  C6_11 
REMARK    4  A    between atoms: C6_11  and  C7_12 
REMARK    5  A    between atoms: C8_13  and  C9_14 
REMARK    6  A    between atoms: C11_19  and  N6_20 
REMARK    7  A    between atoms: N6_20  and  C12_22 
REMARK    8  A    between atoms: C12_22  and  C13_23 
REMARK    9  A    between atoms: C13_23  and  C14_24 
REMARK   10  A    between atoms: C16_28  and  N8_29 
ROOT
HETATM    1  C1  UNL     1      -4.350 -15.755   8.552  1.00  0.00     0.158 C 
HETATM    2  N1  UNL     1      -5.185 -14.594   8.779  1.00  0.00    -0.331 N 
HETATM    3  C2  UNL     1      -4.719 -13.368   9.065  1.00  0.00     0.184 A 
HETATM    4  N2  UNL     1      -5.773 -12.515   9.216  1.00  0.00    -0.346 N 
ATOM      5  H2  UNL     1      -5.706 -11.522   9.436  1.00  0.00     0.167 HD
HETATM    6  C3  UNL     1      -6.914 -13.199   9.026  1.00  0.00     0.123 A 
HETATM    7  C4  UNL     1      -8.243 -12.814   9.065  1.00  0.00     0.147 A 
HETATM    8  N5  UNL     1      -9.152 -13.775   8.823  1.00  0.00    -0.175 N 
ATOM      9  H5  UNL     1     -10.142 -13.529   8.843  1.00  0.00     0.186 HD
HETATM   10  C11 UNL     1      -8.803 -15.064   8.551  1.00  0.00     0.681 A 
HETATM   11  N9  UNL     1      -7.496 -15.397   8.523  1.00  0.00    -0.174 N 
ATOM     12  H9  UNL     1      -7.236 -16.362   8.319  1.00  0.00     0.186 HD
HETATM   13  C17 UNL     1      -6.525 -14.495   8.754  1.00  0.00     0.154 A 
ENDROOT
BRANCH  10  14
HETATM   14  N6  UNL     1      -9.721 -15.941   8.327  1.00  0.00    -0.226 N 
ATOM     15  H6  UNL     1      -9.540 -16.732   7.707  1.00  0.00     0.177 HD
BRANCH  14  16
HETATM   16  C12 UNL     1     -10.993 -15.792   8.955  1.00  0.00     0.143 C 
BRANCH  16  17
HETATM   17  C13 UNL     1     -11.170 -16.703  10.153  1.00  0.00     0.068 C 
BRANCH  17  18
HETATM   18  C14 UNL     1     -12.624 -16.630  10.546  1.00  0.00     0.003 A 
HETATM   19  C15 UNL     1     -13.266 -17.254  11.584  1.00  0.00     0.105 A 
HETATM   20  N7  UNL     1     -14.540 -17.038  11.728  1.00  0.00    -0.346 N 
HETATM   21  C16 UNL     1     -15.157 -16.230  10.869  1.00  0.00     0.142 A 
ATOM     22  H7  UNL     1     -15.058 -17.480  12.488  1.00  0.00     0.167 HD
HETATM   23  S1  UNL     1     -13.896 -15.756   9.817  1.00  0.00    -0.058 SA
BRANCH  21  24
HETATM   24  N8  UNL     1     -16.430 -15.892  10.850  1.00  0.00    -0.380 N 
ATOM     25  H82 UNL     1     -17.255 -16.485  10.759  1.00  0.00     0.158 HD
ATOM     26  H81 UNL     1     -16.830 -14.956  10.926  1.00  0.00     0.158 HD
ENDBRANCH  21  24
ENDBRANCH  17  18
ENDBRANCH  16  17
ENDBRANCH  14  16
ENDBRANCH  10  14
BRANCH   7  27
HETATM   27  N3  UNL     1      -8.639 -11.479   9.345  1.00  0.00    -0.373 N 
ATOM     28  H3  UNL     1      -8.398 -11.043  10.235  1.00  0.00     0.161 HD
BRANCH  27  29
HETATM   29  C5  UNL     1      -9.382 -10.752   8.356  1.00  0.00     0.133 C 
BRANCH  29  30
HETATM   30  C6  UNL     1      -8.719 -10.713   7.018  1.00  0.00     0.114 C 
BRANCH  30  31
HETATM   31  C7  UNL     1      -9.677 -11.125   5.990  1.00  0.00    -0.100 C 
HETATM   32  C8  UNL     1     -10.484 -11.471   5.154  1.00  0.00    -0.077 C 
BRANCH  32  33
HETATM   33  C9  UNL     1     -11.455 -11.880   4.178  1.00  0.00     0.079 C 
HETATM   34  C10 UNL     1     -11.937 -11.053   3.271  1.00  0.00     0.109 C 
HETATM   35  N4  UNL     1     -12.891 -11.469   2.317  1.00  0.00    -0.115 NA
ENDBRANCH  32  33
ENDBRANCH  30  31
ENDBRANCH  29  30
ENDBRANCH  27  29
ENDBRANCH   7  27
TORSDOF 10
ENDMDL
MODEL 2
REMARK VINA RESULT: -7.460161525      2.943      5.880
REMARK  10 active torsions:
REMARK  status: ('A' for Active; 'I' for Inactive)
REMARK    1  A    between atoms: C4_7  and  N3_8 
REMARK    2  A    between atoms: N3_8  and  C5_10 
REMARK    3  A    between atoms: C5_10  and  C6_11 
REMARK    4  A    between atoms: C6_11  and  C7_12 
REMARK    5  A    between atoms: C8_13  and  C9_14 
REMARK    6  A    between atoms: C11_19  and  N6_20 
REMARK    7  A    between atoms: N6_20  and  C12_22 
REMARK    8  A    between atoms: C12_22  and  C13_23 
REMARK    9  A    between atoms: C13_23  and  C14_24 
REMARK   10  A    between atoms: C16_28  and  N8_29 
ROOT
HETATM    1  C1  UNL     1      -8.811 -18.279   9.824  1.00  0.00     0.158 C 
HETATM    2  N1  UNL     1      -9.269 -16.948   9.482  1.00  0.00    -0.331 N 
HETATM    3  C2  UNL     1     -10.559 -16.586   9.403  1.00  0.00     0.184 A 
HETATM    4  N2  UNL     1     -10.630 -15.267   9.061  1.00  0.00    -0.346 N 
ATOM      5  H2  UNL     1     -11.490 -14.733   8.932  1.00  0.00     0.167 HD
HETATM    6  C3  UNL     1      -9.384 -14.787   8.922  1.00  0.00     0.123 A 
HETATM    7  C4  UNL     1      -8.905 -13.532   8.589  1.00  0.00     0.147 A 
HETATM    8  N5  UNL     1      -7.568 -13.395   8.537  1.00  0.00    -0.175 N 
ATOM      9  H5  UNL     1      -7.178 -12.484   8.295  1.00  0.00     0.186 HD
HETATM   10  C11 UNL     1      -6.714 -14.426   8.795  1.00  0.00     0.681 A 
HETATM   11  N9  UNL     1      -7.223 -15.633   9.116  1.00  0.00    -0.174 N 
ATOM     12  H9  UNL     1      -6.582 -16.403   9.309  1.00  0.00     0.186 HD
HETATM   13  C17 UNL     1      -8.548 -15.852   9.189  1.00  0.00     0.154 A 
ENDROOT
BRANCH  10  14
HETATM   14  N6  UNL     1      -5.441 -14.232   8.730  1.00  0.00    -0.226 N 
ATOM     15  H6  UNL     1      -4.792 -14.996   8.921  1.00  0.00     0.177 HD
BRANCH  14  16
HETATM   16  C12 UNL     1      -4.951 -12.937   8.387  1.00  0.00     0.143 C 
BRANCH  16  17
HETATM   17  C13 UNL     1      -4.338 -12.206   9.564  1.00  0.00     0.068 C 
BRANCH  17  18
HETATM   18  C14 UNL     1      -5.318 -11.137   9.973  1.00  0.00     0.003 A 
HETATM   19  C15 UNL     1      -6.130 -11.093  11.076  1.00  0.00     0.105 A 
HETATM   20  N7  UNL     1      -6.901 -10.056  11.222  1.00  0.00    -0.346 N 
HETATM   21  C16 UNL     1      -6.868  -9.095  10.301  1.00  0.00     0.142 A 
ATOM     22  H7  UNL     1      -7.521  -9.981  12.029  1.00  0.00     0.167 HD
HETATM   23  S1  UNL     1      -5.708  -9.672   9.188  1.00  0.00    -0.058 SA
BRANCH  21  24
HETATM   24  N8  UNL     1      -7.569  -7.979  10.273  1.00  0.00    -0.380 N 
ATOM     25  H82 UNL     1      -8.566  -7.838  10.436  1.00  0.00     0.158 HD
ATOM     26  H81 UNL     1      -7.233  -7.035  10.081  1.00  0.00     0.158 HD
ENDBRANCH  21  24
ENDBRANCH  17  18
ENDBRANCH  16  17
ENDBRANCH  14  16
ENDBRANCH  10  14
BRANCH   7  27
HETATM   27  N3  UNL     1      -9.769 -12.438   8.315  1.00  0.00    -0.373 N 
ATOM     28  H3  UNL     1     -10.762 -12.594   8.140  1.00  0.00     0.161 HD
BRANCH  27  29
HETATM   29  C5  UNL     1      -9.224 -11.112   8.286  1.00  0.00     0.133 C 
BRANCH  29  30
HETATM   30  C6  UNL     1      -8.746 -10.690   6.935  1.00  0.00     0.114 C 
BRANCH  30  31
HETATM   31  C7  UNL     1      -9.735 -11.080   5.928  1.00  0.00    -0.100 C 
HETATM   32  C8  UNL     1     -10.552 -11.422   5.099  1.00  0.00    -0.077 C 
BRANCH  32  33
HETATM   33  C9  UNL     1     -11.519 -11.847   4.127  1.00  0.00     0.079 C 
HETATM   34  C10 UNL     1     -11.978 -11.043   3.188  1.00  0.00     0.109 C 
HETATM   35  N4  UNL     1     -12.930 -11.474   2.239  1.00  0.00    -0.115 NA
ENDBRANCH  32  33
ENDBRANCH  30  31
ENDBRANCH  29  30
ENDBRANCH  27  29
ENDBRANCH   7  27
TORSDOF 10
ENDMDL
MODEL 3
REMARK VINA RESULT: -7.440284952      3.728      6.747
REMARK  10 active torsions:
REMARK  status: ('A' for Active; 'I' for Inactive)
REMARK    1  A    between atoms: C4_7  and  N3_8 
REMARK    2  A    between atoms: N3_8  and  C5_10 
REMARK    3  A    between atoms: C5_10  and  C6_11 
REMARK    4  A    between atoms: C6_11  and  C7_12 
REMARK    5  A    between atoms: C8_13  and  C9_14 
REMARK    6  A    between atoms: C11_19  and  N6_20 
REMARK    7  A    between atoms: N6_20  and  C12_22 
REMARK    8  A    between atoms: C12_22  and  C13_23 
REMARK    9  A    between atoms: C13_23  and  C14_24 
REMARK   10  A    between atoms: C16_28  and  N8_29 
ROOT
HETATM    1  C1  UNL     1      -5.004  -8.588  11.012  1.00  0.00     0.158 C 
HETATM    2  N1  UNL     1      -6.181  -9.039  10.300  1.00  0.00    -0.331 N 
HETATM    3  C2  UNL     1      -7.441  -8.730  10.644  1.00  0.00     0.184 A 
HETATM    4  N2  UNL     1      -8.300  -9.319   9.762  1.00  0.00    -0.346 N 
ATOM      5  H2  UNL     1      -9.317  -9.250   9.788  1.00  0.00     0.167 HD
HETATM    6  C3  UNL     1      -7.586 -10.005   8.854  1.00  0.00     0.123 A 
HETATM    7  C4  UNL     1      -7.963 -10.768   7.763  1.00  0.00     0.147 A 
HETATM    8  N5  UNL     1      -6.968 -11.327   7.052  1.00  0.00    -0.175 N 
ATOM      9  H5  UNL     1      -7.207 -11.897   6.240  1.00  0.00     0.186 HD
HETATM   10  C11 UNL     1      -5.654 -11.163   7.372  1.00  0.00     0.681 A 
HETATM   11  N9  UNL     1      -5.330 -10.411   8.444  1.00  0.00    -0.174 N 
ATOM     12  H9  UNL     1      -4.346 -10.289   8.683  1.00  0.00     0.186 HD
HETATM   13  C17 UNL     1      -6.265  -9.818   9.207  1.00  0.00     0.154 A 
ENDROOT
BRANCH  10  14
HETATM   14  N6  UNL     1      -4.744 -11.725   6.651  1.00  0.00    -0.226 N 
ATOM     15  H6  UNL     1      -4.624 -11.461   5.673  1.00  0.00     0.177 HD
BRANCH  14  16
HETATM   16  C12 UNL     1      -3.908 -12.721   7.238  1.00  0.00     0.143 C 
BRANCH  16  17
HETATM   17  C13 UNL     1      -3.586 -13.857   6.289  1.00  0.00     0.068 C 
BRANCH  17  18
HETATM   18  C14 UNL     1      -4.505 -14.998   6.645  1.00  0.00     0.003 A 
HETATM   19  C15 UNL     1      -5.023 -15.970   5.830  1.00  0.00     0.105 A 
HETATM   20  N7  UNL     1      -5.802 -16.862   6.367  1.00  0.00    -0.346 N 
HETATM   21  C16 UNL     1      -6.060 -16.788   7.671  1.00  0.00     0.142 A 
ATOM     22  H7  UNL     1      -6.209 -17.605   5.799  1.00  0.00     0.167 HD
HETATM   23  S1  UNL     1      -5.173 -15.413   8.160  1.00  0.00    -0.058 SA
BRANCH  21  24
HETATM   24  N8  UNL     1      -6.820 -17.590   8.391  1.00  0.00    -0.380 N 
ATOM     25  H82 UNL     1      -7.077 -18.562   8.219  1.00  0.00     0.158 HD
ATOM     26  H81 UNL     1      -7.295 -17.380   9.268  1.00  0.00     0.158 HD
ENDBRANCH  21  24
ENDBRANCH  17  18
ENDBRANCH  16  17
ENDBRANCH  14  16
ENDBRANCH  10  14
BRANCH   7  27
HETATM   27  N3  UNL     1      -9.324 -10.958   7.403  1.00  0.00    -0.373 N 
ATOM     28  H3  UNL     1     -10.030 -11.128   8.119  1.00  0.00     0.161 HD
BRANCH  27  29
HETATM   29  C5  UNL     1      -9.690 -10.907   6.017  1.00  0.00     0.133 C 
BRANCH  29  30
HETATM   30  C6  UNL     1     -10.221 -12.201   5.491  1.00  0.00     0.114 C 
BRANCH  30  31
HETATM   31  C7  UNL     1     -10.164 -13.213   6.547  1.00  0.00    -0.100 C 
HETATM   32  C8  UNL     1     -10.098 -14.056   7.416  1.00  0.00    -0.077 C 
BRANCH  32  33
HETATM   33  C9  UNL     1      -9.999 -15.056   8.443  1.00  0.00     0.079 C 
HETATM   34  C10 UNL     1      -9.027 -15.060   9.335  1.00  0.00     0.109 C 
HETATM   35  N4  UNL     1      -8.943 -16.048  10.338  1.00  0.00    -0.115 NA
ENDBRANCH  32  33
ENDBRANCH  30  31
ENDBRANCH  29  30
ENDBRANCH  27  29
ENDBRANCH   7  27
TORSDOF 10
ENDMDL
MODEL 4
REMARK VINA RESULT: -7.432562675      2.568      6.112
REMARK  10 active torsions:
REMARK  status: ('A' for Active; 'I' for Inactive)
REMARK    1  A    between atoms: C4_7  and  N3_8 
REMARK    2  A    between atoms: N3_8  and  C5_10 
REMARK    3  A    between atoms: C5_10  and  C6_11 
REMARK    4  A    between atoms: C6_11  and  C7_12 
REMARK    5  A    between atoms: C8_13  and  C9_14 
REMARK    6  A    between atoms: C11_19  and  N6_20 
REMARK    7  A    between atoms: N6_20  and  C12_22 
REMARK    8  A    between atoms: C12_22  and  C13_23 
REMARK    9  A    between atoms: C13_23  and  C14_24 
REMARK   10  A    between atoms: C16_28  and  N8_29 
ROOT
HETATM    1  C1  UNL     1     -10.884 -12.253   4.626  1.00  0.00     0.158 C 
HETATM    2  N1  UNL     1     -10.164 -11.933   5.840  1.00  0.00    -0.331 N 
HETATM    3  C2  UNL     1      -9.707 -10.710   6.153  1.00  0.00     0.184 A 
HETATM    4  N2  UNL     1      -9.079 -10.766   7.362  1.00  0.00    -0.346 N 
ATOM      5  H2  UNL     1      -8.639  -9.978   7.839  1.00  0.00     0.167 HD
HETATM    6  C3  UNL     1      -9.136 -12.026   7.823  1.00  0.00     0.123 A 
HETATM    7  C4  UNL     1      -8.660 -12.612   8.984  1.00  0.00     0.147 A 
HETATM    8  N5  UNL     1      -8.896 -13.927   9.131  1.00  0.00    -0.175 N 
ATOM      9  H5  UNL     1      -8.560 -14.393   9.973  1.00  0.00     0.186 HD
HETATM   10  C11 UNL     1      -9.565 -14.662   8.198  1.00  0.00     0.681 A 
HETATM   11  N9  UNL     1     -10.012 -14.052   7.082  1.00  0.00    -0.174 N 
ATOM     12  H9  UNL     1     -10.513 -14.603   6.385  1.00  0.00     0.186 HD
HETATM   13  C17 UNL     1      -9.817 -12.740   6.859  1.00  0.00     0.154 A 
ENDROOT
BRANCH  10  14
HETATM   14  N6  UNL     1      -9.761 -15.921   8.396  1.00  0.00    -0.226 N 
ATOM     15  H6  UNL     1      -8.993 -16.585   8.296  1.00  0.00     0.177 HD
BRANCH  14  16
HETATM   16  C12 UNL     1     -11.065 -16.373   8.758  1.00  0.00     0.143 C 
BRANCH  16  17
HETATM   17  C13 UNL     1     -11.175 -16.747  10.223  1.00  0.00     0.068 C 
BRANCH  17  18
HETATM   18  C14 UNL     1     -12.635 -16.659  10.588  1.00  0.00     0.003 A 
HETATM   19  C15 UNL     1     -13.298 -17.257  11.626  1.00  0.00     0.105 A 
HETATM   20  N7  UNL     1     -14.574 -17.032  11.743  1.00  0.00    -0.346 N 
HETATM   21  C16 UNL     1     -15.171 -16.239  10.856  1.00  0.00     0.142 A 
ATOM     22  H7  UNL     1     -15.108 -17.455  12.503  1.00  0.00     0.167 HD
HETATM   23  S1  UNL     1     -13.889 -15.794   9.818  1.00  0.00    -0.058 SA
BRANCH  21  24
HETATM   24  N8  UNL     1     -16.442 -15.895  10.807  1.00  0.00    -0.380 N 
ATOM     25  H82 UNL     1     -17.264 -16.412  11.120  1.00  0.00     0.158 HD
ATOM     26  H81 UNL     1     -16.842 -15.032  10.440  1.00  0.00     0.158 HD
ENDBRANCH  21  24
ENDBRANCH  17  18
ENDBRANCH  16  17
ENDBRANCH  14  16
ENDBRANCH  10  14
BRANCH   7  27
HETATM   27  N3  UNL     1      -7.959 -11.873   9.974  1.00  0.00    -0.373 N 
ATOM     28  H3  UNL     1      -8.429 -11.580  10.831  1.00  0.00     0.161 HD
BRANCH  27  29
HETATM   29  C5  UNL     1      -6.581 -11.543   9.750  1.00  0.00     0.133 C 
BRANCH  29  30
HETATM   30  C6  UNL     1      -6.105 -10.381  10.560  1.00  0.00     0.114 C 
BRANCH  30  31
HETATM   31  C7  UNL     1      -5.044 -10.825  11.467  1.00  0.00    -0.100 C 
HETATM   32  C8  UNL     1      -4.180 -11.203  12.230  1.00  0.00    -0.077 C 
BRANCH  32  33
HETATM   33  C9  UNL     1      -3.171 -11.663  13.141  1.00  0.00     0.079 C 
HETATM   34  C10 UNL     1      -3.314 -11.589  14.450  1.00  0.00     0.109 C 
HETATM   35  N4  UNL     1      -2.313 -12.046  15.335  1.00  0.00    -0.115 NA
ENDBRANCH  32  33
ENDBRANCH  30  31
ENDBRANCH  29  30
ENDBRANCH  27  29
ENDBRANCH   7  27
TORSDOF 10
ENDMDL
MODEL 5
REMARK VINA RESULT: -7.422855086      4.012      6.110
REMARK  10 active torsions:
REMARK  status: ('A' for Active; 'I' for Inactive)
REMARK    1  A    between atoms: C4_7  and  N3_8 
REMARK    2  A    between atoms: N3_8  and  C5_10 
REMARK    3  A    between atoms: C5_10  and  C6_11 
REMARK    4  A    between atoms: C6_11  and  C7_12 
REMARK    5  A    between atoms: C8_13  and  C9_14 
REMARK    6  A    between atoms: C11_19  and  N6_20 
REMARK    7  A    between atoms: N6_20  and  C12_22 
REMARK    8  A    between atoms: C12_22  and  C13_23 
REMARK    9  A    between atoms: C13_23  and  C14_24 
REMARK   10  A    between atoms: C16_28  and  N8_29 
ROOT
HETATM    1  C1  UNL     1      -5.177  -8.112  10.802  1.00  0.00     0.158 C 
HETATM    2  N1  UNL     1      -6.284  -8.854  10.237  1.00  0.00    -0.331 N 
HETATM    3  C2  UNL     1      -7.554  -8.764  10.661  1.00  0.00     0.184 A 
HETATM    4  N2  UNL     1      -8.334  -9.595   9.911  1.00  0.00    -0.346 N 
ATOM      5  H2  UNL     1      -9.340  -9.723  10.020  1.00  0.00     0.167 HD
HETATM    6  C3  UNL     1      -7.560 -10.217   9.007  1.00  0.00     0.123 A 
HETATM    7  C4  UNL     1      -7.848 -11.147   8.022  1.00  0.00     0.147 A 
HETATM    8  N5  UNL     1      -6.812 -11.571   7.278  1.00  0.00    -0.175 N 
ATOM      9  H5  UNL     1      -6.985 -12.256   6.543  1.00  0.00     0.186 HD
HETATM   10  C11 UNL     1      -5.539 -11.122   7.468  1.00  0.00     0.681 A 
HETATM   11  N9  UNL     1      -5.302 -10.216   8.439  1.00  0.00    -0.174 N 
ATOM     12  H9  UNL     1      -4.349  -9.881   8.580  1.00  0.00     0.186 HD
HETATM   13  C17 UNL     1      -6.283  -9.742   9.227  1.00  0.00     0.154 A 
ENDROOT
BRANCH  10  14
HETATM   14  N6  UNL     1      -4.586 -11.566   6.722  1.00  0.00    -0.226 N 
ATOM     15  H6  UNL     1      -4.537 -11.306   5.736  1.00  0.00     0.177 HD
BRANCH  14  16
HETATM   16  C12 UNL     1      -3.601 -12.427   7.291  1.00  0.00     0.143 C 
BRANCH  16  17
HETATM   17  C13 UNL     1      -3.405 -13.705   6.500  1.00  0.00     0.068 C 
BRANCH  17  18
HETATM   18  C14 UNL     1      -4.521 -14.639   6.895  1.00  0.00     0.003 A 
HETATM   19  C15 UNL     1      -5.170 -15.572   6.131  1.00  0.00     0.105 A 
HETATM   20  N7  UNL     1      -6.112 -16.270   6.694  1.00  0.00    -0.346 N 
HETATM   21  C16 UNL     1      -6.401 -16.046   7.974  1.00  0.00     0.142 A 
ATOM     22  H7  UNL     1      -6.621 -16.978   6.164  1.00  0.00     0.167 HD
HETATM   23  S1  UNL     1      -5.305 -14.807   8.402  1.00  0.00    -0.058 SA
BRANCH  21  24
HETATM   24  N8  UNL     1      -7.314 -16.644   8.713  1.00  0.00    -0.380 N 
ATOM     25  H82 UNL     1      -7.257 -17.528   9.220  1.00  0.00     0.158 HD
ATOM     26  H81 UNL     1      -8.260 -16.324   8.918  1.00  0.00     0.158 HD
ENDBRANCH  21  24
ENDBRANCH  17  18
ENDBRANCH  16  17
ENDBRANCH  14  16
ENDBRANCH  10  14
BRANCH   7  27
HETATM   27  N3  UNL     1      -9.164 -11.633   7.800  1.00  0.00    -0.373 N 
ATOM     28  H3  UNL     1      -9.877 -11.029   7.392  1.00  0.00     0.161 HD
BRANCH  27  29
HETATM   29  C5  UNL     1      -9.474 -12.987   8.159  1.00  0.00     0.133 C 
BRANCH  29  30
HETATM   30  C6  UNL     1      -9.847 -13.844   6.993  1.00  0.00     0.114 C 
BRANCH  30  31
HETATM   31  C7  UNL     1     -10.370 -12.999   5.918  1.00  0.00    -0.100 C 
HETATM   32  C8  UNL     1     -10.814 -12.288   5.041  1.00  0.00    -0.077 C 
BRANCH  32  33
HETATM   33  C9  UNL     1     -11.346 -11.433   4.018  1.00  0.00     0.079 C 
HETATM   34  C10 UNL     1     -12.339 -11.803   3.233  1.00  0.00     0.109 C 
HETATM   35  N4  UNL     1     -12.852 -10.952   2.231  1.00  0.00    -0.115 NA
ENDBRANCH  32  33
ENDBRANCH  30  31
ENDBRANCH  29  30
ENDBRANCH  27  29
ENDBRANCH   7  27
TORSDOF 10
ENDMDL
