MODEL 1
REMARK VINA RESULT: -7.152030921      0.000      0.000
REMARK  10 active torsions:
REMARK  status: ('A' for Active; 'I' for Inactive)
REMARK    1  A    between atoms: N3_10  and  C6_11 
REMARK    2  A    between atoms: C7_15  and  C9_17 
REMARK    3  A    between atoms: C9_17  and  O1_18 
REMARK    4  A    between atoms: C9_17  and  C10_20 
REMARK    5  A    between atoms: C10_20  and  N5_21 
REMARK    6  A    between atoms: C15_30  and  N7_31 
REMARK    7  A    between atoms: N7_31  and  C16_33 
REMARK    8  A    between atoms: C16_33  and  C17_34 
REMARK    9  A    between atoms: C17_34  and  C18_35 
REMARK   10  A    between atoms: C18_35  and  N8_36 
ROOT
HETATM    1  C1  UNL     1     -10.447 -13.286   4.916  1.00  0.00     0.089 C 
HETATM    2  C2  UNL     1     -10.208 -13.748   6.316  1.00  0.00     0.080 A 
HETATM    3  N1  UNL     1      -9.250 -13.224   7.102  1.00  0.00    -0.330 N 
ATOM      4  H1  UNL     1      -8.676 -12.481   6.703  1.00  0.00     0.168 HD
HETATM    5  C3  UNL     1      -8.987 -13.588   8.349  1.00  0.00     0.142 A 
HETATM    6  C4  UNL     1      -9.779 -14.602   8.879  1.00  0.00     0.122 A 
HETATM    7  N2  UNL     1      -9.343 -14.800  10.125  1.00  0.00    -0.346 N 
ATOM      8  H2  UNL     1      -9.717 -15.481  10.785  1.00  0.00     0.167 HD
HETATM    9  C5  UNL     1      -8.343 -13.967  10.360  1.00  0.00     0.187 A 
HETATM   10  N3  UNL     1      -8.090 -13.187   9.265  1.00  0.00    -0.295 N 
HETATM   11  C15 UNL     1     -10.770 -15.164   8.106  1.00  0.00     0.133 A 
HETATM   12  N9  UNL     1     -10.960 -14.723   6.847  1.00  0.00    -0.331 N 
ATOM     13  H9  UNL     1     -11.696 -15.144   6.280  1.00  0.00     0.168 HD
ENDROOT
BRANCH  10  14
HETATM   14  C6  UNL     1      -7.082 -12.199   9.205  1.00  0.00     0.334 C 
HETATM   15  N4  UNL     1      -5.887 -12.421   9.926  1.00  0.00    -0.011 N 
HETATM   16  C7  UNL     1      -5.216 -11.104   9.933  1.00  0.00     0.346 C 
ATOM     17  H42 UNL     1      -6.027 -12.823  10.852  1.00  0.00     0.283 HD
ATOM     18  H41 UNL     1      -5.313 -13.180   9.559  1.00  0.00     0.283 HD
HETATM   19  C8  UNL     1      -4.580 -10.977  11.291  1.00  0.00     0.085 C 
HETATM   20  N6  UNL     1      -6.204 -10.166   9.628  1.00  0.00     0.136 N 
HETATM   21  C11 UNL     1      -6.199  -8.922  10.300  1.00  0.00     0.314 C 
HETATM   22  C12 UNL     1      -7.498 -10.818   9.585  1.00  0.00     0.201 C 
HETATM   23  C13 UNL     1      -8.261 -10.727  10.862  1.00  0.00     0.053 C 
HETATM   24  C14 UNL     1      -8.378 -10.187   8.495  1.00  0.00     0.053 C 
BRANCH  16  25
HETATM   25  C9  UNL     1      -4.083 -11.248   8.949  1.00  0.00     0.210 C 
BRANCH  25  26
HETATM   26  O1  UNL     1      -3.760 -12.538   8.617  1.00  0.00    -0.389 OA
ATOM     27  H1  UNL     1      -2.960 -12.638   8.113  1.00  0.00     0.210 HD
ENDBRANCH  25  26
BRANCH  25  28
HETATM   28  C10 UNL     1      -4.232 -10.436   7.700  1.00  0.00     0.265 C 
BRANCH  28  29
HETATM   29  N5  UNL     1      -4.908 -11.152   6.642  1.00  0.00    -0.077 N 
ATOM     30  H53 UNL     1      -4.269 -11.786   6.164  1.00  0.00     0.274 HD
ATOM     31  H52 UNL     1      -5.564 -11.833   7.025  1.00  0.00     0.274 HD
ATOM     32  H51 UNL     1      -5.372 -10.532   5.979  1.00  0.00     0.274 HD
ENDBRANCH  28  29
ENDBRANCH  25  28
ENDBRANCH  16  25
ENDBRANCH  10  14
BRANCH  11  33
HETATM   33  N7  UNL     1     -11.476 -16.087   8.622  1.00  0.00    -0.374 N 
ATOM     34  H7  UNL     1     -11.525 -16.965   8.105  1.00  0.00     0.161 HD
BRANCH  33  35
HETATM   35  C16 UNL     1     -12.208 -16.028   9.846  1.00  0.00     0.123 C 
BRANCH  35  36
HETATM   36  C17 UNL     1     -13.662 -15.670   9.654  1.00  0.00     0.047 C 
BRANCH  36  37
HETATM   37  C18 UNL     1     -14.551 -16.407  10.632  1.00  0.00     0.231 C 
BRANCH  37  38
HETATM   38  N8  UNL     1     -13.754 -16.858  11.753  1.00  0.00    -0.079 N 
ATOM     39  H83 UNL     1     -13.400 -17.806  11.620  1.00  0.00     0.274 HD
ATOM     40  H82 UNL     1     -12.857 -16.376  11.808  1.00  0.00     0.274 HD
ATOM     41  H81 UNL     1     -14.298 -16.765  12.611  1.00  0.00     0.274 HD
ENDBRANCH  37  38
ENDBRANCH  36  37
ENDBRANCH  35  36
ENDBRANCH  33  35
ENDBRANCH  11  33
TORSDOF 10
ENDMDL
MODEL 2
REMARK VINA RESULT: -7.128399874      1.838      2.899
REMARK  10 active torsions:
REMARK  status: ('A' for Active; 'I' for Inactive)
REMARK    1  A    between atoms: N3_10  and  C6_11 
REMARK    2  A    between atoms: C7_15  and  C9_17 
REMARK    3  A    between atoms: C9_17  and  O1_18 
REMARK    4  A    between atoms: C9_17  and  C10_20 
REMARK    5  A    between atoms: C10_20  and  N5_21 
REMARK    6  A    between atoms: C15_30  and  N7_31 
REMARK    7  A    between atoms: N7_31  and  C16_33 
REMARK    8  A    between atoms: C16_33  and  C17_34 
REMARK    9  A    between atoms: C17_34  and  C18_35 
REMARK   10  A    between atoms: C18_35  and  N8_36 
ROOT
HETATM    1  C1  UNL     1      -7.104 -17.603   8.631  1.00  0.00     0.089 C 
HETATM    2  C2  UNL     1      -7.961 -16.396   8.842  1.00  0.00     0.080 A 
HETATM    3  N1  UNL     1      -7.451 -15.179   9.101  1.00  0.00    -0.330 N 
ATOM      4  H1  UNL     1      -6.435 -15.100   9.150  1.00  0.00     0.168 HD
HETATM    5  C3  UNL     1      -8.154 -14.072   9.297  1.00  0.00     0.142 A 
HETATM    6  C4  UNL     1      -9.538 -14.195   9.226  1.00  0.00     0.122 A 
HETATM    7  N2  UNL     1     -10.030 -12.976   9.452  1.00  0.00    -0.346 N 
ATOM      8  H2  UNL     1     -11.020 -12.727   9.468  1.00  0.00     0.167 HD
HETATM    9  C5  UNL     1      -9.023 -12.143   9.652  1.00  0.00     0.187 A 
HETATM   10  N3  UNL     1      -7.824 -12.797   9.562  1.00  0.00    -0.295 N 
HETATM   11  C15 UNL     1     -10.097 -15.426   8.963  1.00  0.00     0.133 A 
HETATM   12  N9  UNL     1      -9.296 -16.493   8.778  1.00  0.00    -0.331 N 
ATOM     13  H9  UNL     1      -9.718 -17.401   8.583  1.00  0.00     0.168 HD
ENDROOT
BRANCH  10  14
HETATM   14  C6  UNL     1      -6.565 -12.179   9.727  1.00  0.00     0.334 C 
HETATM   15  N4  UNL     1      -6.458 -11.118  10.654  1.00  0.00    -0.011 N 
HETATM   16  C7  UNL     1      -5.155 -10.494  10.344  1.00  0.00     0.346 C 
ATOM     17  H42 UNL     1      -7.245 -10.470  10.639  1.00  0.00     0.283 HD
ATOM     18  H41 UNL     1      -6.565 -11.402  11.628  1.00  0.00     0.283 HD
HETATM   19  C8  UNL     1      -5.359  -9.013  10.519  1.00  0.00     0.085 C 
HETATM   20  N6  UNL     1      -4.818 -10.920   9.059  1.00  0.00     0.136 N 
HETATM   21  C11 UNL     1      -4.203 -10.006   8.173  1.00  0.00     0.314 C 
HETATM   22  C12 UNL     1      -5.926 -11.656   8.484  1.00  0.00     0.201 C 
HETATM   23  C13 UNL     1      -6.820 -10.828   7.626  1.00  0.00     0.053 C 
HETATM   24  C14 UNL     1      -5.406 -12.805   7.605  1.00  0.00     0.053 C 
BRANCH  16  25
HETATM   25  C9  UNL     1      -4.247 -10.929  11.468  1.00  0.00     0.210 C 
BRANCH  25  26
HETATM   26  O1  UNL     1      -3.400 -11.964  11.165  1.00  0.00    -0.389 OA
ATOM     27  H1  UNL     1      -2.495 -11.714  11.014  1.00  0.00     0.210 HD
ENDBRANCH  25  26
BRANCH  25  28
HETATM   28  C10 UNL     1      -3.470  -9.822  12.109  1.00  0.00     0.265 C 
BRANCH  28  29
HETATM   29  N5  UNL     1      -3.437  -9.920  13.550  1.00  0.00    -0.077 N 
ATOM     30  H53 UNL     1      -4.258 -10.413  13.901  1.00  0.00     0.274 HD
ATOM     31  H52 UNL     1      -2.711 -10.568  13.854  1.00  0.00     0.274 HD
ATOM     32  H51 UNL     1      -3.334  -9.014  14.006  1.00  0.00     0.274 HD
ENDBRANCH  28  29
ENDBRANCH  25  28
ENDBRANCH  16  25
ENDBRANCH  10  14
BRANCH  11  33
HETATM   33  N7  UNL     1     -11.365 -15.503   8.904  1.00  0.00    -0.374 N 
ATOM     34  H7  UNL     1     -11.802 -15.153   8.052  1.00  0.00     0.161 HD
BRANCH  33  35
HETATM   35  C16 UNL     1     -12.242 -16.026   9.901  1.00  0.00     0.123 C 
BRANCH  35  36
HETATM   36  C17 UNL     1     -13.688 -15.655   9.676  1.00  0.00     0.047 C 
BRANCH  36  37
HETATM   37  C18 UNL     1     -14.610 -16.419  10.602  1.00  0.00     0.231 C 
BRANCH  37  38
HETATM   38  N8  UNL     1     -13.876 -16.813  11.786  1.00  0.00    -0.079 N 
ATOM     39  H83 UNL     1     -13.282 -17.626  11.620  1.00  0.00     0.274 HD
ATOM     40  H82 UNL     1     -13.143 -16.146  12.026  1.00  0.00     0.274 HD
ATOM     41  H81 UNL     1     -14.531 -16.962  12.553  1.00  0.00     0.274 HD
ENDBRANCH  37  38
ENDBRANCH  36  37
ENDBRANCH  35  36
ENDBRANCH  33  35
ENDBRANCH  11  33
TORSDOF 10
ENDMDL
MODEL 3
REMARK VINA RESULT: -6.895654337      2.861      4.152
REMARK  10 active torsions:
REMARK  status: ('A' for Active; 'I' for Inactive)
REMARK    1  A    between atoms: N3_10  and  C6_11 
REMARK    2  A    between atoms: C7_15  and  C9_17 
REMARK    3  A    between atoms: C9_17  and  O1_18 
REMARK    4  A    between atoms: C9_17  and  C10_20 
REMARK    5  A    between atoms: C10_20  and  N5_21 
REMARK    6  A    between atoms: C15_30  and  N7_31 
REMARK    7  A    between atoms: N7_31  and  C16_33 
REMARK    8  A    between atoms: C16_33  and  C17_34 
REMARK    9  A    between atoms: C17_34  and  C18_35 
REMARK   10  A    between atoms: C18_35  and  N8_36 
ROOT
HETATM    1  C1  UNL     1     -12.636 -15.980  10.147  1.00  0.00     0.089 C 
HETATM    2  C2  UNL     1     -11.244 -16.386   9.785  1.00  0.00     0.080 A 
HETATM    3  N1  UNL     1     -10.246 -15.498   9.621  1.00  0.00    -0.330 N 
ATOM      4  H1  UNL     1     -10.473 -14.513   9.754  1.00  0.00     0.168 HD
HETATM    5  C3  UNL     1      -8.994 -15.793   9.301  1.00  0.00     0.142 A 
HETATM    6  C4  UNL     1      -8.700 -17.141   9.123  1.00  0.00     0.122 A 
HETATM    7  N2  UNL     1      -7.403 -17.200   8.811  1.00  0.00    -0.346 N 
ATOM      8  H2  UNL     1      -6.876 -18.051   8.618  1.00  0.00     0.167 HD
HETATM    9  C5  UNL     1      -6.917 -15.970   8.795  1.00  0.00     0.187 A 
HETATM   10  N3  UNL     1      -7.889 -15.056   9.098  1.00  0.00    -0.295 N 
HETATM   11  C15 UNL     1      -9.694 -18.080   9.282  1.00  0.00     0.133 A 
HETATM   12  N9  UNL     1     -10.939 -17.680   9.609  1.00  0.00    -0.331 N 
ATOM     13  H9  UNL     1     -11.670 -18.381   9.726  1.00  0.00     0.168 HD
ENDROOT
BRANCH  10  14
HETATM   14  C6  UNL     1      -7.680 -13.661   9.161  1.00  0.00     0.334 C 
HETATM   15  N4  UNL     1      -8.693 -12.860   9.734  1.00  0.00    -0.011 N 
HETATM   16  C7  UNL     1      -8.331 -11.481   9.347  1.00  0.00     0.346 C 
ATOM     17  H42 UNL     1      -9.640 -13.132   9.471  1.00  0.00     0.283 HD
ATOM     18  H41 UNL     1      -8.815 -12.994  10.739  1.00  0.00     0.283 HD
HETATM   19  C8  UNL     1      -9.632 -10.782   9.057  1.00  0.00     0.085 C 
HETATM   20  N6  UNL     1      -7.446 -11.601   8.276  1.00  0.00     0.136 N 
HETATM   21  C11 UNL     1      -7.539 -10.684   7.203  1.00  0.00     0.314 C 
HETATM   22  C12 UNL     1      -7.359 -12.989   7.868  1.00  0.00     0.201 C 
HETATM   23  C13 UNL     1      -8.266 -13.345   6.741  1.00  0.00     0.053 C 
HETATM   24  C14 UNL     1      -5.931 -13.325   7.412  1.00  0.00     0.053 C 
BRANCH  16  25
HETATM   25  C9  UNL     1      -7.792 -10.859  10.611  1.00  0.00     0.210 C 
BRANCH  25  26
HETATM   26  O1  UNL     1      -8.290 -11.384  11.777  1.00  0.00    -0.389 OA
ATOM     27  H1  UNL     1      -9.000 -12.006  11.669  1.00  0.00     0.210 HD
ENDBRANCH  25  26
BRANCH  25  28
HETATM   28  C10 UNL     1      -6.299 -10.798  10.692  1.00  0.00     0.265 C 
BRANCH  28  29
HETATM   29  N5  UNL     1      -5.809  -9.495  11.078  1.00  0.00    -0.077 N 
ATOM     30  H53 UNL     1      -6.099  -9.264  12.028  1.00  0.00     0.274 HD
ATOM     31  H52 UNL     1      -4.798  -9.511  11.211  1.00  0.00     0.274 HD
ATOM     32  H51 UNL     1      -6.081  -8.761  10.425  1.00  0.00     0.274 HD
ENDBRANCH  28  29
ENDBRANCH  25  28
ENDBRANCH  16  25
ENDBRANCH  10  14
BRANCH  11  33
HETATM   33  N7  UNL     1      -9.391 -19.303   9.113  1.00  0.00    -0.374 N 
ATOM     34  H7  UNL     1      -9.084 -19.570   8.178  1.00  0.00     0.161 HD
BRANCH  33  35
HETATM   35  C16 UNL     1      -9.434 -20.342  10.090  1.00  0.00     0.123 C 
BRANCH  35  36
HETATM   36  C17 UNL     1      -9.068 -19.871  11.477  1.00  0.00     0.047 C 
BRANCH  36  37
HETATM   37  C18 UNL     1     -10.055 -20.367  12.513  1.00  0.00     0.231 C 
BRANCH  37  38
HETATM   38  N8  UNL     1     -11.363 -20.486  11.905  1.00  0.00    -0.079 N 
ATOM     39  H83 UNL     1     -12.084 -20.733  12.583  1.00  0.00     0.274 HD
ATOM     40  H82 UNL     1     -11.739 -19.583  11.616  1.00  0.00     0.274 HD
ATOM     41  H81 UNL     1     -11.314 -21.151  11.133  1.00  0.00     0.274 HD
ENDBRANCH  37  38
ENDBRANCH  36  37
ENDBRANCH  35  36
ENDBRANCH  33  35
ENDBRANCH  11  33
TORSDOF 10
ENDMDL
MODEL 4
REMARK VINA RESULT: -6.862535258      1.290      1.337
REMARK  10 active torsions:
REMARK  status: ('A' for Active; 'I' for Inactive)
REMARK    1  A    between atoms: N3_10  and  C6_11 
REMARK    2  A    between atoms: C7_15  and  C9_17 
REMARK    3  A    between atoms: C9_17  and  O1_18 
REMARK    4  A    between atoms: C9_17  and  C10_20 
REMARK    5  A    between atoms: C10_20  and  N5_21 
REMARK    6  A    between atoms: C15_30  and  N7_31 
REMARK    7  A    between atoms: N7_31  and  C16_33 
REMARK    8  A    between atoms: C16_33  and  C17_34 
REMARK    9  A    between atoms: C17_34  and  C18_35 
REMARK   10  A    between atoms: C18_35  and  N8_36 
ROOT
HETATM    1  C1  UNL     1     -10.738 -12.303   4.902  1.00  0.00     0.089 C 
HETATM    2  C2  UNL     1     -10.194 -13.055   6.073  1.00  0.00     0.080 A 
HETATM    3  N1  UNL     1      -9.086 -12.672   6.733  1.00  0.00    -0.330 N 
ATOM      4  H1  UNL     1      -8.615 -11.830   6.402  1.00  0.00     0.168 HD
HETATM    5  C3  UNL     1      -8.554 -13.293   7.777  1.00  0.00     0.142 A 
HETATM    6  C4  UNL     1      -9.209 -14.438   8.217  1.00  0.00     0.122 A 
HETATM    7  N2  UNL     1      -8.508 -14.888   9.260  1.00  0.00    -0.346 N 
ATOM      8  H2  UNL     1      -8.727 -15.718   9.810  1.00  0.00     0.167 HD
HETATM    9  C5  UNL     1      -7.481 -14.079   9.460  1.00  0.00     0.187 A 
HETATM   10  N3  UNL     1      -7.477 -13.062   8.545  1.00  0.00    -0.295 N 
HETATM   11  C15 UNL     1     -10.347 -14.862   7.568  1.00  0.00     0.133 A 
HETATM   12  N9  UNL     1     -10.810 -14.161   6.514  1.00  0.00    -0.331 N 
ATOM     13  H9  UNL     1     -11.654 -14.481   6.038  1.00  0.00     0.168 HD
ENDROOT
BRANCH  10  14
HETATM   14  C6  UNL     1      -6.507 -12.036   8.498  1.00  0.00     0.334 C 
HETATM   15  N4  UNL     1      -5.183 -12.352   8.875  1.00  0.00    -0.011 N 
HETATM   16  C7  UNL     1      -4.527 -11.037   9.040  1.00  0.00     0.346 C 
ATOM     17  H42 UNL     1      -5.114 -12.958   9.692  1.00  0.00     0.283 HD
ATOM     18  H41 UNL     1      -4.703 -12.980   8.230  1.00  0.00     0.283 HD
HETATM   19  C8  UNL     1      -3.606 -11.186  10.222  1.00  0.00     0.085 C 
HETATM   20  N6  UNL     1      -5.557 -10.107   9.177  1.00  0.00     0.136 N 
HETATM   21  C11 UNL     1      -5.405  -9.046  10.100  1.00  0.00     0.314 C 
HETATM   22  C12 UNL     1      -6.829 -10.797   9.266  1.00  0.00     0.201 C 
HETATM   23  C13 UNL     1      -7.292 -11.033  10.662  1.00  0.00     0.053 C 
HETATM   24  C14 UNL     1      -7.929  -9.984   8.564  1.00  0.00     0.053 C 
BRANCH  16  25
HETATM   25  C9  UNL     1      -3.639 -10.899   7.829  1.00  0.00     0.210 C 
BRANCH  25  26
HETATM   26  O1  UNL     1      -3.425  -9.612   7.407  1.00  0.00    -0.389 OA
ATOM     27  H1  UNL     1      -2.575  -9.250   7.629  1.00  0.00     0.210 HD
ENDBRANCH  25  26
BRANCH  25  28
HETATM   28  C10 UNL     1      -2.327 -11.613   7.931  1.00  0.00     0.265 C 
BRANCH  28  29
HETATM   29  N5  UNL     1      -2.156 -12.622   6.912  1.00  0.00    -0.077 N 
ATOM     30  H53 UNL     1      -2.246 -13.559   7.306  1.00  0.00     0.274 HD
ATOM     31  H52 UNL     1      -2.951 -12.633   6.273  1.00  0.00     0.274 HD
ATOM     32  H51 UNL     1      -1.279 -12.525   6.401  1.00  0.00     0.274 HD
ENDBRANCH  28  29
ENDBRANCH  25  28
ENDBRANCH  16  25
ENDBRANCH  10  14
BRANCH  11  33
HETATM   33  N7  UNL     1     -10.921 -15.912   7.997  1.00  0.00    -0.374 N 
ATOM     34  H7  UNL     1     -11.110 -16.641   7.308  1.00  0.00     0.161 HD
BRANCH  33  35
HETATM   35  C16 UNL     1     -11.329 -16.182   9.337  1.00  0.00     0.123 C 
BRANCH  35  36
HETATM   36  C17 UNL     1     -12.802 -15.944   9.571  1.00  0.00     0.047 C 
BRANCH  36  37
HETATM   37  C18 UNL     1     -13.235 -16.427  10.938  1.00  0.00     0.231 C 
BRANCH  37  38
HETATM   38  N8  UNL     1     -14.678 -16.370  11.028  1.00  0.00    -0.079 N 
ATOM     39  H83 UNL     1     -14.998 -16.055  11.944  1.00  0.00     0.274 HD
ATOM     40  H82 UNL     1     -15.071 -15.612  10.470  1.00  0.00     0.274 HD
ATOM     41  H81 UNL     1     -15.066 -17.279  10.774  1.00  0.00     0.274 HD
ENDBRANCH  37  38
ENDBRANCH  36  37
ENDBRANCH  35  36
ENDBRANCH  33  35
ENDBRANCH  11  33
TORSDOF 10
ENDMDL
MODEL 5
REMARK VINA RESULT: -6.841921073      3.323      5.282
REMARK  10 active torsions:
REMARK  status: ('A' for Active; 'I' for Inactive)
REMARK    1  A    between atoms: N3_10  and  C6_11 
REMARK    2  A    between atoms: C7_15  and  C9_17 
REMARK    3  A    between atoms: C9_17  and  O1_18 
REMARK    4  A    between atoms: C9_17  and  C10_20 
REMARK    5  A    between atoms: C10_20  and  N5_21 
REMARK    6  A    between atoms: C15_30  and  N7_31 
REMARK    7  A    between atoms: N7_31  and  C16_33 
REMARK    8  A    between atoms: C16_33  and  C17_34 
REMARK    9  A    between atoms: C17_34  and  C18_35 
REMARK   10  A    between atoms: C18_35  and  N8_36 
ROOT
HETATM    1  C1  UNL     1      -7.868  -8.533  10.792  1.00  0.00     0.089 C 
HETATM    2  C2  UNL     1      -7.674  -9.667   9.838  1.00  0.00     0.080 A 
HETATM    3  N1  UNL     1      -6.513 -10.338   9.733  1.00  0.00    -0.330 N 
ATOM      4  H1  UNL     1      -5.748 -10.044  10.340  1.00  0.00     0.168 HD
HETATM    5  C3  UNL     1      -6.277 -11.350   8.908  1.00  0.00     0.142 A 
HETATM    6  C4  UNL     1      -7.329 -11.740   8.087  1.00  0.00     0.122 A 
HETATM    7  N2  UNL     1      -6.871 -12.757   7.355  1.00  0.00    -0.346 N 
ATOM      8  H2  UNL     1      -7.402 -13.270   6.651  1.00  0.00     0.167 HD
HETATM    9  C5  UNL     1      -5.615 -12.990   7.694  1.00  0.00     0.187 A 
HETATM   10  N3  UNL     1      -5.205 -12.123   8.670  1.00  0.00    -0.295 N 
HETATM   11  C15 UNL     1      -8.534 -11.076   8.165  1.00  0.00     0.133 A 
HETATM   12  N9  UNL     1      -8.675 -10.059   9.037  1.00  0.00    -0.331 N 
ATOM     13  H9  UNL     1      -9.571  -9.572   9.090  1.00  0.00     0.168 HD
ENDROOT
BRANCH  10  14
HETATM   14  C6  UNL     1      -3.913 -12.120   9.242  1.00  0.00     0.334 C 
HETATM   15  N4  UNL     1      -3.760 -11.584  10.541  1.00  0.00    -0.011 N 
HETATM   16  C7  UNL     1      -2.300 -11.419  10.698  1.00  0.00     0.346 C 
ATOM     17  H42 UNL     1      -4.296 -10.733  10.707  1.00  0.00     0.283 HD
ATOM     18  H41 UNL     1      -4.200 -12.138  11.277  1.00  0.00     0.283 HD
HETATM   19  C8  UNL     1      -2.113 -10.138  11.466  1.00  0.00     0.085 C 
HETATM   20  N6  UNL     1      -1.768 -11.446   9.409  1.00  0.00     0.136 N 
HETATM   21  C11 UNL     1      -0.705 -10.571   9.087  1.00  0.00     0.314 C 
HETATM   22  C12 UNL     1      -2.844 -11.460   8.438  1.00  0.00     0.201 C 
HETATM   23  C13 UNL     1      -3.202 -10.112   7.914  1.00  0.00     0.053 C 
HETATM   24  C14 UNL     1      -2.458 -12.320   7.224  1.00  0.00     0.053 C 
BRANCH  16  25
HETATM   25  C9  UNL     1      -1.889 -12.532  11.630  1.00  0.00     0.210 C 
BRANCH  25  26
HETATM   26  O1  UNL     1      -0.646 -12.392  12.192  1.00  0.00    -0.389 OA
ATOM     27  H1  UNL     1      -0.322 -13.157  12.653  1.00  0.00     0.210 HD
ENDBRANCH  25  26
BRANCH  25  28
HETATM   28  C10 UNL     1      -2.885 -12.851  12.700  1.00  0.00     0.265 C 
BRANCH  28  29
HETATM   29  N5  UNL     1      -2.781 -14.211  13.177  1.00  0.00    -0.077 N 
ATOM     30  H53 UNL     1      -2.724 -14.867  12.398  1.00  0.00     0.274 HD
ATOM     31  H52 UNL     1      -1.870 -14.379  13.603  1.00  0.00     0.274 HD
ATOM     32  H51 UNL     1      -3.535 -14.466  13.814  1.00  0.00     0.274 HD
ENDBRANCH  28  29
ENDBRANCH  25  28
ENDBRANCH  16  25
ENDBRANCH  10  14
BRANCH  11  33
HETATM   33  N7  UNL     1      -9.475 -11.459   7.401  1.00  0.00    -0.374 N 
ATOM     34  H7  UNL     1     -10.103 -12.171   7.775  1.00  0.00     0.161 HD
BRANCH  33  35
HETATM   35  C16 UNL     1      -9.748 -11.000   6.078  1.00  0.00     0.123 C 
BRANCH  35  36
HETATM   36  C17 UNL     1     -10.476 -12.019   5.233  1.00  0.00     0.047 C 
BRANCH  36  37
HETATM   37  C18 UNL     1      -9.878 -13.401   5.389  1.00  0.00     0.231 C 
BRANCH  37  38
HETATM   38  N8  UNL     1     -10.893 -14.305   5.887  1.00  0.00    -0.079 N 
ATOM     39  H83 UNL     1     -11.149 -14.104   6.854  1.00  0.00     0.274 HD
ATOM     40  H82 UNL     1     -11.803 -14.138   5.460  1.00  0.00     0.274 HD
ATOM     41  H81 UNL     1     -10.576 -15.267   5.762  1.00  0.00     0.274 HD
ENDBRANCH  37  38
ENDBRANCH  36  37
ENDBRANCH  35  36
ENDBRANCH  33  35
ENDBRANCH  11  33
TORSDOF 10
ENDMDL
