MODEL 1
REMARK VINA RESULT: -7.476622562      0.000      0.000
REMARK  8 active torsions:
REMARK  status: ('A' for Active; 'I' for Inactive)
REMARK    1  A    between atoms: C4_4  and  C5_5 
REMARK    2  A    between atoms: C5_5  and  N1_6 
REMARK    3  A    between atoms: C6_9  and  N3_10 
REMARK    4  A    between atoms: C9_18  and  N5_19 
REMARK    5  A    between atoms: C10_22  and  N6_23 
REMARK    6  A    between atoms: N6_23  and  C11_25 
REMARK    7  A    between atoms: C11_25  and  C12_26 
REMARK    8  A    between atoms: C12_26  and  N7_27 
ROOT
HETATM    1  C1  UNL     1      -4.374 -13.097   7.016  1.00  0.00     0.048 C 
HETATM    2  C2  UNL     1      -5.677 -13.315   7.711  1.00  0.00     0.252 C 
HETATM    3  C3  UNL     1      -6.215 -12.131   8.423  1.00  0.00    -0.009 A 
HETATM    4  C4  UNL     1      -7.339 -11.498   8.025  1.00  0.00    -0.027 A 
HETATM    5  C8  UNL     1      -7.794 -10.408   8.827  1.00  0.00     0.048 A 
HETATM    6  C9  UNL     1      -7.110 -10.031   9.949  1.00  0.00     0.130 A 
HETATM    7  C10 UNL     1      -5.975 -10.675  10.339  1.00  0.00     0.068 A 
HETATM    8  C13 UNL     1      -5.525 -11.727   9.579  1.00  0.00    -0.018 A 
HETATM    9  C14 UNL     1      -4.306 -12.427  10.009  1.00  0.00     0.072 C 
HETATM   10  C15 UNL     1      -4.218 -13.813   9.490  1.00  0.00     0.277 C 
HETATM   11  N8  UNL     1      -5.391 -14.252   8.813  1.00  0.00     0.093 N 
HETATM   12  C16 UNL     1      -5.269 -15.604   8.312  1.00  0.00     0.310 C 
ENDROOT
BRANCH   4  13
HETATM   13  C5  UNL     1      -8.203 -11.761   6.875  1.00  0.00     0.194 C 
BRANCH  13  14
HETATM   14  N1  UNL     1      -9.100 -12.881   6.999  1.00  0.00    -0.224 N 
HETATM   15  N2  UNL     1      -9.338 -13.513   8.180  1.00  0.00    -0.126 N 
HETATM   16  C6  UNL     1     -10.241 -14.462   7.985  1.00  0.00     0.694 A 
ATOM     17  H2  UNL     1      -8.892 -13.292   9.071  1.00  0.00     0.206 HD
HETATM   18  N4  UNL     1     -10.618 -14.484   6.700  1.00  0.00    -0.139 N 
HETATM   19  C7  UNL     1      -9.879 -13.484   6.129  1.00  0.00     0.356 A 
ATOM     20  H4  UNL     1     -11.296 -15.101   6.253  1.00  0.00     0.189 HD
HETATM   21  O1  UNL     1     -10.000 -13.244   4.882  1.00  0.00    -0.244 OA
BRANCH  16  22
HETATM   22  N3  UNL     1     -10.694 -15.255   8.911  1.00  0.00    -0.233 N 
ATOM     23  H32 UNL     1     -11.136 -14.949   9.778  1.00  0.00     0.174 HD
ATOM     24  H31 UNL     1     -10.657 -16.273   8.873  1.00  0.00     0.174 HD
ENDBRANCH  16  22
ENDBRANCH  13  14
ENDBRANCH   4  13
BRANCH   6  25
HETATM   25  N5  UNL     1      -7.694  -8.947  10.715  1.00  0.00    -0.113 N 
HETATM   26  O2  UNL     1      -8.738  -9.103  11.372  1.00  0.00    -0.532 OA
HETATM   27  O3  UNL     1      -7.047  -7.742  10.663  1.00  0.00    -0.532 OA
ENDBRANCH   6  25
BRANCH   7  28
HETATM   28  N6  UNL     1      -5.257 -10.248  11.474  1.00  0.00    -0.386 N 
ATOM     29  H6  UNL     1      -5.632 -10.561  12.370  1.00  0.00     0.159 HD
BRANCH  28  30
HETATM   30  C11 UNL     1      -4.093  -9.449  11.551  1.00  0.00     0.147 C 
BRANCH  30  31
HETATM   31  C12 UNL     1      -3.018  -9.784  12.509  1.00  0.00     0.249 C 
BRANCH  31  32
HETATM   32  N7  UNL     1      -3.421 -10.178  13.813  1.00  0.00    -0.078 N 
ATOM     33  H73 UNL     1      -3.230  -9.423  14.472  1.00  0.00     0.274 HD
ATOM     34  H72 UNL     1      -4.440 -10.213  13.859  1.00  0.00     0.274 HD
ATOM     35  H71 UNL     1      -3.032 -11.050  14.169  1.00  0.00     0.274 HD
ENDBRANCH  31  32
ENDBRANCH  30  31
ENDBRANCH  28  30
ENDBRANCH   7  28
TORSDOF 8
ENDMDL
MODEL 2
REMARK VINA RESULT: -7.188298420      2.822      4.770
REMARK  8 active torsions:
REMARK  status: ('A' for Active; 'I' for Inactive)
REMARK    1  A    between atoms: C4_4  and  C5_5 
REMARK    2  A    between atoms: C5_5  and  N1_6 
REMARK    3  A    between atoms: C6_9  and  N3_10 
REMARK    4  A    between atoms: C9_18  and  N5_19 
REMARK    5  A    between atoms: C10_22  and  N6_23 
REMARK    6  A    between atoms: N6_23  and  C11_25 
REMARK    7  A    between atoms: C11_25  and  C12_26 
REMARK    8  A    between atoms: C12_26  and  N7_27 
ROOT
HETATM    1  C1  UNL     1      -9.780 -13.371   8.544  1.00  0.00     0.048 C 
HETATM    2  C2  UNL     1      -8.582 -13.492   7.660  1.00  0.00     0.252 C 
HETATM    3  C3  UNL     1      -7.336 -12.908   8.210  1.00  0.00    -0.009 A 
HETATM    4  C4  UNL     1      -6.276 -13.668   8.560  1.00  0.00    -0.027 A 
HETATM    5  C8  UNL     1      -5.107 -12.989   9.019  1.00  0.00     0.048 A 
HETATM    6  C9  UNL     1      -5.076 -11.624   9.095  1.00  0.00     0.130 A 
HETATM    7  C10 UNL     1      -6.152 -10.867   8.741  1.00  0.00     0.068 A 
HETATM    8  C13 UNL     1      -7.283 -11.506   8.297  1.00  0.00    -0.018 A 
HETATM    9  C14 UNL     1      -8.440 -10.686   7.906  1.00  0.00     0.072 C 
HETATM   10  C15 UNL     1      -9.350 -11.378   6.963  1.00  0.00     0.277 C 
HETATM   11  N8  UNL     1      -8.856 -12.630   6.496  1.00  0.00     0.093 N 
HETATM   12  C16 UNL     1      -9.772 -13.282   5.584  1.00  0.00     0.310 C 
ENDROOT
BRANCH   4  13
HETATM   13  C5  UNL     1      -6.118 -15.121   8.536  1.00  0.00     0.194 C 
BRANCH  13  14
HETATM   14  N1  UNL     1      -5.744 -15.698   7.270  1.00  0.00    -0.224 N 
HETATM   15  N2  UNL     1      -5.562 -14.958   6.144  1.00  0.00    -0.126 N 
HETATM   16  C6  UNL     1      -5.175 -15.758   5.163  1.00  0.00     0.694 A 
ATOM     17  H2  UNL     1      -5.701 -13.950   6.068  1.00  0.00     0.206 HD
HETATM   18  N4  UNL     1      -5.091 -17.021   5.601  1.00  0.00    -0.139 N 
HETATM   19  C7  UNL     1      -5.457 -16.930   6.917  1.00  0.00     0.356 A 
ATOM     20  H4  UNL     1      -4.818 -17.852   5.078  1.00  0.00     0.189 HD
HETATM   21  O1  UNL     1      -5.490 -17.983   7.635  1.00  0.00    -0.244 OA
BRANCH  16  22
HETATM   22  N3  UNL     1      -4.912 -15.369   3.949  1.00  0.00    -0.233 N 
ATOM     23  H32 UNL     1      -5.522 -14.783   3.378  1.00  0.00     0.174 HD
ATOM     24  H31 UNL     1      -4.067 -15.608   3.432  1.00  0.00     0.174 HD
ENDBRANCH  16  22
ENDBRANCH  13  14
ENDBRANCH   4  13
BRANCH   6  25
HETATM   25  N5  UNL     1      -3.818 -11.040   9.523  1.00  0.00    -0.113 N 
HETATM   26  O2  UNL     1      -3.337 -11.282  10.643  1.00  0.00    -0.532 OA
HETATM   27  O3  UNL     1      -3.201 -10.201   8.636  1.00  0.00    -0.532 OA
ENDBRANCH   6  25
BRANCH   7  28
HETATM   28  N6  UNL     1      -6.119  -9.464   8.866  1.00  0.00    -0.386 N 
ATOM     29  H6  UNL     1      -6.062  -8.950   7.987  1.00  0.00     0.159 HD
BRANCH  28  30
HETATM   30  C11 UNL     1      -6.155  -8.666  10.032  1.00  0.00     0.147 C 
BRANCH  30  31
HETATM   31  C12 UNL     1      -7.447  -8.298  10.649  1.00  0.00     0.249 C 
BRANCH  31  32
HETATM   32  N7  UNL     1      -8.086  -9.291  11.438  1.00  0.00    -0.078 N 
ATOM     33  H73 UNL     1      -8.591  -9.937  10.831  1.00  0.00     0.274 HD
ATOM     34  H72 UNL     1      -7.384  -9.917  11.834  1.00  0.00     0.274 HD
ATOM     35  H71 UNL     1      -8.706  -8.961  12.177  1.00  0.00     0.274 HD
ENDBRANCH  31  32
ENDBRANCH  30  31
ENDBRANCH  28  30
ENDBRANCH   7  28
TORSDOF 8
ENDMDL
MODEL 3
REMARK VINA RESULT: -7.090398443      2.637      4.029
REMARK  8 active torsions:
REMARK  status: ('A' for Active; 'I' for Inactive)
REMARK    1  A    between atoms: C4_4  and  C5_5 
REMARK    2  A    between atoms: C5_5  and  N1_6 
REMARK    3  A    between atoms: C6_9  and  N3_10 
REMARK    4  A    between atoms: C9_18  and  N5_19 
REMARK    5  A    between atoms: C10_22  and  N6_23 
REMARK    6  A    between atoms: N6_23  and  C11_25 
REMARK    7  A    between atoms: C11_25  and  C12_26 
REMARK    8  A    between atoms: C12_26  and  N7_27 
ROOT
HETATM    1  C1  UNL     1      -3.113 -13.339   7.998  1.00  0.00     0.048 C 
HETATM    2  C2  UNL     1      -4.129 -13.562   9.069  1.00  0.00     0.252 C 
HETATM    3  C3  UNL     1      -5.439 -12.910   8.838  1.00  0.00    -0.009 A 
HETATM    4  C4  UNL     1      -6.566 -13.615   8.605  1.00  0.00    -0.027 A 
HETATM    5  C8  UNL     1      -7.781 -12.880   8.458  1.00  0.00     0.048 A 
HETATM    6  C9  UNL     1      -7.789 -11.516   8.554  1.00  0.00     0.130 A 
HETATM    7  C10 UNL     1      -6.645 -10.813   8.788  1.00  0.00     0.068 A 
HETATM    8  C13 UNL     1      -5.469 -11.507   8.931  1.00  0.00    -0.018 A 
HETATM    9  C14 UNL     1      -4.237 -10.747   9.194  1.00  0.00     0.072 C 
HETATM   10  C15 UNL     1      -3.187 -11.554   9.859  1.00  0.00     0.277 C 
HETATM   11  N8  UNL     1      -3.619 -12.852  10.257  1.00  0.00     0.093 N 
HETATM   12  C16 UNL     1      -2.569 -13.615  10.895  1.00  0.00     0.310 C 
ENDROOT
BRANCH   4  13
HETATM   13  C5  UNL     1      -6.757 -15.060   8.483  1.00  0.00     0.194 C 
BRANCH  13  14
HETATM   14  N1  UNL     1      -6.191 -15.678   7.311  1.00  0.00    -0.224 N 
HETATM   15  N2  UNL     1      -6.027 -15.019   6.132  1.00  0.00    -0.126 N 
HETATM   16  C6  UNL     1      -5.438 -15.829   5.266  1.00  0.00     0.694 A 
ATOM     17  H2  UNL     1      -6.313 -14.057   5.946  1.00  0.00     0.206 HD
HETATM   18  N4  UNL     1      -5.200 -17.019   5.833  1.00  0.00    -0.139 N 
HETATM   19  C7  UNL     1      -5.689 -16.874   7.104  1.00  0.00     0.356 A 
ATOM     20  H4  UNL     1      -4.759 -17.839   5.417  1.00  0.00     0.189 HD
HETATM   21  O1  UNL     1      -5.622 -17.852   7.919  1.00  0.00    -0.244 OA
BRANCH  16  22
HETATM   22  N3  UNL     1      -5.135 -15.511   4.042  1.00  0.00    -0.233 N 
ATOM     23  H32 UNL     1      -5.625 -14.815   3.480  1.00  0.00     0.174 HD
ATOM     24  H31 UNL     1      -4.372 -15.924   3.506  1.00  0.00     0.174 HD
ENDBRANCH  16  22
ENDBRANCH  13  14
ENDBRANCH   4  13
BRANCH   6  25
HETATM   25  N5  UNL     1      -9.087 -10.878   8.444  1.00  0.00    -0.113 N 
HETATM   26  O2  UNL     1      -9.459 -10.338   7.388  1.00  0.00    -0.532 OA
HETATM   27  O3  UNL     1      -9.871 -10.890   9.565  1.00  0.00    -0.532 OA
ENDBRANCH   6  25
BRANCH   7  28
HETATM   28  N6  UNL     1      -6.661  -9.406   8.841  1.00  0.00    -0.386 N 
ATOM     29  H6  UNL     1      -6.781  -8.937   7.943  1.00  0.00     0.159 HD
BRANCH  28  30
HETATM   30  C11 UNL     1      -6.535  -8.548   9.959  1.00  0.00     0.147 C 
BRANCH  30  31
HETATM   31  C12 UNL     1      -7.708  -8.247  10.807  1.00  0.00     0.249 C 
BRANCH  31  32
HETATM   32  N7  UNL     1      -8.245  -9.323  11.562  1.00  0.00    -0.078 N 
ATOM     33  H73 UNL     1      -9.025  -9.741  11.054  1.00  0.00     0.274 HD
ATOM     34  H72 UNL     1      -7.586 -10.101  11.566  1.00  0.00     0.274 HD
ATOM     35  H71 UNL     1      -8.533  -9.114  12.518  1.00  0.00     0.274 HD
ENDBRANCH  31  32
ENDBRANCH  30  31
ENDBRANCH  28  30
ENDBRANCH   7  28
TORSDOF 8
ENDMDL
MODEL 4
REMARK VINA RESULT: -6.912228369      1.995      6.346
REMARK  8 active torsions:
REMARK  status: ('A' for Active; 'I' for Inactive)
REMARK    1  A    between atoms: C4_4  and  C5_5 
REMARK    2  A    between atoms: C5_5  and  N1_6 
REMARK    3  A    between atoms: C6_9  and  N3_10 
REMARK    4  A    between atoms: C9_18  and  N5_19 
REMARK    5  A    between atoms: C10_22  and  N6_23 
REMARK    6  A    between atoms: N6_23  and  C11_25 
REMARK    7  A    between atoms: C11_25  and  C12_26 
REMARK    8  A    between atoms: C12_26  and  N7_27 
ROOT
HETATM    1  C1  UNL     1      -3.302 -13.379   9.457  1.00  0.00     0.048 C 
HETATM    2  C2  UNL     1      -3.667 -12.276   8.518  1.00  0.00     0.252 C 
HETATM    3  C3  UNL     1      -5.087 -11.854   8.568  1.00  0.00    -0.009 A 
HETATM    4  C4  UNL     1      -5.464 -10.639   9.021  1.00  0.00    -0.027 A 
HETATM    5  C8  UNL     1      -6.854 -10.321   8.964  1.00  0.00     0.048 A 
HETATM    6  C9  UNL     1      -7.757 -11.220   8.467  1.00  0.00     0.130 A 
HETATM    7  C10 UNL     1      -7.366 -12.444   8.014  1.00  0.00     0.068 A 
HETATM    8  C13 UNL     1      -6.032 -12.764   8.063  1.00  0.00    -0.018 A 
HETATM    9  C14 UNL     1      -5.611 -14.082   7.564  1.00  0.00     0.072 C 
HETATM   10  C15 UNL     1      -4.189 -14.120   7.150  1.00  0.00     0.277 C 
HETATM   11  N8  UNL     1      -3.548 -12.848   7.164  1.00  0.00     0.093 N 
HETATM   12  C16 UNL     1      -2.160 -12.922   6.764  1.00  0.00     0.310 C 
ENDROOT
BRANCH   4  13
HETATM   13  C5  UNL     1      -4.653  -9.553   9.571  1.00  0.00     0.194 C 
BRANCH  13  14
HETATM   14  N1  UNL     1      -3.934  -9.849  10.784  1.00  0.00    -0.224 N 
HETATM   15  N2  UNL     1      -4.549 -10.237  11.933  1.00  0.00    -0.126 N 
HETATM   16  C6  UNL     1      -3.627 -10.486  12.850  1.00  0.00     0.694 A 
ATOM     17  H2  UNL     1      -5.557 -10.322  12.067  1.00  0.00     0.206 HD
HETATM   18  N4  UNL     1      -2.404 -10.276  12.346  1.00  0.00    -0.139 N 
HETATM   19  C7  UNL     1      -2.650  -9.880  11.059  1.00  0.00     0.356 A 
ATOM     20  H4  UNL     1      -1.503 -10.385  12.811  1.00  0.00     0.189 HD
HETATM   21  O1  UNL     1      -1.673  -9.588  10.292  1.00  0.00    -0.244 OA
BRANCH  16  22
HETATM   22  N3  UNL     1      -3.877 -10.879  14.065  1.00  0.00    -0.233 N 
ATOM     23  H32 UNL     1      -3.174 -11.196  14.733  1.00  0.00     0.174 HD
ATOM     24  H31 UNL     1      -4.805 -10.916  14.484  1.00  0.00     0.174 HD
ENDBRANCH  16  22
ENDBRANCH  13  14
ENDBRANCH   4  13
BRANCH   6  25
HETATM   25  N5  UNL     1      -9.134 -10.769   8.406  1.00  0.00    -0.113 N 
HETATM   26  O2  UNL     1      -9.627 -10.324   7.355  1.00  0.00    -0.532 OA
HETATM   27  O3  UNL     1      -9.855 -10.843   9.567  1.00  0.00    -0.532 OA
ENDBRANCH   6  25
BRANCH   7  28
HETATM   28  N6  UNL     1      -8.313 -13.375   7.545  1.00  0.00    -0.386 N 
ATOM     29  H6  UNL     1      -8.666 -14.028   8.245  1.00  0.00     0.159 HD
BRANCH  28  30
HETATM   30  C11 UNL     1      -8.846 -13.537   6.245  1.00  0.00     0.147 C 
BRANCH  30  31
HETATM   31  C12 UNL     1     -10.303 -13.443   6.016  1.00  0.00     0.249 C 
BRANCH  31  32
HETATM   32  N7  UNL     1     -10.771 -12.286   5.337  1.00  0.00    -0.078 N 
ATOM     33  H73 UNL     1     -11.168 -12.555   4.436  1.00  0.00     0.274 HD
ATOM     34  H72 UNL     1     -11.602 -11.927   5.808  1.00  0.00     0.274 HD
ATOM     35  H71 UNL     1     -10.100 -11.529   5.203  1.00  0.00     0.274 HD
ENDBRANCH  31  32
ENDBRANCH  30  31
ENDBRANCH  28  30
ENDBRANCH   7  28
TORSDOF 8
ENDMDL
MODEL 5
REMARK VINA RESULT: -6.842343765      2.610      6.244
REMARK  8 active torsions:
REMARK  status: ('A' for Active; 'I' for Inactive)
REMARK    1  A    between atoms: C4_4  and  C5_5 
REMARK    2  A    between atoms: C5_5  and  N1_6 
REMARK    3  A    between atoms: C6_9  and  N3_10 
REMARK    4  A    between atoms: C9_18  and  N5_19 
REMARK    5  A    between atoms: C10_22  and  N6_23 
REMARK    6  A    between atoms: N6_23  and  C11_25 
REMARK    7  A    between atoms: C11_25  and  C12_26 
REMARK    8  A    between atoms: C12_26  and  N7_27 
ROOT
HETATM    1  C1  UNL     1      -3.850 -13.396   8.697  1.00  0.00     0.048 C 
HETATM    2  C2  UNL     1      -4.882 -13.498   7.622  1.00  0.00     0.252 C 
HETATM    3  C3  UNL     1      -6.194 -14.030   8.061  1.00  0.00    -0.009 A 
HETATM    4  C4  UNL     1      -7.310 -13.271   8.081  1.00  0.00    -0.027 A 
HETATM    5  C8  UNL     1      -8.529 -13.909   8.464  1.00  0.00     0.048 A 
HETATM    6  C9  UNL     1      -8.551 -15.236   8.792  1.00  0.00     0.130 A 
HETATM    7  C10 UNL     1      -7.418 -15.992   8.770  1.00  0.00     0.068 A 
HETATM    8  C13 UNL     1      -6.238 -15.393   8.404  1.00  0.00    -0.018 A 
HETATM    9  C14 UNL     1      -5.018 -16.214   8.371  1.00  0.00     0.072 C 
HETATM   10  C15 UNL     1      -3.973 -15.665   7.476  1.00  0.00     0.277 C 
HETATM   11  N8  UNL     1      -4.400 -14.547   6.704  1.00  0.00     0.093 N 
HETATM   12  C16 UNL     1      -3.354 -14.031   5.848  1.00  0.00     0.310 C 
ENDROOT
BRANCH   4  13
HETATM   13  C5  UNL     1      -7.486 -11.856   7.755  1.00  0.00     0.194 C 
BRANCH  13  14
HETATM   14  N1  UNL     1      -7.465 -10.942   8.868  1.00  0.00    -0.224 N 
HETATM   15  N2  UNL     1      -6.328 -10.346   9.317  1.00  0.00    -0.126 N 
HETATM   16  C6  UNL     1      -6.637  -9.526  10.310  1.00  0.00     0.694 A 
ATOM     17  H2  UNL     1      -5.390 -10.505   8.948  1.00  0.00     0.206 HD
HETATM   18  N4  UNL     1      -7.955  -9.555  10.542  1.00  0.00    -0.139 N 
HETATM   19  C7  UNL     1      -8.425 -10.451   9.620  1.00  0.00     0.356 A 
ATOM     20  H4  UNL     1      -8.485  -9.032  11.239  1.00  0.00     0.189 HD
HETATM   21  O1  UNL     1      -9.671 -10.718   9.579  1.00  0.00    -0.244 OA
BRANCH  16  22
HETATM   22  N3  UNL     1      -5.779  -8.798  10.964  1.00  0.00    -0.233 N 
ATOM     23  H32 UNL     1      -4.915  -8.420  10.574  1.00  0.00     0.174 HD
ATOM     24  H31 UNL     1      -5.874  -8.525  11.942  1.00  0.00     0.174 HD
ENDBRANCH  16  22
ENDBRANCH  13  14
ENDBRANCH   4  13
BRANCH   6  25
HETATM   25  N5  UNL     1      -9.852 -15.790   9.111  1.00  0.00    -0.113 N 
HETATM   26  O2  UNL     1     -10.095 -16.280  10.227  1.00  0.00    -0.532 OA
HETATM   27  O3  UNL     1     -10.791 -15.759   8.115  1.00  0.00    -0.532 OA
ENDBRANCH   6  25
BRANCH   7  28
HETATM   28  N6  UNL     1      -7.448 -17.348   9.153  1.00  0.00    -0.386 N 
ATOM     29  H6  UNL     1      -7.287 -17.524  10.144  1.00  0.00     0.159 HD
BRANCH  28  30
HETATM   30  C11 UNL     1      -7.670 -18.499   8.362  1.00  0.00     0.147 C 
BRANCH  30  31
HETATM   31  C12 UNL     1      -8.934 -19.256   8.479  1.00  0.00     0.249 C 
BRANCH  31  32
HETATM   32  N7  UNL     1      -9.776 -19.276   7.335  1.00  0.00    -0.078 N 
ATOM     33  H73 UNL     1      -9.661 -18.409   6.810  1.00  0.00     0.274 HD
ATOM     34  H72 UNL     1      -9.420 -19.952   6.660  1.00  0.00     0.274 HD
ATOM     35  H71 UNL     1     -10.768 -19.446   7.499  1.00  0.00     0.274 HD
ENDBRANCH  31  32
ENDBRANCH  30  31
ENDBRANCH  28  30
ENDBRANCH   7  28
TORSDOF 8
ENDMDL
