MODEL 1
REMARK VINA RESULT: -7.288649412      0.000      0.000
REMARK  0 active torsions:
REMARK  status: ('A' for Active; 'I' for Inactive)
ROOT
HETATM    1  O1  UNL     1      19.450 -21.567  21.301  1.00  0.00    -0.247 OA
HETATM    2  C1  UNL     1      18.591 -22.300  21.900  1.00  0.00     0.328 A 
HETATM    3  N1  UNL     1      17.445 -22.656  21.314  1.00  0.00    -0.273 N 
ATOM      4  H1  UNL     1      17.251 -22.335  20.365  1.00  0.00     0.173 HD
HETATM    5  C2  UNL     1      16.539 -23.426  21.940  1.00  0.00     0.281 A 
HETATM    6  O2  UNL     1      15.491 -23.732  21.356  1.00  0.00    -0.265 OA
HETATM    7  C3  UNL     1      16.856 -23.829  23.225  1.00  0.00     0.160 A 
HETATM    8  N2  UNL     1      16.190 -24.587  24.114  1.00  0.00    -0.276 N 
ATOM      9  H2  UNL     1      15.277 -25.013  23.960  1.00  0.00     0.184 HD
HETATM   10  N3  UNL     1      16.913 -24.692  25.226  1.00  0.00    -0.020 NA
HETATM   11  N4  UNL     1      18.048 -24.027  25.108  1.00  0.00    -0.267 N 
ATOM     12  H4  UNL     1      18.786 -23.941  25.807  1.00  0.00     0.186 HD
HETATM   13  C4  UNL     1      18.031 -23.477  23.857  1.00  0.00     0.156 A 
HETATM   14  N5  UNL     1      18.883 -22.705  23.160  1.00  0.00    -0.291 N 
ATOM     15  H5  UNL     1      19.765 -22.419  23.587  1.00  0.00     0.172 HD
ENDROOT
TORSDOF 0
ENDMDL
MODEL 2
REMARK VINA RESULT: -7.193995248      2.146      3.678
REMARK  0 active torsions:
REMARK  status: ('A' for Active; 'I' for Inactive)
ROOT
HETATM    1  O1  UNL     1      17.551 -24.437  26.360  1.00  0.00    -0.247 OA
HETATM    2  C1  UNL     1      17.372 -23.987  25.177  1.00  0.00     0.328 A 
HETATM    3  N1  UNL     1      18.050 -22.928  24.723  1.00  0.00    -0.273 N 
ATOM      4  H1  UNL     1      18.724 -22.469  25.335  1.00  0.00     0.173 HD
HETATM    5  C2  UNL     1      17.866 -22.450  23.480  1.00  0.00     0.281 A 
HETATM    6  O2  UNL     1      18.516 -21.467  23.103  1.00  0.00    -0.265 OA
HETATM    7  C3  UNL     1      16.937 -23.112  22.697  1.00  0.00     0.160 A 
HETATM    8  N2  UNL     1      16.519 -22.902  21.436  1.00  0.00    -0.276 N 
ATOM      9  H2  UNL     1      16.853 -22.162  20.819  1.00  0.00     0.184 HD
HETATM   10  N3  UNL     1      15.602 -23.813  21.123  1.00  0.00    -0.020 NA
HETATM   11  N4  UNL     1      15.393 -24.631  22.139  1.00  0.00    -0.267 N 
ATOM     12  H4  UNL     1      14.746 -25.419  22.171  1.00  0.00     0.186 HD
HETATM   13  C4  UNL     1      16.223 -24.207  23.138  1.00  0.00     0.156 A 
HETATM   14  N5  UNL     1      16.467 -24.621  24.394  1.00  0.00    -0.291 N 
ATOM     15  H5  UNL     1      15.962 -25.427  24.763  1.00  0.00     0.172 HD
ENDROOT
TORSDOF 0
ENDMDL
MODEL 3
REMARK VINA RESULT: -7.056913374      1.651      3.303
REMARK  0 active torsions:
REMARK  status: ('A' for Active; 'I' for Inactive)
ROOT
HETATM    1  O1  UNL     1      16.542 -25.201  25.055  1.00  0.00    -0.247 OA
HETATM    2  C1  UNL     1      16.857 -24.473  24.052  1.00  0.00     0.328 A 
HETATM    3  N1  UNL     1      16.017 -24.292  23.028  1.00  0.00    -0.273 N 
ATOM      4  H1  UNL     1      15.104 -24.746  23.048  1.00  0.00     0.173 HD
HETATM    5  C2  UNL     1      16.343 -23.528  21.972  1.00  0.00     0.281 A 
HETATM    6  O2  UNL     1      15.533 -23.388  21.047  1.00  0.00    -0.265 OA
HETATM    7  C3  UNL     1      17.596 -22.941  22.000  1.00  0.00     0.160 A 
HETATM    8  N2  UNL     1      18.225 -22.136  21.126  1.00  0.00    -0.276 N 
ATOM      9  H2  UNL     1      17.841 -21.811  20.240  1.00  0.00     0.184 HD
HETATM   10  N3  UNL     1      19.429 -21.829  21.603  1.00  0.00    -0.020 NA
HETATM   11  N4  UNL     1      19.625 -22.407  22.776  1.00  0.00    -0.267 N 
ATOM     12  H4  UNL     1      20.457 -22.340  23.361  1.00  0.00     0.186 HD
HETATM   13  C4  UNL     1      18.484 -23.110  23.042  1.00  0.00     0.156 A 
HETATM   14  N5  UNL     1      18.079 -23.889  24.060  1.00  0.00    -0.291 N 
ATOM     15  H5  UNL     1      18.703 -24.043  24.853  1.00  0.00     0.172 HD
ENDROOT
TORSDOF 0
ENDMDL
MODEL 4
REMARK VINA RESULT: -6.993980958      1.712      3.035
REMARK  0 active torsions:
REMARK  status: ('A' for Active; 'I' for Inactive)
ROOT
HETATM    1  O1  UNL     1      19.519 -23.186  25.496  1.00  0.00    -0.247 OA
HETATM    2  C1  UNL     1      18.860 -23.135  24.402  1.00  0.00     0.328 A 
HETATM    3  N1  UNL     1      19.329 -22.485  23.333  1.00  0.00    -0.273 N 
ATOM      4  H1  UNL     1      20.235 -22.019  23.392  1.00  0.00     0.173 HD
HETATM    5  C2  UNL     1      18.641 -22.429  22.180  1.00  0.00     0.281 A 
HETATM    6  O2  UNL     1      19.116 -21.816  21.215  1.00  0.00    -0.265 OA
HETATM    7  C3  UNL     1      17.419 -23.078  22.160  1.00  0.00     0.160 A 
HETATM    8  N2  UNL     1      16.496 -23.215  21.193  1.00  0.00    -0.276 N 
ATOM      9  H2  UNL     1      16.565 -22.830  20.251  1.00  0.00     0.184 HD
HETATM   10  N3  UNL     1      15.478 -23.934  21.659  1.00  0.00    -0.020 NA
HETATM   11  N4  UNL     1      15.693 -24.285  22.915  1.00  0.00    -0.267 N 
ATOM     12  H4  UNL     1      15.079 -24.838  23.512  1.00  0.00     0.186 HD
HETATM   13  C4  UNL     1      16.908 -23.755  23.248  1.00  0.00     0.156 A 
HETATM   14  N5  UNL     1      17.661 -23.764  24.362  1.00  0.00    -0.291 N 
ATOM     15  H5  UNL     1      17.323 -24.253  25.192  1.00  0.00     0.172 HD
ENDROOT
TORSDOF 0
ENDMDL
MODEL 5
REMARK VINA RESULT: -6.973709664      1.750      2.685
REMARK  0 active torsions:
REMARK  status: ('A' for Active; 'I' for Inactive)
ROOT
HETATM    1  O1  UNL     1      20.002 -21.730  21.544  1.00  0.00    -0.247 OA
HETATM    2  C1  UNL     1      19.040 -22.412  22.040  1.00  0.00     0.328 A 
HETATM    3  N1  UNL     1      19.115 -22.937  23.266  1.00  0.00    -0.273 N 
ATOM      4  H1  UNL     1      19.959 -22.790  23.819  1.00  0.00     0.173 HD
HETATM    5  C2  UNL     1      18.108 -23.655  23.791  1.00  0.00     0.281 A 
HETATM    6  O2  UNL     1      18.222 -24.122  24.932  1.00  0.00    -0.265 OA
HETATM    7  C3  UNL     1      16.989 -23.822  22.994  1.00  0.00     0.160 A 
HETATM    8  N2  UNL     1      15.830 -24.469  23.205  1.00  0.00    -0.276 N 
ATOM      9  H2  UNL     1      15.581 -24.974  24.056  1.00  0.00     0.184 HD
HETATM   10  N3  UNL     1      15.058 -24.345  22.129  1.00  0.00    -0.020 NA
HETATM   11  N4  UNL     1      15.668 -23.630  21.199  1.00  0.00    -0.267 N 
ATOM     12  H4  UNL     1      15.305 -23.381  20.279  1.00  0.00     0.186 HD
HETATM   13  C4  UNL     1      16.883 -23.293  21.724  1.00  0.00     0.156 A 
HETATM   14  N5  UNL     1      17.936 -22.588  21.274  1.00  0.00    -0.291 N 
ATOM     15  H5  UNL     1      17.903 -22.177  20.341  1.00  0.00     0.172 HD
ENDROOT
TORSDOF 0
ENDMDL
