MODEL 1
REMARK VINA RESULT: -7.533129513      0.000      0.000
REMARK  0 active torsions:
REMARK  status: ('A' for Active; 'I' for Inactive)
ROOT
HETATM    1  N1  UNL     1      19.047 -21.810  21.683  1.00  0.00    -0.233 N 
ATOM      2  H11 UNL     1      19.953 -21.686  22.135  1.00  0.00     0.174 HD
ATOM      3  H12 UNL     1      18.804 -21.551  20.726  1.00  0.00     0.174 HD
HETATM    4  C1  UNL     1      18.126 -22.347  22.404  1.00  0.00     0.697 C 
HETATM    5  N2  UNL     1      16.855 -22.521  21.769  1.00  0.00    -0.116 N 
ATOM      6  H2  UNL     1      16.803 -22.168  20.813  1.00  0.00     0.203 HD
HETATM    7  N3  UNL     1      15.673 -23.094  22.244  1.00  0.00    -0.005 NA
HETATM    8  N4  UNL     1      15.875 -24.290  22.942  1.00  0.00    -0.248 N 
ATOM      9  H4  UNL     1      15.378 -25.108  22.589  1.00  0.00     0.187 HD
HETATM   10  C2  UNL     1      16.698 -24.498  24.096  1.00  0.00     0.287 C 
HETATM   11  O1  UNL     1      16.426 -25.473  24.827  1.00  0.00    -0.264 OA
HETATM   12  C3  UNL     1      17.840 -23.656  24.487  1.00  0.00     0.142 A 
HETATM   13  C4  UNL     1      18.456 -23.704  25.703  1.00  0.00     0.125 A 
HETATM   14  N5  UNL     1      19.438 -22.782  25.654  1.00  0.00    -0.359 N 
ATOM     15  H5  UNL     1      20.084 -22.577  26.416  1.00  0.00     0.166 HD
HETATM   16  C5  UNL     1      19.446 -22.165  24.444  1.00  0.00     0.207 A 
HETATM   17  N6  UNL     1      18.466 -22.709  23.742  1.00  0.00    -0.136 N 
ENDROOT
TORSDOF 0
ENDMDL
MODEL 2
REMARK VINA RESULT: -7.359706025      1.686      3.073
REMARK  0 active torsions:
REMARK  status: ('A' for Active; 'I' for Inactive)
ROOT
HETATM    1  N1  UNL     1      19.295 -23.026  26.027  1.00  0.00    -0.233 N 
ATOM      2  H11 UNL     1      19.989 -22.350  25.710  1.00  0.00     0.174 HD
ATOM      3  H12 UNL     1      19.161 -23.358  26.982  1.00  0.00     0.174 HD
HETATM    4  C1  UNL     1      18.518 -23.504  25.119  1.00  0.00     0.697 C 
HETATM    5  N2  UNL     1      17.543 -24.453  25.563  1.00  0.00    -0.116 N 
ATOM      6  H2  UNL     1      17.589 -24.678  26.557  1.00  0.00     0.203 HD
HETATM    7  N3  UNL     1      16.540 -25.123  24.859  1.00  0.00    -0.005 NA
HETATM    8  N4  UNL     1      15.838 -24.300  23.971  1.00  0.00    -0.248 N 
ATOM      9  H4  UNL     1      14.827 -24.252  24.104  1.00  0.00     0.187 HD
HETATM   10  C2  UNL     1      16.373 -23.518  22.898  1.00  0.00     0.287 C 
HETATM   11  O1  UNL     1      15.599 -23.212  21.968  1.00  0.00    -0.264 OA
HETATM   12  C3  UNL     1      17.764 -23.044  22.805  1.00  0.00     0.142 A 
HETATM   13  C4  UNL     1      18.330 -22.523  21.678  1.00  0.00     0.125 A 
HETATM   14  N5  UNL     1      19.600 -22.220  22.011  1.00  0.00    -0.359 N 
ATOM     15  H5  UNL     1      20.287 -21.809  21.379  1.00  0.00     0.166 HD
HETATM   16  C5  UNL     1      19.836 -22.539  23.310  1.00  0.00     0.207 A 
HETATM   17  N6  UNL     1      18.707 -23.040  23.782  1.00  0.00    -0.136 N 
ENDROOT
TORSDOF 0
ENDMDL
MODEL 3
REMARK VINA RESULT: -6.875070210      1.903      3.007
REMARK  0 active torsions:
REMARK  status: ('A' for Active; 'I' for Inactive)
ROOT
HETATM    1  N1  UNL     1      15.675 -24.570  24.868  1.00  0.00    -0.233 N 
ATOM      2  H11 UNL     1      15.985 -24.402  25.825  1.00  0.00     0.174 HD
ATOM      3  H12 UNL     1      14.790 -24.990  24.581  1.00  0.00     0.174 HD
HETATM    4  C1  UNL     1      16.491 -24.214  23.939  1.00  0.00     0.697 C 
HETATM    5  N2  UNL     1      16.055 -24.450  22.596  1.00  0.00    -0.116 N 
ATOM      6  H2  UNL     1      15.148 -24.910  22.517  1.00  0.00     0.203 HD
HETATM    7  N3  UNL     1      16.668 -24.154  21.377  1.00  0.00    -0.005 NA
HETATM    8  N4  UNL     1      17.237 -22.876  21.334  1.00  0.00    -0.248 N 
ATOM      9  H4  UNL     1      16.907 -22.261  20.590  1.00  0.00     0.187 HD
HETATM   10  C2  UNL     1      18.227 -22.331  22.214  1.00  0.00     0.287 C 
HETATM   11  O1  UNL     1      18.919 -21.386  21.785  1.00  0.00    -0.264 OA
HETATM   12  C3  UNL     1      18.492 -22.798  23.584  1.00  0.00     0.142 A 
HETATM   13  C4  UNL     1      19.588 -22.454  24.320  1.00  0.00     0.125 A 
HETATM   14  N5  UNL     1      19.452 -23.087  25.502  1.00  0.00    -0.359 N 
ATOM     15  H5  UNL     1      20.115 -23.030  26.274  1.00  0.00     0.166 HD
HETATM   16  C5  UNL     1      18.305 -23.814  25.518  1.00  0.00     0.207 A 
HETATM   17  N6  UNL     1      17.728 -23.627  24.342  1.00  0.00    -0.136 N 
ENDROOT
TORSDOF 0
ENDMDL
MODEL 4
REMARK VINA RESULT: -6.819514379      1.941      3.465
REMARK  0 active torsions:
REMARK  status: ('A' for Active; 'I' for Inactive)
ROOT
HETATM    1  N1  UNL     1      15.946 -25.125  22.324  1.00  0.00    -0.233 N 
ATOM      2  H11 UNL     1      16.189 -24.935  21.352  1.00  0.00     0.174 HD
ATOM      3  H12 UNL     1      15.255 -25.797  22.658  1.00  0.00     0.174 HD
HETATM    4  C1  UNL     1      16.583 -24.440  23.208  1.00  0.00     0.697 C 
HETATM    5  N2  UNL     1      16.243 -24.707  24.573  1.00  0.00    -0.116 N 
ATOM      6  H2  UNL     1      15.501 -25.396  24.701  1.00  0.00     0.203 HD
HETATM    7  N3  UNL     1      16.760 -24.178  25.758  1.00  0.00    -0.005 NA
HETATM    8  N4  UNL     1      18.156 -24.083  25.764  1.00  0.00    -0.248 N 
ATOM      9  H4  UNL     1      18.637 -24.570  26.521  1.00  0.00     0.187 HD
HETATM   10  C2  UNL     1      18.987 -23.383  24.832  1.00  0.00     0.287 C 
HETATM   11  O1  UNL     1      20.123 -23.040  25.219  1.00  0.00    -0.264 OA
HETATM   12  C3  UNL     1      18.608 -23.036  23.453  1.00  0.00     0.142 A 
HETATM   13  C4  UNL     1      19.291 -22.160  22.660  1.00  0.00     0.125 A 
HETATM   14  N5  UNL     1      18.622 -22.123  21.491  1.00  0.00    -0.359 N 
ATOM     15  H5  UNL     1      18.886 -21.556  20.686  1.00  0.00     0.166 HD
HETATM   16  C5  UNL     1      17.545 -22.949  21.537  1.00  0.00     0.207 A 
HETATM   17  N6  UNL     1      17.550 -23.500  22.740  1.00  0.00    -0.136 N 
ENDROOT
TORSDOF 0
ENDMDL
MODEL 5
REMARK VINA RESULT: -6.675427128      1.874      3.139
REMARK  0 active torsions:
REMARK  status: ('A' for Active; 'I' for Inactive)
ROOT
HETATM    1  N1  UNL     1      19.941 -23.290  24.984  1.00  0.00    -0.233 N 
ATOM      2  H11 UNL     1      19.611 -23.955  25.683  1.00  0.00     0.174 HD
ATOM      3  H12 UNL     1      20.872 -22.876  24.929  1.00  0.00     0.174 HD
HETATM    4  C1  UNL     1      19.086 -22.946  24.085  1.00  0.00     0.697 C 
HETATM    5  N2  UNL     1      19.549 -22.012  23.104  1.00  0.00    -0.116 N 
ATOM      6  H2  UNL     1      20.508 -21.691  23.240  1.00  0.00     0.203 HD
HETATM    7  N3  UNL     1      18.904 -21.469  21.990  1.00  0.00    -0.005 NA
HETATM    8  N4  UNL     1      18.177 -22.411  21.253  1.00  0.00    -0.248 N 
ATOM      9  H4  UNL     1      18.426 -22.501  20.268  1.00  0.00     0.187 HD
HETATM   10  C2  UNL     1      17.125 -23.263  21.722  1.00  0.00     0.287 C 
HETATM   11  O1  UNL     1      16.319 -23.698  20.875  1.00  0.00    -0.264 OA
HETATM   12  C3  UNL     1      16.921 -23.666  23.122  1.00  0.00     0.142 A 
HETATM   13  C4  UNL     1      15.790 -24.261  23.599  1.00  0.00     0.125 A 
HETATM   14  N5  UNL     1      16.005 -24.461  24.914  1.00  0.00    -0.359 N 
ATOM     15  H5  UNL     1      15.340 -24.893  25.555  1.00  0.00     0.166 HD
HETATM   16  C5  UNL     1      17.236 -24.007  25.265  1.00  0.00     0.207 A 
HETATM   17  N6  UNL     1      17.784 -23.525  24.161  1.00  0.00    -0.136 N 
ENDROOT
TORSDOF 0
ENDMDL
