MODEL 1
REMARK VINA RESULT: -7.480364785      0.000      0.000
REMARK  1 active torsions:
REMARK  status: ('A' for Active; 'I' for Inactive)
REMARK    1  A    between atoms: N5_13  and  N6_15 
ROOT
HETATM    1  N1  UNL     1      19.473 -23.442  25.463  1.00  0.00    -0.191 NA
HETATM    2  C1  UNL     1      18.778 -23.440  24.547  1.00  0.00     0.105 C 
HETATM    3  C2  UNL     1      17.899 -23.443  23.404  1.00  0.00     0.120 A 
HETATM    4  C3  UNL     1      16.727 -24.201  23.450  1.00  0.00     0.140 A 
HETATM    5  N2  UNL     1      16.405 -24.960  24.609  1.00  0.00    -0.095 NA
HETATM    6  C4  UNL     1      15.933 -24.162  22.330  1.00  0.00     0.285 A 
HETATM    7  O1  UNL     1      14.871 -24.836  22.344  1.00  0.00    -0.265 OA
HETATM    8  N3  UNL     1      16.292 -23.427  21.269  1.00  0.00    -0.263 N 
ATOM      9  H3  UNL     1      15.682 -23.417  20.451  1.00  0.00     0.190 HD
HETATM   10  N4  UNL     1      17.413 -22.710  21.239  1.00  0.00    -0.280 N 
ATOM     11  H4  UNL     1      17.647 -22.165  20.409  1.00  0.00     0.188 HD
HETATM   12  C5  UNL     1      18.233 -22.703  22.296  1.00  0.00     0.157 A 
HETATM   13  N5  UNL     1      19.317 -22.023  22.299  1.00  0.00    -0.290 N 
ATOM     14  H5  UNL     1      19.898 -22.060  23.136  1.00  0.00     0.188 HD
ENDROOT
BRANCH  13  15
HETATM   15  N6  UNL     1      19.758 -21.241  21.247  1.00  0.00    -0.344 N 
ATOM     16  H62 UNL     1      19.898 -21.714  20.354  1.00  0.00     0.176 HD
ATOM     17  H61 UNL     1      19.947 -20.241  21.307  1.00  0.00     0.176 HD
ENDBRANCH  13  15
TORSDOF 1
ENDMDL
MODEL 2
REMARK VINA RESULT: -7.262207856      1.708      3.319
REMARK  1 active torsions:
REMARK  status: ('A' for Active; 'I' for Inactive)
REMARK    1  A    between atoms: N5_13  and  N6_15 
ROOT
HETATM    1  N1  UNL     1      20.013 -21.974  21.848  1.00  0.00    -0.191 NA
HETATM    2  C1  UNL     1      19.216 -22.521  22.471  1.00  0.00     0.105 C 
HETATM    3  C2  UNL     1      18.223 -23.207  23.262  1.00  0.00     0.120 A 
HETATM    4  C3  UNL     1      18.523 -23.547  24.583  1.00  0.00     0.140 A 
HETATM    5  N2  UNL     1      19.790 -23.222  25.140  1.00  0.00    -0.095 NA
HETATM    6  C4  UNL     1      17.536 -24.198  25.281  1.00  0.00     0.285 A 
HETATM    7  O1  UNL     1      17.779 -24.517  26.473  1.00  0.00    -0.265 OA
HETATM    8  N3  UNL     1      16.362 -24.477  24.698  1.00  0.00    -0.263 N 
ATOM      9  H3  UNL     1      15.648 -24.961  25.242  1.00  0.00     0.190 HD
HETATM   10  N4  UNL     1      16.091 -24.146  23.438  1.00  0.00    -0.280 N 
ATOM     11  H4  UNL     1      15.183 -24.379  23.034  1.00  0.00     0.188 HD
HETATM   12  C5  UNL     1      17.008 -23.510  22.699  1.00  0.00     0.157 A 
HETATM   13  N5  UNL     1      16.777 -23.179  21.484  1.00  0.00    -0.290 N 
ATOM     14  H5  UNL     1      17.518 -22.696  20.976  1.00  0.00     0.188 HD
ENDROOT
BRANCH  13  15
HETATM   15  N6  UNL     1      15.596 -23.429  20.812  1.00  0.00    -0.344 N 
ATOM     16  H62 UNL     1      14.909 -24.009  21.294  1.00  0.00     0.176 HD
ATOM     17  H61 UNL     1      15.372 -23.076  19.881  1.00  0.00     0.176 HD
ENDBRANCH  13  15
TORSDOF 1
ENDMDL
MODEL 3
REMARK VINA RESULT: -7.204410530      2.178      3.497
REMARK  1 active torsions:
REMARK  status: ('A' for Active; 'I' for Inactive)
REMARK    1  A    between atoms: N5_13  and  N6_15 
ROOT
HETATM    1  N1  UNL     1      17.614 -24.544  25.976  1.00  0.00    -0.191 NA
HETATM    2  C1  UNL     1      17.685 -24.093  24.920  1.00  0.00     0.105 C 
HETATM    3  C2  UNL     1      17.784 -23.525  23.599  1.00  0.00     0.120 A 
HETATM    4  C3  UNL     1      18.950 -22.846  23.237  1.00  0.00     0.140 A 
HETATM    5  N2  UNL     1      20.024 -22.717  24.159  1.00  0.00    -0.095 NA
HETATM    6  C4  UNL     1      18.981 -22.328  21.966  1.00  0.00     0.285 A 
HETATM    7  O1  UNL     1      20.019 -21.712  21.613  1.00  0.00    -0.265 OA
HETATM    8  N3  UNL     1      17.935 -22.484  21.143  1.00  0.00    -0.263 N 
ATOM      9  H3  UNL     1      17.987 -22.088  20.204  1.00  0.00     0.190 HD
HETATM   10  N4  UNL     1      16.830 -23.133  21.502  1.00  0.00    -0.280 N 
ATOM     11  H4  UNL     1      16.057 -23.226  20.843  1.00  0.00     0.188 HD
HETATM   12  C5  UNL     1      16.731 -23.662  22.727  1.00  0.00     0.157 A 
HETATM   13  N5  UNL     1      15.682 -24.292  23.102  1.00  0.00    -0.290 N 
ATOM     14  H5  UNL     1      15.671 -24.672  24.048  1.00  0.00     0.188 HD
ENDROOT
BRANCH  13  15
HETATM   15  N6  UNL     1      14.564 -24.495  22.316  1.00  0.00    -0.344 N 
ATOM     16  H62 UNL     1      14.659 -24.284  21.323  1.00  0.00     0.176 HD
ATOM     17  H61 UNL     1      13.666 -24.837  22.661  1.00  0.00     0.176 HD
ENDBRANCH  13  15
TORSDOF 1
ENDMDL
MODEL 4
REMARK VINA RESULT: -7.001150955      1.772      3.211
REMARK  1 active torsions:
REMARK  status: ('A' for Active; 'I' for Inactive)
REMARK    1  A    between atoms: N5_13  and  N6_15 
ROOT
HETATM    1  N1  UNL     1      15.393 -24.014  21.505  1.00  0.00    -0.191 NA
HETATM    2  C1  UNL     1      16.244 -23.752  22.234  1.00  0.00     0.105 C 
HETATM    3  C2  UNL     1      17.306 -23.430  23.154  1.00  0.00     0.120 A 
HETATM    4  C3  UNL     1      17.312 -24.023  24.419  1.00  0.00     0.140 A 
HETATM    5  N2  UNL     1      16.285 -24.931  24.793  1.00  0.00    -0.095 NA
HETATM    6  C4  UNL     1      18.350 -23.675  25.248  1.00  0.00     0.285 A 
HETATM    7  O1  UNL     1      18.380 -24.194  26.393  1.00  0.00    -0.265 OA
HETATM    8  N3  UNL     1      19.288 -22.811  24.836  1.00  0.00    -0.263 N 
ATOM      9  H3  UNL     1      20.048 -22.572  25.473  1.00  0.00     0.190 HD
HETATM   10  N4  UNL     1      19.269 -22.254  23.627  1.00  0.00    -0.280 N 
ATOM     11  H4  UNL     1      20.005 -21.601  23.356  1.00  0.00     0.188 HD
HETATM   12  C5  UNL     1      18.286 -22.548  22.768  1.00  0.00     0.157 A 
HETATM   13  N5  UNL     1      18.240 -22.029  21.599  1.00  0.00    -0.290 N 
ATOM     14  H5  UNL     1      17.465 -22.295  20.993  1.00  0.00     0.188 HD
ENDROOT
BRANCH  13  15
HETATM   15  N6  UNL     1      19.166 -21.133  21.100  1.00  0.00    -0.344 N 
ATOM     16  H62 UNL     1      18.890 -20.151  21.084  1.00  0.00     0.176 HD
ATOM     17  H61 UNL     1      20.091 -21.387  20.753  1.00  0.00     0.176 HD
ENDBRANCH  13  15
TORSDOF 1
ENDMDL
MODEL 5
REMARK VINA RESULT: -6.899466527      0.837      3.011
REMARK  1 active torsions:
REMARK  status: ('A' for Active; 'I' for Inactive)
REMARK    1  A    between atoms: N5_13  and  N6_15 
ROOT
HETATM    1  N1  UNL     1      19.332 -21.762  21.356  1.00  0.00    -0.191 NA
HETATM    2  C1  UNL     1      18.595 -22.340  22.025  1.00  0.00     0.105 C 
HETATM    3  C2  UNL     1      17.666 -23.065  22.855  1.00  0.00     0.120 A 
HETATM    4  C3  UNL     1      16.484 -23.548  22.289  1.00  0.00     0.140 A 
HETATM    5  N2  UNL     1      16.201 -23.327  20.913  1.00  0.00    -0.095 NA
HETATM    6  C4  UNL     1      15.641 -24.230  23.132  1.00  0.00     0.285 A 
HETATM    7  O1  UNL     1      14.569 -24.676  22.650  1.00  0.00    -0.265 OA
HETATM    8  N3  UNL     1      15.965 -24.405  24.421  1.00  0.00    -0.263 N 
ATOM      9  H3  UNL     1      15.320 -24.916  25.024  1.00  0.00     0.190 HD
HETATM   10  N4  UNL     1      17.096 -23.938  24.946  1.00  0.00    -0.280 N 
ATOM     11  H4  UNL     1      17.302 -24.095  25.933  1.00  0.00     0.188 HD
HETATM   12  C5  UNL     1      17.962 -23.264  24.181  1.00  0.00     0.157 A 
HETATM   13  N5  UNL     1      19.058 -22.803  24.656  1.00  0.00    -0.290 N 
ATOM     14  H5  UNL     1      19.675 -22.299  24.020  1.00  0.00     0.188 HD
ENDROOT
BRANCH  13  15
HETATM   15  N6  UNL     1      19.465 -22.941  25.970  1.00  0.00    -0.344 N 
ATOM     16  H62 UNL     1      18.786 -22.685  26.687  1.00  0.00     0.176 HD
ATOM     17  H61 UNL     1      20.383 -23.275  26.262  1.00  0.00     0.176 HD
ENDBRANCH  13  15
TORSDOF 1
ENDMDL
