MODEL 1
REMARK VINA RESULT: -7.352410296      0.000      0.000
REMARK  7 active torsions:
REMARK  status: ('A' for Active; 'I' for Inactive)
REMARK    1  A    between atoms: C3_5  and  N2_6 
REMARK    2  A    between atoms: N2_6  and  C4_8 
REMARK    3  A    between atoms: C4_8  and  C5_9 
REMARK    4  A    between atoms: C5_9  and  C6_10 
REMARK    5  A    between atoms: C6_10  and  N3_11 
REMARK    6  A    between atoms: N3_11  and  C7_13 
REMARK    7  A    between atoms: C10_23  and  N7_24 
REMARK       I    between atoms: N7_24  and  C11_26 
ROOT
HETATM    1  C1  UNL     1      31.809  -6.193   3.147  1.00  0.00     0.090 C 
HETATM    2  C2  UNL     1      30.732  -5.572   2.319  1.00  0.00     0.109 A 
HETATM    3  N1  UNL     1      30.958  -5.164   1.050  1.00  0.00    -0.180 N 
ATOM      4  H1  UNL     1      31.890  -5.284   0.652  1.00  0.00     0.185 HD
HETATM    5  C3  UNL     1      30.000  -4.606   0.296  1.00  0.00     0.697 A 
HETATM    6  N6  UNL     1      28.782  -4.458   0.842  1.00  0.00    -0.022 N 
ATOM      7  H6  UNL     1      28.033  -4.037   0.292  1.00  0.00     0.203 HD
HETATM    8  C10 UNL     1      28.534  -4.864   2.121  1.00  0.00     0.700 A 
HETATM    9  N10 UNL     1      29.519  -5.420   2.848  1.00  0.00    -0.180 N 
ATOM     10  H10 UNL     1      29.338  -5.725   3.805  1.00  0.00     0.185 HD
ENDROOT
BRANCH   5  11
HETATM   11  N2  UNL     1      30.219  -4.230  -0.881  1.00  0.00    -0.205 N 
ATOM     12  H2  UNL     1      30.201  -3.220  -1.021  1.00  0.00     0.183 HD
BRANCH  11  13
HETATM   13  C4  UNL     1      30.486  -4.987  -2.037  1.00  0.00     0.080 C 
BRANCH  13  14
HETATM   14  C5  UNL     1      29.306  -5.204  -2.950  1.00  0.00     0.065 C 
BRANCH  14  15
HETATM   15  C6  UNL     1      28.665  -6.529  -2.513  1.00  0.00     0.126 C 
BRANCH  15  16
HETATM   16  N3  UNL     1      27.562  -6.881  -3.374  1.00  0.00    -0.373 N 
ATOM     17  H3  UNL     1      27.509  -6.478  -4.309  1.00  0.00     0.161 HD
BRANCH  16  18
HETATM   18  C7  UNL     1      26.645  -7.692  -2.984  1.00  0.00     0.147 A 
HETATM   19  N4  UNL     1      26.668  -9.034  -3.011  1.00  0.00    -0.224 N 
HETATM   20  O1  UNL     1      25.533  -9.487  -2.520  1.00  0.00    -0.155 OA
ATOM     21  H4  UNL     1      27.437  -9.608  -3.355  1.00  0.00     0.198 HD
HETATM   22  N5  UNL     1      24.769  -8.492  -2.175  1.00  0.00    -0.242 N 
HETATM   23  C8  UNL     1      25.425  -7.352  -2.446  1.00  0.00     0.076 A 
ATOM     24  H5  UNL     1      23.836  -8.566  -1.770  1.00  0.00     0.196 HD
HETATM   25  C9  UNL     1      24.923  -5.994  -2.209  1.00  0.00     0.074 C 
ENDBRANCH  16  18
ENDBRANCH  15  16
ENDBRANCH  14  15
ENDBRANCH  13  14
ENDBRANCH  11  13
ENDBRANCH   5  11
BRANCH   8  26
HETATM   26  N7  UNL     1      27.370  -4.708   2.607  1.00  0.00    -0.163 N 
HETATM   27  C11 UNL     1      26.372  -3.870   2.074  1.00  0.00     0.200 C 
HETATM   28  N8  UNL     1      26.216  -2.693   2.557  1.00  0.00    -0.373 N 
HETATM   29  N9  UNL     1      25.526  -4.287   1.014  1.00  0.00    -0.063 NA
ATOM     30  H82 UNL     1      26.824  -2.394   3.319  1.00  0.00     0.158 HD
ATOM     31  H81 UNL     1      25.493  -2.087   2.171  1.00  0.00     0.158 HD
ATOM     32  H7  UNL     1      27.141  -5.232   3.452  1.00  0.00     0.187 HD
ENDBRANCH   8  26
TORSDOF 7
ENDMDL
MODEL 2
REMARK VINA RESULT: -7.081334000      1.499      2.954
REMARK  7 active torsions:
REMARK  status: ('A' for Active; 'I' for Inactive)
REMARK    1  A    between atoms: C3_5  and  N2_6 
REMARK    2  A    between atoms: N2_6  and  C4_8 
REMARK    3  A    between atoms: C4_8  and  C5_9 
REMARK    4  A    between atoms: C5_9  and  C6_10 
REMARK    5  A    between atoms: C6_10  and  N3_11 
REMARK    6  A    between atoms: N3_11  and  C7_13 
REMARK    7  A    between atoms: C10_23  and  N7_24 
REMARK       I    between atoms: N7_24  and  C11_26 
ROOT
HETATM    1  C1  UNL     1      26.566  -3.869   2.390  1.00  0.00     0.090 C 
HETATM    2  C2  UNL     1      27.802  -4.601   1.980  1.00  0.00     0.109 A 
HETATM    3  N1  UNL     1      28.545  -4.205   0.922  1.00  0.00    -0.180 N 
ATOM      4  H1  UNL     1      28.249  -3.385   0.392  1.00  0.00     0.185 HD
HETATM    5  C3  UNL     1      29.655  -4.853   0.545  1.00  0.00     0.697 A 
HETATM    6  N6  UNL     1      30.023  -5.930   1.257  1.00  0.00    -0.022 N 
ATOM      7  H6  UNL     1      30.865  -6.444   0.995  1.00  0.00     0.203 HD
HETATM    8  C10 UNL     1      29.287  -6.346   2.328  1.00  0.00     0.700 A 
HETATM    9  N10 UNL     1      28.177  -5.671   2.679  1.00  0.00    -0.180 N 
ATOM     10  H10 UNL     1      27.624  -5.978   3.479  1.00  0.00     0.185 HD
ENDROOT
BRANCH   5  11
HETATM   11  N2  UNL     1      30.339  -4.478  -0.438  1.00  0.00    -0.205 N 
ATOM     12  H2  UNL     1      30.787  -3.569  -0.330  1.00  0.00     0.183 HD
BRANCH  11  13
HETATM   13  C4  UNL     1      30.582  -5.118  -1.668  1.00  0.00     0.080 C 
BRANCH  13  14
HETATM   14  C5  UNL     1      29.534  -4.892  -2.729  1.00  0.00     0.065 C 
BRANCH  14  15
HETATM   15  C6  UNL     1      28.754  -6.208  -2.847  1.00  0.00     0.126 C 
BRANCH  15  16
HETATM   16  N3  UNL     1      27.477  -6.117  -2.180  1.00  0.00    -0.373 N 
ATOM     17  H3  UNL     1      27.304  -5.347  -1.534  1.00  0.00     0.161 HD
BRANCH  16  18
HETATM   18  C7  UNL     1      26.555  -6.988  -2.385  1.00  0.00     0.147 A 
HETATM   19  N4  UNL     1      26.607  -8.071  -3.176  1.00  0.00    -0.224 N 
HETATM   20  O1  UNL     1      25.453  -8.702  -3.108  1.00  0.00    -0.155 OA
ATOM     21  H4  UNL     1      27.408  -8.358  -3.739  1.00  0.00     0.198 HD
HETATM   22  N5  UNL     1      24.649  -8.072  -2.302  1.00  0.00    -0.242 N 
HETATM   23  C8  UNL     1      25.297  -6.996  -1.828  1.00  0.00     0.076 A 
ATOM     24  H5  UNL     1      23.695  -8.348  -2.072  1.00  0.00     0.196 HD
HETATM   25  C9  UNL     1      24.754  -6.011  -0.886  1.00  0.00     0.074 C 
ENDBRANCH  16  18
ENDBRANCH  15  16
ENDBRANCH  14  15
ENDBRANCH  13  14
ENDBRANCH  11  13
ENDBRANCH   5  11
BRANCH   8  26
HETATM   26  N7  UNL     1      29.663  -7.370   2.981  1.00  0.00    -0.163 N 
HETATM   27  C11 UNL     1      29.553  -7.531   4.376  1.00  0.00     0.200 C 
HETATM   28  N8  UNL     1      30.565  -7.271   5.119  1.00  0.00    -0.373 N 
HETATM   29  N9  UNL     1      28.355  -7.973   4.990  1.00  0.00    -0.063 NA
ATOM     30  H82 UNL     1      31.427  -6.953   4.676  1.00  0.00     0.158 HD
ATOM     31  H81 UNL     1      30.485  -7.388   6.129  1.00  0.00     0.158 HD
ATOM     32  H7  UNL     1      30.077  -8.137   2.451  1.00  0.00     0.187 HD
ENDBRANCH   8  26
TORSDOF 7
ENDMDL
MODEL 3
REMARK VINA RESULT: -7.052041464      2.081      3.583
REMARK  7 active torsions:
REMARK  status: ('A' for Active; 'I' for Inactive)
REMARK    1  A    between atoms: C3_5  and  N2_6 
REMARK    2  A    between atoms: N2_6  and  C4_8 
REMARK    3  A    between atoms: C4_8  and  C5_9 
REMARK    4  A    between atoms: C5_9  and  C6_10 
REMARK    5  A    between atoms: C6_10  and  N3_11 
REMARK    6  A    between atoms: N3_11  and  C7_13 
REMARK    7  A    between atoms: C10_23  and  N7_24 
REMARK       I    between atoms: N7_24  and  C11_26 
ROOT
HETATM    1  C1  UNL     1      29.669  -4.849  -2.695  1.00  0.00     0.090 C 
HETATM    2  C2  UNL     1      29.133  -5.589  -1.513  1.00  0.00     0.109 A 
HETATM    3  N1  UNL     1      28.804  -6.898  -1.583  1.00  0.00    -0.180 N 
ATOM      4  H1  UNL     1      28.926  -7.390  -2.469  1.00  0.00     0.185 HD
HETATM    5  C3  UNL     1      28.323  -7.572  -0.529  1.00  0.00     0.697 A 
HETATM    6  N6  UNL     1      28.172  -6.903   0.625  1.00  0.00    -0.022 N 
ATOM      7  H6  UNL     1      27.808  -7.390   1.445  1.00  0.00     0.203 HD
HETATM    8  C10 UNL     1      28.498  -5.581   0.715  1.00  0.00     0.700 A 
HETATM    9  N10 UNL     1      28.979  -4.936  -0.362  1.00  0.00    -0.180 N 
ATOM     10  H10 UNL     1      29.224  -3.948  -0.298  1.00  0.00     0.185 HD
ENDROOT
BRANCH   5  11
HETATM   11  N2  UNL     1      28.020  -8.787  -0.604  1.00  0.00    -0.205 N 
ATOM     12  H2  UNL     1      27.685  -9.202   0.265  1.00  0.00     0.183 HD
BRANCH  11  13
HETATM   13  C4  UNL     1      28.072  -9.667  -1.701  1.00  0.00     0.080 C 
BRANCH  13  14
HETATM   14  C5  UNL     1      26.807  -9.752  -2.517  1.00  0.00     0.065 C 
BRANCH  14  15
HETATM   15  C6  UNL     1      25.649  -9.512  -1.538  1.00  0.00     0.126 C 
BRANCH  15  16
HETATM   16  N3  UNL     1      24.754  -8.493  -2.032  1.00  0.00    -0.373 N 
ATOM     17  H3  UNL     1      23.970  -8.762  -2.627  1.00  0.00     0.161 HD
BRANCH  16  18
HETATM   18  C7  UNL     1      24.927  -7.255  -1.737  1.00  0.00     0.147 A 
HETATM   19  N4  UNL     1      24.615  -6.631  -0.590  1.00  0.00    -0.224 N 
HETATM   20  O1  UNL     1      24.954  -5.363  -0.692  1.00  0.00    -0.155 OA
ATOM     21  H4  UNL     1      24.187  -7.068   0.226  1.00  0.00     0.198 HD
HETATM   22  N5  UNL     1      25.474  -5.134  -1.862  1.00  0.00    -0.242 N 
HETATM   23  C8  UNL     1      25.478  -6.289  -2.547  1.00  0.00     0.076 A 
ATOM     24  H5  UNL     1      25.818  -4.235  -2.199  1.00  0.00     0.196 HD
HETATM   25  C9  UNL     1      25.979  -6.477  -3.913  1.00  0.00     0.074 C 
ENDBRANCH  16  18
ENDBRANCH  15  16
ENDBRANCH  14  15
ENDBRANCH  13  14
ENDBRANCH  11  13
ENDBRANCH   5  11
BRANCH   8  26
HETATM   26  N7  UNL     1      28.341  -4.977   1.823  1.00  0.00    -0.163 N 
HETATM   27  C11 UNL     1      27.406  -3.952   2.065  1.00  0.00     0.200 C 
HETATM   28  N8  UNL     1      27.784  -2.729   1.993  1.00  0.00    -0.373 N 
HETATM   29  N9  UNL     1      26.054  -4.228   2.389  1.00  0.00    -0.063 NA
ATOM     30  H82 UNL     1      28.757  -2.531   1.760  1.00  0.00     0.158 HD
ATOM     31  H81 UNL     1      27.107  -1.987   2.169  1.00  0.00     0.158 HD
ATOM     32  H7  UNL     1      28.941  -5.258   2.599  1.00  0.00     0.187 HD
ENDBRANCH   8  26
TORSDOF 7
ENDMDL
MODEL 4
REMARK VINA RESULT: -7.052033614      1.874      3.284
REMARK  7 active torsions:
REMARK  status: ('A' for Active; 'I' for Inactive)
REMARK    1  A    between atoms: C3_5  and  N2_6 
REMARK    2  A    between atoms: N2_6  and  C4_8 
REMARK    3  A    between atoms: C4_8  and  C5_9 
REMARK    4  A    between atoms: C5_9  and  C6_10 
REMARK    5  A    between atoms: C6_10  and  N3_11 
REMARK    6  A    between atoms: N3_11  and  C7_13 
REMARK    7  A    between atoms: C10_23  and  N7_24 
REMARK       I    between atoms: N7_24  and  C11_26 
ROOT
HETATM    1  C1  UNL     1      26.607  -3.829   2.363  1.00  0.00     0.090 C 
HETATM    2  C2  UNL     1      27.819  -4.597   1.946  1.00  0.00     0.109 A 
HETATM    3  N1  UNL     1      28.543  -4.246   0.860  1.00  0.00    -0.180 N 
ATOM      4  H1  UNL     1      28.250  -3.436   0.313  1.00  0.00     0.185 HD
HETATM    5  C3  UNL     1      29.631  -4.927   0.475  1.00  0.00     0.697 A 
HETATM    6  N6  UNL     1      29.996  -5.989   1.211  1.00  0.00    -0.022 N 
ATOM      7  H6  UNL     1      30.821  -6.527   0.943  1.00  0.00     0.203 HD
HETATM    8  C10 UNL     1      29.279  -6.359   2.311  1.00  0.00     0.700 A 
HETATM    9  N10 UNL     1      28.191  -5.652   2.668  1.00  0.00    -0.180 N 
ATOM     10  H10 UNL     1      27.652  -5.926   3.490  1.00  0.00     0.185 HD
ENDROOT
BRANCH   5  11
HETATM   11  N2  UNL     1      30.297  -4.594  -0.535  1.00  0.00    -0.205 N 
ATOM     12  H2  UNL     1      30.895  -3.778  -0.407  1.00  0.00     0.183 HD
BRANCH  11  13
HETATM   13  C4  UNL     1      30.348  -5.174  -1.816  1.00  0.00     0.080 C 
BRANCH  13  14
HETATM   14  C5  UNL     1      29.066  -5.099  -2.607  1.00  0.00     0.065 C 
BRANCH  14  15
HETATM   15  C6  UNL     1      28.519  -6.531  -2.672  1.00  0.00     0.126 C 
BRANCH  15  16
HETATM   16  N3  UNL     1      27.677  -6.818  -1.535  1.00  0.00    -0.373 N 
ATOM     17  H3  UNL     1      28.087  -7.246  -0.705  1.00  0.00     0.161 HD
BRANCH  16  18
HETATM   18  C7  UNL     1      26.422  -6.544  -1.549  1.00  0.00     0.147 A 
HETATM   19  N4  UNL     1      25.823  -5.411  -1.153  1.00  0.00    -0.224 N 
HETATM   20  O1  UNL     1      24.524  -5.533  -1.331  1.00  0.00    -0.155 OA
ATOM     21  H4  UNL     1      26.295  -4.589  -0.776  1.00  0.00     0.198 HD
HETATM   22  N5  UNL     1      24.252  -6.704  -1.827  1.00  0.00    -0.242 N 
HETATM   23  C8  UNL     1      25.409  -7.369  -1.981  1.00  0.00     0.076 A 
ATOM     24  H5  UNL     1      23.323  -7.056  -2.059  1.00  0.00     0.196 HD
HETATM   25  C9  UNL     1      25.556  -8.729  -2.512  1.00  0.00     0.074 C 
ENDBRANCH  16  18
ENDBRANCH  15  16
ENDBRANCH  14  15
ENDBRANCH  13  14
ENDBRANCH  11  13
ENDBRANCH   5  11
BRANCH   8  26
HETATM   26  N7  UNL     1      29.651  -7.371   2.984  1.00  0.00    -0.163 N 
HETATM   27  C11 UNL     1      29.552  -7.497   4.384  1.00  0.00     0.200 C 
HETATM   28  N8  UNL     1      30.574  -7.229   5.111  1.00  0.00    -0.373 N 
HETATM   29  N9  UNL     1      28.356  -7.913   5.020  1.00  0.00    -0.063 NA
ATOM     30  H82 UNL     1      31.435  -6.930   4.653  1.00  0.00     0.158 HD
ATOM     31  H81 UNL     1      30.503  -7.321   6.124  1.00  0.00     0.158 HD
ATOM     32  H7  UNL     1      30.053  -8.154   2.470  1.00  0.00     0.187 HD
ENDBRANCH   8  26
TORSDOF 7
ENDMDL
MODEL 5
REMARK VINA RESULT: -7.050805543      1.682      3.536
REMARK  7 active torsions:
REMARK  status: ('A' for Active; 'I' for Inactive)
REMARK    1  A    between atoms: C3_5  and  N2_6 
REMARK    2  A    between atoms: N2_6  and  C4_8 
REMARK    3  A    between atoms: C4_8  and  C5_9 
REMARK    4  A    between atoms: C5_9  and  C6_10 
REMARK    5  A    between atoms: C6_10  and  N3_11 
REMARK    6  A    between atoms: N3_11  and  C7_13 
REMARK    7  A    between atoms: C10_23  and  N7_24 
REMARK       I    between atoms: N7_24  and  C11_26 
ROOT
HETATM    1  C1  UNL     1      31.226  -5.398  -1.360  1.00  0.00     0.090 C 
HETATM    2  C2  UNL     1      30.227  -5.590  -0.266  1.00  0.00     0.109 A 
HETATM    3  N1  UNL     1      29.085  -4.868  -0.212  1.00  0.00    -0.180 N 
ATOM      4  H1  UNL     1      28.906  -4.175  -0.938  1.00  0.00     0.185 HD
HETATM    5  C3  UNL     1      28.181  -5.032   0.763  1.00  0.00     0.697 A 
HETATM    6  N6  UNL     1      28.439  -5.951   1.708  1.00  0.00    -0.022 N 
ATOM      7  H6  UNL     1      27.769  -6.098   2.463  1.00  0.00     0.203 HD
HETATM    8  C10 UNL     1      29.586  -6.690   1.670  1.00  0.00     0.700 A 
HETATM    9  N10 UNL     1      30.471  -6.499   0.676  1.00  0.00    -0.180 N 
ATOM     10  H10 UNL     1      31.330  -7.050   0.645  1.00  0.00     0.185 HD
ENDROOT
BRANCH   5  11
HETATM   11  N2  UNL     1      27.124  -4.357   0.805  1.00  0.00    -0.205 N 
ATOM     12  H2  UNL     1      27.220  -3.431   1.221  1.00  0.00     0.183 HD
BRANCH  11  13
HETATM   13  C4  UNL     1      25.826  -4.681   0.367  1.00  0.00     0.080 C 
BRANCH  13  14
HETATM   14  C5  UNL     1      25.732  -5.178  -1.053  1.00  0.00     0.065 C 
BRANCH  14  15
HETATM   15  C6  UNL     1      24.697  -6.312  -1.042  1.00  0.00     0.126 C 
BRANCH  15  16
HETATM   16  N3  UNL     1      24.710  -7.038  -2.289  1.00  0.00    -0.373 N 
ATOM     17  H3  UNL     1      24.130  -6.713  -3.063  1.00  0.00     0.161 HD
BRANCH  16  18
HETATM   18  C7  UNL     1      25.436  -8.087  -2.442  1.00  0.00     0.147 A 
HETATM   19  N4  UNL     1      25.282  -9.286  -1.859  1.00  0.00    -0.224 N 
HETATM   20  O1  UNL     1      26.236 -10.089  -2.283  1.00  0.00    -0.155 OA
ATOM     21  H4  UNL     1      24.548  -9.535  -1.197  1.00  0.00     0.198 HD
HETATM   22  N5  UNL     1      27.007  -9.459  -3.120  1.00  0.00    -0.242 N 
HETATM   23  C8  UNL     1      26.544  -8.206  -3.250  1.00  0.00     0.076 A 
ATOM     24  H5  UNL     1      27.822  -9.850  -3.595  1.00  0.00     0.196 HD
HETATM   25  C9  UNL     1      27.121  -7.158  -4.100  1.00  0.00     0.074 C 
ENDBRANCH  16  18
ENDBRANCH  15  16
ENDBRANCH  14  15
ENDBRANCH  13  14
ENDBRANCH  11  13
ENDBRANCH   5  11
BRANCH   8  26
HETATM   26  N7  UNL     1      29.800  -7.550   2.581  1.00  0.00    -0.163 N 
HETATM   27  C11 UNL     1      29.651  -7.326   3.963  1.00  0.00     0.200 C 
HETATM   28  N8  UNL     1      30.681  -7.025   4.664  1.00  0.00    -0.373 N 
HETATM   29  N9  UNL     1      28.394  -7.423   4.611  1.00  0.00    -0.063 NA
ATOM     30  H82 UNL     1      31.586  -6.955   4.198  1.00  0.00     0.158 HD
ATOM     31  H81 UNL     1      30.574  -6.862   5.665  1.00  0.00     0.158 HD
ATOM     32  H7  UNL     1      30.103  -8.479   2.286  1.00  0.00     0.187 HD
ENDBRANCH   8  26
TORSDOF 7
ENDMDL
