MODEL 1
REMARK VINA RESULT: -6.720045432      0.000      0.000
REMARK  5 active torsions:
REMARK  status: ('A' for Active; 'I' for Inactive)
REMARK    1  A    between atoms: C2_2  and  N1_3 
REMARK    2  A    between atoms: N6_15  and  C5_16 
REMARK    3  A    between atoms: C5_16  and  C6_17 
REMARK    4  A    between atoms: C6_17  and  C7_18 
REMARK    5  A    between atoms: C7_18  and  C8_19 
REMARK       I    between atoms: C8_19  and  N7_21 
ROOT
HETATM    1  C1  UNL     1      32.318  -5.652   3.359  1.00  0.00     0.097 C 
HETATM    2  C2  UNL     1      31.031  -5.843   2.581  1.00  0.00     0.275 C 
HETATM    3  N2  UNL     1      30.020  -6.159   3.554  1.00  0.00    -0.315 N 
ATOM      4  H2  UNL     1      29.752  -5.415   4.198  1.00  0.00     0.166 HD
HETATM    5  C3  UNL     1      29.426  -7.281   3.688  1.00  0.00     0.193 C 
HETATM    6  N3  UNL     1      28.428  -7.471   4.718  1.00  0.00    -0.063 NA
HETATM    7  N4  UNL     1      29.701  -8.317   2.771  1.00  0.00    -0.305 N 
ATOM      8  H4  UNL     1      29.228  -9.213   2.891  1.00  0.00     0.171 HD
HETATM    9  C4  UNL     1      30.518  -8.182   1.796  1.00  0.00     0.196 C 
HETATM   10  N5  UNL     1      30.780  -9.255   0.889  1.00  0.00    -0.063 NA
HETATM   11  N6  UNL     1      31.111  -6.885   1.581  1.00  0.00    -0.306 N 
ENDROOT
BRANCH  11  12
HETATM   12  C5  UNL     1      31.754  -6.699   0.289  1.00  0.00     0.130 C 
BRANCH  12  13
HETATM   13  C6  UNL     1      30.974  -5.864  -0.676  1.00  0.00     0.029 C 
BRANCH  13  14
HETATM   14  C7  UNL     1      29.848  -6.565  -1.349  1.00  0.00     0.104 C 
BRANCH  14  15
HETATM   15  C8  UNL     1      28.500  -6.130  -0.931  1.00  0.00     0.219 C 
HETATM   16  O1  UNL     1      28.282  -5.723   0.234  1.00  0.00    -0.273 OA
HETATM   17  N7  UNL     1      27.434  -6.185  -1.889  1.00  0.00    -0.350 N 
HETATM   18  C9  UNL     1      27.832  -6.678  -3.176  1.00  0.00     0.127 C 
HETATM   19  C13 UNL     1      26.183  -5.730  -1.357  1.00  0.00     0.153 C 
HETATM   20  C10 UNL     1      26.669  -7.191  -3.995  1.00  0.00     0.047 C 
HETATM   21  C11 UNL     1      25.851  -8.097  -3.104  1.00  0.00     0.234 C 
HETATM   22  N8  UNL     1      24.790  -7.307  -2.556  1.00  0.00    -0.074 N 
HETATM   23  C12 UNL     1      25.126  -6.807  -1.264  1.00  0.00     0.252 C 
ATOM     24  H82 UNL     1      24.519  -6.554  -3.189  1.00  0.00     0.277 HD
ATOM     25  H81 UNL     1      23.910  -7.823  -2.540  1.00  0.00     0.277 HD
ENDBRANCH  14  15
ENDBRANCH  13  14
ENDBRANCH  12  13
ENDBRANCH  11  12
BRANCH   2  26
HETATM   26  N1  UNL     1      30.755  -4.576   1.910  1.00  0.00    -0.034 N 
ATOM     27  H13 UNL     1      30.258  -3.908   2.499  1.00  0.00     0.279 HD
ATOM     28  H12 UNL     1      31.591  -4.013   1.754  1.00  0.00     0.279 HD
ATOM     29  H11 UNL     1      30.257  -4.803   1.049  1.00  0.00     0.279 HD
ENDBRANCH   2  26
TORSDOF 5
ENDMDL
MODEL 2
REMARK VINA RESULT: -6.657614453      1.684      2.609
REMARK  5 active torsions:
REMARK  status: ('A' for Active; 'I' for Inactive)
REMARK    1  A    between atoms: C2_2  and  N1_3 
REMARK    2  A    between atoms: N6_15  and  C5_16 
REMARK    3  A    between atoms: C5_16  and  C6_17 
REMARK    4  A    between atoms: C6_17  and  C7_18 
REMARK    5  A    between atoms: C7_18  and  C8_19 
REMARK       I    between atoms: C8_19  and  N7_21 
ROOT
HETATM    1  C1  UNL     1      33.801  -7.488   0.600  1.00  0.00     0.097 C 
HETATM    2  C2  UNL     1      33.099  -6.146   0.545  1.00  0.00     0.275 C 
HETATM    3  N2  UNL     1      33.520  -5.428   1.719  1.00  0.00    -0.315 N 
ATOM      4  H2  UNL     1      34.497  -5.138   1.757  1.00  0.00     0.166 HD
HETATM    5  C3  UNL     1      32.786  -5.119   2.718  1.00  0.00     0.193 C 
HETATM    6  N3  UNL     1      33.338  -4.398   3.845  1.00  0.00    -0.063 NA
HETATM    7  N4  UNL     1      31.410  -5.424   2.679  1.00  0.00    -0.305 N 
ATOM      8  H4  UNL     1      30.834  -5.182   3.485  1.00  0.00     0.171 HD
HETATM    9  C4  UNL     1      30.853  -5.993   1.678  1.00  0.00     0.196 C 
HETATM   10  N5  UNL     1      29.456  -6.296   1.674  1.00  0.00    -0.063 NA
HETATM   11  N6  UNL     1      31.657  -6.249   0.507  1.00  0.00    -0.306 N 
ENDROOT
BRANCH  11  12
HETATM   12  C5  UNL     1      30.916  -6.580  -0.700  1.00  0.00     0.130 C 
BRANCH  12  13
HETATM   13  C6  UNL     1      30.385  -5.396  -1.444  1.00  0.00     0.029 C 
BRANCH  13  14
HETATM   14  C7  UNL     1      29.320  -5.702  -2.436  1.00  0.00     0.104 C 
BRANCH  14  15
HETATM   15  C8  UNL     1      27.940  -5.646  -1.911  1.00  0.00     0.219 C 
HETATM   16  O1  UNL     1      27.651  -4.935  -0.920  1.00  0.00    -0.273 OA
HETATM   17  N7  UNL     1      26.928  -6.429  -2.559  1.00  0.00    -0.350 N 
HETATM   18  C9  UNL     1      27.407  -7.196  -3.672  1.00  0.00     0.127 C 
HETATM   19  C13 UNL     1      25.636  -6.278  -1.954  1.00  0.00     0.153 C 
HETATM   20  C10 UNL     1      26.500  -8.353  -4.024  1.00  0.00     0.047 C 
HETATM   21  C11 UNL     1      26.175  -9.081  -2.739  1.00  0.00     0.234 C 
HETATM   22  N8  UNL     1      24.923  -8.572  -2.268  1.00  0.00    -0.074 N 
HETATM   23  C12 UNL     1      25.111  -7.538  -1.304  1.00  0.00     0.252 C 
ATOM     24  H82 UNL     1      24.332  -8.260  -3.039  1.00  0.00     0.277 HD
ATOM     25  H81 UNL     1      24.329  -9.317  -1.905  1.00  0.00     0.277 HD
ENDBRANCH  14  15
ENDBRANCH  13  14
ENDBRANCH  12  13
ENDBRANCH  11  12
BRANCH   2  26
HETATM   26  N1  UNL     1      33.549  -5.488  -0.678  1.00  0.00    -0.034 N 
ATOM     27  H13 UNL     1      33.290  -5.993  -1.526  1.00  0.00     0.279 HD
ATOM     28  H12 UNL     1      33.042  -4.627  -0.881  1.00  0.00     0.279 HD
ATOM     29  H11 UNL     1      34.556  -5.350  -0.582  1.00  0.00     0.279 HD
ENDBRANCH   2  26
TORSDOF 5
ENDMDL
MODEL 3
REMARK VINA RESULT: -6.475213088      1.646      2.095
REMARK  5 active torsions:
REMARK  status: ('A' for Active; 'I' for Inactive)
REMARK    1  A    between atoms: C2_2  and  N1_3 
REMARK    2  A    between atoms: N6_15  and  C5_16 
REMARK    3  A    between atoms: C5_16  and  C6_17 
REMARK    4  A    between atoms: C6_17  and  C7_18 
REMARK    5  A    between atoms: C7_18  and  C8_19 
REMARK       I    between atoms: C8_19  and  N7_21 
ROOT
HETATM    1  C1  UNL     1      29.357  -4.205   1.564  1.00  0.00     0.097 C 
HETATM    2  C2  UNL     1      29.761  -5.656   1.738  1.00  0.00     0.275 C 
HETATM    3  N2  UNL     1      30.183  -5.789   3.107  1.00  0.00    -0.315 N 
ATOM      4  H2  UNL     1      29.463  -5.698   3.823  1.00  0.00     0.166 HD
HETATM    5  C3  UNL     1      31.374  -6.012   3.511  1.00  0.00     0.193 C 
HETATM    6  N3  UNL     1      31.668  -6.117   4.924  1.00  0.00    -0.063 NA
HETATM    7  N4  UNL     1      32.393  -6.228   2.559  1.00  0.00    -0.305 N 
ATOM      8  H4  UNL     1      33.342  -6.396   2.891  1.00  0.00     0.171 HD
HETATM    9  C4  UNL     1      32.178  -6.221   1.299  1.00  0.00     0.196 C 
HETATM   10  N5  UNL     1      33.235  -6.434   0.361  1.00  0.00    -0.063 NA
HETATM   11  N6  UNL     1      30.817  -6.073   0.842  1.00  0.00    -0.306 N 
ENDROOT
BRANCH  11  12
HETATM   12  C5  UNL     1      30.588  -6.403  -0.556  1.00  0.00     0.130 C 
BRANCH  12  13
HETATM   13  C6  UNL     1      30.235  -5.234  -1.419  1.00  0.00     0.029 C 
BRANCH  13  14
HETATM   14  C7  UNL     1      29.203  -5.506  -2.456  1.00  0.00     0.104 C 
BRANCH  14  15
HETATM   15  C8  UNL     1      27.810  -5.528  -1.963  1.00  0.00     0.219 C 
HETATM   16  O1  UNL     1      27.452  -4.814  -0.998  1.00  0.00    -0.273 OA
HETATM   17  N7  UNL     1      26.868  -6.392  -2.612  1.00  0.00    -0.350 N 
HETATM   18  C9  UNL     1      27.423  -7.153  -3.694  1.00  0.00     0.127 C 
HETATM   19  C13 UNL     1      25.555  -6.313  -2.041  1.00  0.00     0.153 C 
HETATM   20  C10 UNL     1      26.602  -8.375  -4.036  1.00  0.00     0.047 C 
HETATM   21  C11 UNL     1      26.296  -9.092  -2.741  1.00  0.00     0.234 C 
HETATM   22  N8  UNL     1      25.002  -8.656  -2.311  1.00  0.00    -0.074 N 
HETATM   23  C12 UNL     1      25.098  -7.588  -1.371  1.00  0.00     0.252 C 
ATOM     24  H82 UNL     1      24.410  -8.403  -3.103  1.00  0.00     0.277 HD
ATOM     25  H81 UNL     1      24.449  -9.430  -1.943  1.00  0.00     0.277 HD
ENDBRANCH  14  15
ENDBRANCH  13  14
ENDBRANCH  12  13
ENDBRANCH  11  12
BRANCH   2  26
HETATM   26  N1  UNL     1      28.573  -6.458   1.461  1.00  0.00    -0.034 N 
ATOM     27  H13 UNL     1      27.702  -5.938   1.569  1.00  0.00     0.279 HD
ATOM     28  H12 UNL     1      28.464  -6.686   0.473  1.00  0.00     0.279 HD
ATOM     29  H11 UNL     1      28.629  -7.281   2.061  1.00  0.00     0.279 HD
ENDBRANCH   2  26
TORSDOF 5
ENDMDL
MODEL 4
REMARK VINA RESULT: -6.431686923      3.429      6.401
REMARK  5 active torsions:
REMARK  status: ('A' for Active; 'I' for Inactive)
REMARK    1  A    between atoms: C2_2  and  N1_3 
REMARK    2  A    between atoms: N6_15  and  C5_16 
REMARK    3  A    between atoms: C5_16  and  C6_17 
REMARK    4  A    between atoms: C6_17  and  C7_18 
REMARK    5  A    between atoms: C7_18  and  C8_19 
REMARK       I    between atoms: C8_19  and  N7_21 
ROOT
HETATM    1  C1  UNL     1      29.314  -5.190   2.858  1.00  0.00     0.097 C 
HETATM    2  C2  UNL     1      28.964  -4.261   1.713  1.00  0.00     0.275 C 
HETATM    3  N2  UNL     1      27.758  -3.582   2.105  1.00  0.00    -0.315 N 
ATOM      4  H2  UNL     1      27.831  -2.922   2.879  1.00  0.00     0.166 HD
HETATM    5  C3  UNL     1      26.605  -3.728   1.577  1.00  0.00     0.193 C 
HETATM    6  N3  UNL     1      25.465  -2.987   2.073  1.00  0.00    -0.063 NA
HETATM    7  N4  UNL     1      26.465  -4.567   0.452  1.00  0.00    -0.305 N 
ATOM      8  H4  UNL     1      25.539  -4.684   0.042  1.00  0.00     0.171 HD
HETATM    9  C4  UNL     1      27.451  -5.189  -0.076  1.00  0.00     0.196 C 
HETATM   10  N5  UNL     1      27.274  -6.039  -1.211  1.00  0.00    -0.063 NA
HETATM   11  N6  UNL     1      28.771  -4.946   0.454  1.00  0.00    -0.306 N 
ENDROOT
BRANCH  11  12
HETATM   12  C5  UNL     1      29.872  -5.404  -0.379  1.00  0.00     0.130 C 
BRANCH  12  13
HETATM   13  C6  UNL     1      30.568  -6.625   0.131  1.00  0.00     0.029 C 
BRANCH  13  14
HETATM   14  C7  UNL     1      31.966  -6.408   0.591  1.00  0.00     0.104 C 
BRANCH  14  15
HETATM   15  C8  UNL     1      32.927  -7.455   0.188  1.00  0.00     0.219 C 
HETATM   16  O1  UNL     1      32.827  -8.628   0.619  1.00  0.00    -0.273 OA
HETATM   17  N7  UNL     1      33.988  -7.103  -0.709  1.00  0.00    -0.350 N 
HETATM   18  C9  UNL     1      33.979  -5.726  -1.111  1.00  0.00     0.127 C 
HETATM   19  C13 UNL     1      34.843  -8.211  -1.023  1.00  0.00     0.153 C 
HETATM   20  C10 UNL     1      35.319  -5.255  -1.627  1.00  0.00     0.047 C 
HETATM   21  C11 UNL     1      36.370  -5.704  -0.637  1.00  0.00     0.234 C 
HETATM   22  N8  UNL     1      36.904  -6.942  -1.119  1.00  0.00    -0.074 N 
HETATM   23  C12 UNL     1      36.258  -8.059  -0.513  1.00  0.00     0.252 C 
ATOM     24  H82 UNL     1      36.865  -6.995  -2.137  1.00  0.00     0.277 HD
ATOM     25  H81 UNL     1      37.916  -6.984  -0.998  1.00  0.00     0.277 HD
ENDBRANCH  14  15
ENDBRANCH  13  14
ENDBRANCH  12  13
ENDBRANCH  11  12
BRANCH   2  26
HETATM   26  N1  UNL     1      30.082  -3.333   1.569  1.00  0.00    -0.034 N 
ATOM     27  H13 UNL     1      30.778  -3.643   0.891  1.00  0.00     0.279 HD
ATOM     28  H12 UNL     1      29.825  -2.464   1.102  1.00  0.00     0.279 HD
ATOM     29  H11 UNL     1      30.465  -3.190   2.504  1.00  0.00     0.279 HD
ENDBRANCH   2  26
TORSDOF 5
ENDMDL
MODEL 5
REMARK VINA RESULT: -6.428268577      1.860      2.898
REMARK  5 active torsions:
REMARK  status: ('A' for Active; 'I' for Inactive)
REMARK    1  A    between atoms: C2_2  and  N1_3 
REMARK    2  A    between atoms: N6_15  and  C5_16 
REMARK    3  A    between atoms: C5_16  and  C6_17 
REMARK    4  A    between atoms: C6_17  and  C7_18 
REMARK    5  A    between atoms: C7_18  and  C8_19 
REMARK       I    between atoms: C8_19  and  N7_21 
ROOT
HETATM    1  C1  UNL     1      33.424  -7.713   0.560  1.00  0.00     0.097 C 
HETATM    2  C2  UNL     1      32.724  -6.371   0.483  1.00  0.00     0.275 C 
HETATM    3  N2  UNL     1      33.157  -5.629   1.637  1.00  0.00    -0.315 N 
ATOM      4  H2  UNL     1      34.135  -5.340   1.659  1.00  0.00     0.166 HD
HETATM    5  C3  UNL     1      32.434  -5.297   2.635  1.00  0.00     0.193 C 
HETATM    6  N3  UNL     1      32.998  -4.553   3.742  1.00  0.00    -0.063 NA
HETATM    7  N4  UNL     1      31.057  -5.601   2.617  1.00  0.00    -0.305 N 
ATOM      8  H4  UNL     1      30.489  -5.339   3.423  1.00  0.00     0.171 HD
HETATM    9  C4  UNL     1      30.489  -6.190   1.634  1.00  0.00     0.196 C 
HETATM   10  N5  UNL     1      29.092  -6.491   1.651  1.00  0.00    -0.063 NA
HETATM   11  N6  UNL     1      31.282  -6.473   0.462  1.00  0.00    -0.306 N 
ENDROOT
BRANCH  11  12
HETATM   12  C5  UNL     1      30.527  -6.828  -0.730  1.00  0.00     0.130 C 
BRANCH  12  13
HETATM   13  C6  UNL     1      30.065  -5.660  -1.542  1.00  0.00     0.029 C 
BRANCH  13  14
HETATM   14  C7  UNL     1      29.042  -5.976  -2.575  1.00  0.00     0.104 C 
BRANCH  14  15
HETATM   15  C8  UNL     1      28.136  -7.093  -2.237  1.00  0.00     0.219 C 
HETATM   16  O1  UNL     1      28.398  -8.269  -2.583  1.00  0.00    -0.273 OA
HETATM   17  N7  UNL     1      26.938  -6.806  -1.503  1.00  0.00    -0.350 N 
HETATM   18  C9  UNL     1      26.768  -5.418  -1.184  1.00  0.00     0.127 C 
HETATM   19  C13 UNL     1      26.154  -7.976  -1.237  1.00  0.00     0.153 C 
HETATM   20  C10 UNL     1      25.334  -5.057  -0.871  1.00  0.00     0.047 C 
HETATM   21  C11 UNL     1      24.469  -5.651  -1.958  1.00  0.00     0.234 C 
HETATM   22  N8  UNL     1      23.991  -6.912  -1.477  1.00  0.00    -0.074 N 
HETATM   23  C12 UNL     1      24.811  -7.987  -1.931  1.00  0.00     0.252 C 
ATOM     24  H82 UNL     1      23.900  -6.915  -0.461  1.00  0.00     0.277 HD
ATOM     25  H81 UNL     1      23.012  -7.059  -1.723  1.00  0.00     0.277 HD
ENDBRANCH  14  15
ENDBRANCH  13  14
ENDBRANCH  12  13
ENDBRANCH  11  12
BRANCH   2  26
HETATM   26  N1  UNL     1      33.163  -5.741  -0.759  1.00  0.00    -0.034 N 
ATOM     27  H13 UNL     1      34.178  -5.706  -0.856  1.00  0.00     0.279 HD
ATOM     28  H12 UNL     1      32.973  -6.306  -1.586  1.00  0.00     0.279 HD
ATOM     29  H11 UNL     1      32.724  -4.821  -0.791  1.00  0.00     0.279 HD
ENDBRANCH   2  26
TORSDOF 5
ENDMDL
