MODEL 1
REMARK VINA RESULT: -6.378994675      0.000      0.000
REMARK  14 active torsions:
REMARK  status: ('A' for Active; 'I' for Inactive)
REMARK    1  A    between atoms: N1_1  and  C1_4 
REMARK    2  A    between atoms: N2_6  and  C2_7 
REMARK    3  A    between atoms: C2_7  and  C3_8 
REMARK    4  A    between atoms: C2_7  and  C4_11 
REMARK    5  A    between atoms: C3_8  and  O1_9 
REMARK    6  A    between atoms: C4_11  and  O2_12 
REMARK    7  A    between atoms: C4_11  and  C5_14 
REMARK    8  A    between atoms: C4_11  and  C6_17 
REMARK    9  A    between atoms: C5_14  and  O3_15 
REMARK   10  A    between atoms: C6_17  and  O4_18 
REMARK   11  A    between atoms: O4_18  and  N3_19 
REMARK   12  A    between atoms: C8_23  and  N4_24 
REMARK       I    between atoms: N4_24  and  C9_26 
REMARK   13  A    between atoms: C9_26  and  C10_28 
REMARK   14  A    between atoms: C13_36  and  C14_37 
ROOT
HETATM    1  C1  UNL     1      28.388  18.241   8.498  1.00  0.00     0.113 A 
HETATM    2  S1  UNL     1      27.024  17.415   7.904  1.00  0.00     0.008 SA
HETATM    3  N2  UNL     1      26.605  18.426   6.646  1.00  0.00    -0.314 N 
HETATM    4  C7  UNL     1      27.520  19.396   6.693  1.00  0.00     0.132 A 
HETATM    5  C8  UNL     1      28.471  19.348   7.638  1.00  0.00     0.086 A 
ENDROOT
BRANCH   5   6
HETATM    6  N4  UNL     1      29.527  20.286   7.844  1.00  0.00    -0.318 N 
HETATM    7  C9  UNL     1      29.398  21.475   8.573  1.00  0.00     0.280 C 
HETATM    8  O5  UNL     1      28.344  21.832   9.116  1.00  0.00    -0.265 OA
ATOM      9  H4  UNL     1      30.437  20.076   7.433  1.00  0.00     0.169 HD
BRANCH   7  10
HETATM   10  C10 UNL     1      30.585  22.383   8.720  1.00  0.00     0.146 A 
HETATM   11  N5  UNL     1      31.657  22.489   7.969  1.00  0.00    -0.330 N 
HETATM   12  C11 UNL     1      32.586  23.363   8.287  1.00  0.00     0.142 A 
ATOM     13  H5  UNL     1      31.767  21.898   7.145  1.00  0.00     0.168 HD
HETATM   14  N6  UNL     1      33.757  23.580   7.587  1.00  0.00    -0.327 N 
HETATM   15  C15 UNL     1      32.375  24.122   9.405  1.00  0.00     0.121 A 
HETATM   16  C12 UNL     1      34.605  24.493   8.022  1.00  0.00     0.150 A 
ATOM     17  H6  UNL     1      33.964  23.042   6.746  1.00  0.00     0.168 HD
HETATM   18  N7  UNL     1      35.836  24.741   7.312  1.00  0.00    -0.080 NA
HETATM   19  C13 UNL     1      34.435  25.284   9.146  1.00  0.00     0.140 A 
HETATM   20  N9  UNL     1      33.277  25.062   9.827  1.00  0.00    -0.341 N 
ATOM     21  H9  UNL     1      33.079  25.606  10.667  1.00  0.00     0.167 HD
HETATM   22  S2  UNL     1      30.858  23.541   9.935  1.00  0.00    -0.045 SA
BRANCH  19  23
HETATM   23  C14 UNL     1      35.391  26.267   9.576  1.00  0.00     0.284 C 
HETATM   24  N8  UNL     1      35.429  27.599   9.104  1.00  0.00    -0.056 NA
HETATM   25  O6  UNL     1      36.253  25.933  10.428  1.00  0.00    -0.269 OA
ENDBRANCH  19  23
ENDBRANCH   7  10
ENDBRANCH   5   6
BRANCH   1  26
HETATM   26  N1  UNL     1      29.165  17.926   9.505  1.00  0.00    -0.391 N 
ATOM     27  H12 UNL     1      29.555  18.536  10.224  1.00  0.00     0.157 HD
ATOM     28  H11 UNL     1      29.533  17.012   9.768  1.00  0.00     0.157 HD
ENDBRANCH   1  26
BRANCH   3  29
HETATM   29  C2  UNL     1      25.484  18.319   5.674  1.00  0.00     0.159 C 
BRANCH  29  30
HETATM   30  C3  UNL     1      25.212  19.754   5.272  1.00  0.00     0.193 C 
BRANCH  30  31
HETATM   31  O1  UNL     1      23.959  19.793   4.633  1.00  0.00    -0.399 OA
ATOM     32  H1  UNL     1      23.304  19.510   5.259  1.00  0.00     0.209 HD
ENDBRANCH  30  31
ENDBRANCH  29  30
BRANCH  29  33
HETATM   33  C4  UNL     1      25.949  17.538   4.497  1.00  0.00     0.126 C 
BRANCH  33  34
HETATM   34  O2  UNL     1      26.439  18.404   3.534  1.00  0.00    -0.383 OA
ATOM     35  H2  UNL     1      25.840  19.134   3.432  1.00  0.00     0.210 HD
ENDBRANCH  33  34
BRANCH  33  36
HETATM   36  C5  UNL     1      24.784  16.788   3.902  1.00  0.00     0.206 C 
BRANCH  36  37
HETATM   37  O3  UNL     1      24.300  17.443   2.746  1.00  0.00    -0.398 OA
ATOM     38  H3  UNL     1      24.017  16.813   2.093  1.00  0.00     0.209 HD
ENDBRANCH  36  37
ENDBRANCH  33  36
BRANCH  33  39
HETATM   39  C6  UNL     1      26.974  16.482   4.872  1.00  0.00     0.242 C 
BRANCH  39  40
HETATM   40  O4  UNL     1      28.012  16.496   3.931  1.00  0.00    -0.284 OA
BRANCH  40  41
HETATM   41  N3  UNL     1      29.188  16.175   4.477  1.00  0.00    -0.311 N 
ATOM     42  H32 UNL     1      29.916  16.861   4.678  1.00  0.00     0.184 HD
ATOM     43  H31 UNL     1      29.263  15.175   4.665  1.00  0.00     0.184 HD
ENDBRANCH  40  41
ENDBRANCH  39  40
ENDBRANCH  33  39
ENDBRANCH  29  33
ENDBRANCH   3  29
TORSDOF 14
ENDMDL
MODEL 2
REMARK VINA RESULT: -6.362704459      4.846      9.796
REMARK  14 active torsions:
REMARK  status: ('A' for Active; 'I' for Inactive)
REMARK    1  A    between atoms: N1_1  and  C1_4 
REMARK    2  A    between atoms: N2_6  and  C2_7 
REMARK    3  A    between atoms: C2_7  and  C3_8 
REMARK    4  A    between atoms: C2_7  and  C4_11 
REMARK    5  A    between atoms: C3_8  and  O1_9 
REMARK    6  A    between atoms: C4_11  and  O2_12 
REMARK    7  A    between atoms: C4_11  and  C5_14 
REMARK    8  A    between atoms: C4_11  and  C6_17 
REMARK    9  A    between atoms: C5_14  and  O3_15 
REMARK   10  A    between atoms: C6_17  and  O4_18 
REMARK   11  A    between atoms: O4_18  and  N3_19 
REMARK   12  A    between atoms: C8_23  and  N4_24 
REMARK       I    between atoms: N4_24  and  C9_26 
REMARK   13  A    between atoms: C9_26  and  C10_28 
REMARK   14  A    between atoms: C13_36  and  C14_37 
ROOT
HETATM    1  C1  UNL     1      28.767  21.435   6.880  1.00  0.00     0.113 A 
HETATM    2  S1  UNL     1      29.975  20.445   7.554  1.00  0.00     0.008 SA
HETATM    3  N2  UNL     1      29.068  19.090   7.905  1.00  0.00    -0.314 N 
HETATM    4  C7  UNL     1      27.838  19.411   7.500  1.00  0.00     0.132 A 
HETATM    5  C8  UNL     1      27.626  20.619   6.959  1.00  0.00     0.086 A 
ENDROOT
BRANCH   5   6
HETATM    6  N4  UNL     1      26.389  21.138   6.471  1.00  0.00    -0.318 N 
HETATM    7  C9  UNL     1      25.812  20.786   5.244  1.00  0.00     0.280 C 
HETATM    8  O5  UNL     1      26.324  19.981   4.455  1.00  0.00    -0.265 OA
ATOM      9  H4  UNL     1      25.892  21.811   7.054  1.00  0.00     0.169 HD
BRANCH   7  10
HETATM   10  C10 UNL     1      24.503  21.402   4.840  1.00  0.00     0.146 A 
HETATM   11  N5  UNL     1      23.364  20.824   4.538  1.00  0.00    -0.330 N 
HETATM   12  C11 UNL     1      22.330  21.566   4.208  1.00  0.00     0.142 A 
ATOM     13  H5  UNL     1      23.281  19.808   4.560  1.00  0.00     0.168 HD
HETATM   14  N6  UNL     1      21.077  21.093   3.870  1.00  0.00    -0.327 N 
HETATM   15  C15 UNL     1      22.510  22.921   4.197  1.00  0.00     0.121 A 
HETATM   16  C12 UNL     1      20.127  21.954   3.557  1.00  0.00     0.150 A 
ATOM     17  H6  UNL     1      20.888  20.091   3.863  1.00  0.00     0.168 HD
HETATM   18  N7  UNL     1      18.809  21.489   3.201  1.00  0.00    -0.080 NA
HETATM   19  C13 UNL     1      20.262  23.332   3.533  1.00  0.00     0.140 A 
HETATM   20  N9  UNL     1      21.501  23.787   3.867  1.00  0.00    -0.341 N 
ATOM     21  H9  UNL     1      21.680  24.792   3.873  1.00  0.00     0.167 HD
HETATM   22  S2  UNL     1      24.149  23.056   4.662  1.00  0.00    -0.045 SA
BRANCH  19  23
HETATM   23  C14 UNL     1      19.194  24.228   3.185  1.00  0.00     0.284 C 
HETATM   24  N8  UNL     1      18.991  24.758   1.891  1.00  0.00    -0.056 NA
HETATM   25  O6  UNL     1      18.381  24.569   4.082  1.00  0.00    -0.269 OA
ENDBRANCH  19  23
ENDBRANCH   7  10
ENDBRANCH   5   6
BRANCH   1  26
HETATM   26  N1  UNL     1      28.871  22.652   6.407  1.00  0.00    -0.391 N 
ATOM     27  H12 UNL     1      28.469  23.515   6.772  1.00  0.00     0.157 HD
ATOM     28  H11 UNL     1      29.375  22.977   5.582  1.00  0.00     0.157 HD
ENDBRANCH   1  26
BRANCH   3  29
HETATM   29  C2  UNL     1      29.484  17.803   8.524  1.00  0.00     0.159 C 
BRANCH  29  30
HETATM   30  C3  UNL     1      28.194  17.230   9.075  1.00  0.00     0.193 C 
BRANCH  30  31
HETATM   31  O1  UNL     1      28.223  17.367  10.474  1.00  0.00    -0.399 OA
ATOM     32  H1  UNL     1      28.309  16.500  10.851  1.00  0.00     0.209 HD
ENDBRANCH  30  31
ENDBRANCH  29  30
BRANCH  29  33
HETATM   33  C4  UNL     1      30.024  16.915   7.460  1.00  0.00     0.126 C 
BRANCH  33  34
HETATM   34  O2  UNL     1      29.001  16.554   6.599  1.00  0.00    -0.383 OA
ATOM     35  H2  UNL     1      29.361  16.064   5.869  1.00  0.00     0.210 HD
ENDBRANCH  33  34
BRANCH  33  36
HETATM   36  C5  UNL     1      30.573  15.659   8.087  1.00  0.00     0.206 C 
BRANCH  36  37
HETATM   37  O3  UNL     1      31.257  14.874   7.130  1.00  0.00    -0.398 OA
ATOM     38  H3  UNL     1      30.777  14.077   6.938  1.00  0.00     0.209 HD
ENDBRANCH  36  37
ENDBRANCH  33  36
BRANCH  33  39
HETATM   39  C6  UNL     1      31.185  17.548   6.714  1.00  0.00     0.242 C 
BRANCH  39  40
HETATM   40  O4  UNL     1      30.975  17.408   5.336  1.00  0.00    -0.284 OA
BRANCH  40  41
HETATM   41  N3  UNL     1      31.714  16.425   4.813  1.00  0.00    -0.311 N 
ATOM     42  H32 UNL     1      31.313  15.625   4.324  1.00  0.00     0.184 HD
ATOM     43  H31 UNL     1      32.712  16.576   4.964  1.00  0.00     0.184 HD
ENDBRANCH  40  41
ENDBRANCH  39  40
ENDBRANCH  33  39
ENDBRANCH  29  33
ENDBRANCH   3  29
TORSDOF 14
ENDMDL
MODEL 3
REMARK VINA RESULT: -6.345596702      5.515     10.139
REMARK  14 active torsions:
REMARK  status: ('A' for Active; 'I' for Inactive)
REMARK    1  A    between atoms: N1_1  and  C1_4 
REMARK    2  A    between atoms: N2_6  and  C2_7 
REMARK    3  A    between atoms: C2_7  and  C3_8 
REMARK    4  A    between atoms: C2_7  and  C4_11 
REMARK    5  A    between atoms: C3_8  and  O1_9 
REMARK    6  A    between atoms: C4_11  and  O2_12 
REMARK    7  A    between atoms: C4_11  and  C5_14 
REMARK    8  A    between atoms: C4_11  and  C6_17 
REMARK    9  A    between atoms: C5_14  and  O3_15 
REMARK   10  A    between atoms: C6_17  and  O4_18 
REMARK   11  A    between atoms: O4_18  and  N3_19 
REMARK   12  A    between atoms: C8_23  and  N4_24 
REMARK       I    between atoms: N4_24  and  C9_26 
REMARK   13  A    between atoms: C9_26  and  C10_28 
REMARK   14  A    between atoms: C13_36  and  C14_37 
ROOT
HETATM    1  C1  UNL     1      26.010  17.228   6.010  1.00  0.00     0.113 A 
HETATM    2  S1  UNL     1      27.470  16.636   6.653  1.00  0.00     0.008 SA
HETATM    3  N2  UNL     1      28.128  18.058   7.222  1.00  0.00    -0.314 N 
HETATM    4  C7  UNL     1      27.217  18.982   6.911  1.00  0.00     0.132 A 
HETATM    5  C8  UNL     1      26.096  18.604   6.280  1.00  0.00     0.086 A 
ENDROOT
BRANCH   5   6
HETATM    6  N4  UNL     1      25.015  19.441   5.870  1.00  0.00    -0.318 N 
HETATM    7  C9  UNL     1      25.049  20.289   4.755  1.00  0.00     0.280 C 
HETATM    8  O5  UNL     1      26.031  20.395   4.008  1.00  0.00    -0.265 OA
ATOM      9  H4  UNL     1      24.160  19.421   6.426  1.00  0.00     0.169 HD
BRANCH   7  10
HETATM   10  C10 UNL     1      23.845  21.123   4.425  1.00  0.00     0.146 A 
HETATM   11  N5  UNL     1      22.612  20.750   4.170  1.00  0.00    -0.330 N 
HETATM   12  C11 UNL     1      21.703  21.661   3.902  1.00  0.00     0.142 A 
ATOM     13  H5  UNL     1      22.362  19.762   4.180  1.00  0.00     0.168 HD
HETATM   14  N6  UNL     1      20.374  21.411   3.619  1.00  0.00    -0.327 N 
HETATM   15  C15 UNL     1      22.107  22.968   3.904  1.00  0.00     0.121 A 
HETATM   16  C12 UNL     1      19.569  22.426   3.367  1.00  0.00     0.150 A 
ATOM     17  H6  UNL     1      20.020  20.455   3.605  1.00  0.00     0.168 HD
HETATM   18  N7  UNL     1      18.177  22.195   3.067  1.00  0.00    -0.080 NA
HETATM   19  C13 UNL     1      19.931  23.762   3.357  1.00  0.00     0.140 A 
HETATM   20  N9  UNL     1      21.242  23.997   3.639  1.00  0.00    -0.341 N 
ATOM     21  H9  UNL     1      21.587  24.957   3.651  1.00  0.00     0.167 HD
HETATM   22  S2  UNL     1      23.764  22.817   4.291  1.00  0.00    -0.045 SA
BRANCH  19  23
HETATM   23  C14 UNL     1      19.013  24.832   3.077  1.00  0.00     0.284 C 
HETATM   24  N8  UNL     1      18.796  25.375   1.791  1.00  0.00    -0.056 NA
HETATM   25  O6  UNL     1      18.354  25.322   4.028  1.00  0.00    -0.269 OA
ENDBRANCH  19  23
ENDBRANCH   7  10
ENDBRANCH   5   6
BRANCH   1  26
HETATM   26  N1  UNL     1      25.048  16.570   5.413  1.00  0.00    -0.391 N 
ATOM     27  H12 UNL     1      24.623  15.682   5.679  1.00  0.00     0.157 HD
ATOM     28  H11 UNL     1      24.535  16.814   4.566  1.00  0.00     0.157 HD
ENDBRANCH   1  26
BRANCH   3  29
HETATM   29  C2  UNL     1      29.422  18.296   7.916  1.00  0.00     0.159 C 
BRANCH  29  30
HETATM   30  C3  UNL     1      29.130  17.946   9.361  1.00  0.00     0.193 C 
BRANCH  30  31
HETATM   31  O1  UNL     1      29.939  18.760  10.174  1.00  0.00    -0.399 OA
ATOM     32  H1  UNL     1      29.468  18.926  10.982  1.00  0.00     0.209 HD
ENDBRANCH  30  31
ENDBRANCH  29  30
BRANCH  29  33
HETATM   33  C4  UNL     1      30.438  17.363   7.360  1.00  0.00     0.126 C 
BRANCH  33  34
HETATM   34  O2  UNL     1      30.620  16.305   8.237  1.00  0.00    -0.383 OA
ATOM     35  H2  UNL     1      30.492  15.486   7.773  1.00  0.00     0.210 HD
ENDBRANCH  33  34
BRANCH  33  36
HETATM   36  C5  UNL     1      31.755  18.083   7.218  1.00  0.00     0.206 C 
BRANCH  36  37
HETATM   37  O3  UNL     1      32.837  17.218   7.502  1.00  0.00    -0.398 OA
ATOM     38  H3  UNL     1      33.614  17.713   7.732  1.00  0.00     0.209 HD
ENDBRANCH  36  37
ENDBRANCH  33  36
BRANCH  33  39
HETATM   39  C6  UNL     1      30.077  16.878   5.967  1.00  0.00     0.242 C 
BRANCH  39  40
HETATM   40  O4  UNL     1      31.118  17.198   5.086  1.00  0.00    -0.284 OA
BRANCH  40  41
HETATM   41  N3  UNL     1      31.714  16.106   4.597  1.00  0.00    -0.311 N 
ATOM     42  H32 UNL     1      31.773  15.226   5.109  1.00  0.00     0.184 HD
ATOM     43  H31 UNL     1      32.095  16.264   3.664  1.00  0.00     0.184 HD
ENDBRANCH  40  41
ENDBRANCH  39  40
ENDBRANCH  33  39
ENDBRANCH  29  33
ENDBRANCH   3  29
TORSDOF 14
ENDMDL
MODEL 4
REMARK VINA RESULT: -6.149055020      5.371      9.851
REMARK  14 active torsions:
REMARK  status: ('A' for Active; 'I' for Inactive)
REMARK    1  A    between atoms: N1_1  and  C1_4 
REMARK    2  A    between atoms: N2_6  and  C2_7 
REMARK    3  A    between atoms: C2_7  and  C3_8 
REMARK    4  A    between atoms: C2_7  and  C4_11 
REMARK    5  A    between atoms: C3_8  and  O1_9 
REMARK    6  A    between atoms: C4_11  and  O2_12 
REMARK    7  A    between atoms: C4_11  and  C5_14 
REMARK    8  A    between atoms: C4_11  and  C6_17 
REMARK    9  A    between atoms: C5_14  and  O3_15 
REMARK   10  A    between atoms: C6_17  and  O4_18 
REMARK   11  A    between atoms: O4_18  and  N3_19 
REMARK   12  A    between atoms: C8_23  and  N4_24 
REMARK       I    between atoms: N4_24  and  C9_26 
REMARK   13  A    between atoms: C9_26  and  C10_28 
REMARK   14  A    between atoms: C13_36  and  C14_37 
ROOT
HETATM    1  C1  UNL     1      27.331  20.701   8.287  1.00  0.00     0.113 A 
HETATM    2  S1  UNL     1      28.593  19.643   8.713  1.00  0.00     0.008 SA
HETATM    3  N2  UNL     1      28.204  18.335   7.754  1.00  0.00    -0.314 N 
HETATM    4  C7  UNL     1      27.101  18.724   7.111  1.00  0.00     0.132 A 
HETATM    5  C8  UNL     1      26.605  19.946   7.352  1.00  0.00     0.086 A 
ENDROOT
BRANCH   5   6
HETATM    6  N4  UNL     1      25.444  20.534   6.765  1.00  0.00    -0.318 N 
HETATM    7  C9  UNL     1      25.425  21.176   5.519  1.00  0.00     0.280 C 
HETATM    8  O5  UNL     1      26.425  21.296   4.799  1.00  0.00    -0.265 OA
ATOM      9  H4  UNL     1      24.569  20.483   7.287  1.00  0.00     0.169 HD
BRANCH   7  10
HETATM   10  C10 UNL     1      24.138  21.756   5.007  1.00  0.00     0.146 A 
HETATM   11  N5  UNL     1      23.018  21.153   4.684  1.00  0.00    -0.330 N 
HETATM   12  C11 UNL     1      22.001  21.866   4.252  1.00  0.00     0.142 A 
ATOM     13  H5  UNL     1      22.938  20.140   4.767  1.00  0.00     0.168 HD
HETATM   14  N6  UNL     1      20.770  21.364   3.879  1.00  0.00    -0.327 N 
HETATM   15  C15 UNL     1      22.178  23.219   4.163  1.00  0.00     0.121 A 
HETATM   16  C12 UNL     1      19.835  22.198   3.462  1.00  0.00     0.150 A 
ATOM     17  H6  UNL     1      20.584  20.362   3.927  1.00  0.00     0.168 HD
HETATM   18  N7  UNL     1      18.540  21.702   3.066  1.00  0.00    -0.080 NA
HETATM   19  C13 UNL     1      19.968  23.572   3.355  1.00  0.00     0.140 A 
HETATM   20  N9  UNL     1      21.186  24.056   3.725  1.00  0.00    -0.341 N 
ATOM     21  H9  UNL     1      21.362  25.059   3.676  1.00  0.00     0.167 HD
HETATM   22  S2  UNL     1      23.789  23.393   4.705  1.00  0.00    -0.045 SA
BRANCH  19  23
HETATM   23  C14 UNL     1      18.917  24.437   2.895  1.00  0.00     0.284 C 
HETATM   24  N8  UNL     1      18.733  24.815   1.545  1.00  0.00    -0.056 NA
HETATM   25  O6  UNL     1      18.102  24.893   3.736  1.00  0.00    -0.269 OA
ENDBRANCH  19  23
ENDBRANCH   7  10
ENDBRANCH   5   6
BRANCH   1  26
HETATM   26  N1  UNL     1      27.094  21.914   8.722  1.00  0.00    -0.391 N 
ATOM     27  H12 UNL     1      26.386  22.226   9.386  1.00  0.00     0.157 HD
ATOM     28  H11 UNL     1      27.570  22.784   8.482  1.00  0.00     0.157 HD
ENDBRANCH   1  26
BRANCH   3  29
HETATM   29  C2  UNL     1      28.890  17.023   7.613  1.00  0.00     0.159 C 
BRANCH  29  30
HETATM   30  C3  UNL     1      27.874  16.156   6.895  1.00  0.00     0.193 C 
BRANCH  30  31
HETATM   31  O1  UNL     1      27.442  15.164   7.793  1.00  0.00    -0.399 OA
ATOM     32  H1  UNL     1      26.514  15.025   7.650  1.00  0.00     0.209 HD
ENDBRANCH  30  31
ENDBRANCH  29  30
BRANCH  29  33
HETATM   33  C4  UNL     1      30.096  17.205   6.764  1.00  0.00     0.126 C 
BRANCH  33  34
HETATM   34  O2  UNL     1      30.269  18.553   6.492  1.00  0.00    -0.383 OA
ATOM     35  H2  UNL     1      30.755  18.652   5.682  1.00  0.00     0.210 HD
ENDBRANCH  33  34
BRANCH  33  36
HETATM   36  C5  UNL     1      29.901  16.485   5.454  1.00  0.00     0.206 C 
BRANCH  36  37
HETATM   37  O3  UNL     1      30.916  15.521   5.250  1.00  0.00    -0.398 OA
ATOM     38  H3  UNL     1      31.689  15.731   5.761  1.00  0.00     0.209 HD
ENDBRANCH  36  37
ENDBRANCH  33  36
BRANCH  33  39
HETATM   39  C6  UNL     1      31.340  16.599   7.389  1.00  0.00     0.242 C 
BRANCH  39  40
HETATM   40  O4  UNL     1      30.958  15.727   8.418  1.00  0.00    -0.284 OA
BRANCH  40  41
HETATM   41  N3  UNL     1      31.067  14.446   8.055  1.00  0.00    -0.311 N 
ATOM     42  H32 UNL     1      30.750  14.093   7.152  1.00  0.00     0.184 HD
ATOM     43  H31 UNL     1      31.500  13.878   8.783  1.00  0.00     0.184 HD
ENDBRANCH  40  41
ENDBRANCH  39  40
ENDBRANCH  33  39
ENDBRANCH  29  33
ENDBRANCH   3  29
TORSDOF 14
ENDMDL
MODEL 5
REMARK VINA RESULT: -6.010172340      4.829      9.730
REMARK  14 active torsions:
REMARK  status: ('A' for Active; 'I' for Inactive)
REMARK    1  A    between atoms: N1_1  and  C1_4 
REMARK    2  A    between atoms: N2_6  and  C2_7 
REMARK    3  A    between atoms: C2_7  and  C3_8 
REMARK    4  A    between atoms: C2_7  and  C4_11 
REMARK    5  A    between atoms: C3_8  and  O1_9 
REMARK    6  A    between atoms: C4_11  and  O2_12 
REMARK    7  A    between atoms: C4_11  and  C5_14 
REMARK    8  A    between atoms: C4_11  and  C6_17 
REMARK    9  A    between atoms: C5_14  and  O3_15 
REMARK   10  A    between atoms: C6_17  and  O4_18 
REMARK   11  A    between atoms: O4_18  and  N3_19 
REMARK   12  A    between atoms: C8_23  and  N4_24 
REMARK       I    between atoms: N4_24  and  C9_26 
REMARK   13  A    between atoms: C9_26  and  C10_28 
REMARK   14  A    between atoms: C13_36  and  C14_37 
ROOT
HETATM    1  C1  UNL     1      27.403  19.133   8.574  1.00  0.00     0.113 A 
HETATM    2  S1  UNL     1      28.977  18.525   8.788  1.00  0.00     0.008 SA
HETATM    3  N2  UNL     1      29.676  19.037   7.362  1.00  0.00    -0.314 N 
HETATM    4  C7  UNL     1      28.688  19.673   6.729  1.00  0.00     0.132 A 
HETATM    5  C8  UNL     1      27.485  19.753   7.316  1.00  0.00     0.086 A 
ENDROOT
BRANCH   5   6
HETATM    6  N4  UNL     1      26.316  20.388   6.799  1.00  0.00    -0.318 N 
HETATM    7  C9  UNL     1      25.848  20.238   5.487  1.00  0.00     0.280 C 
HETATM    8  O5  UNL     1      26.409  19.531   4.640  1.00  0.00    -0.265 OA
ATOM      9  H4  UNL     1      25.785  20.992   7.427  1.00  0.00     0.169 HD
BRANCH   7  10
HETATM   10  C10 UNL     1      24.602  20.960   5.061  1.00  0.00     0.146 A 
HETATM   11  N5  UNL     1      23.445  20.477   4.673  1.00  0.00    -0.330 N 
HETATM   12  C11 UNL     1      22.478  21.302   4.340  1.00  0.00     0.142 A 
ATOM     13  H5  UNL     1      23.298  19.468   4.630  1.00  0.00     0.168 HD
HETATM   14  N6  UNL     1      21.216  20.932   3.917  1.00  0.00    -0.327 N 
HETATM   15  C15 UNL     1      22.743  22.641   4.418  1.00  0.00     0.121 A 
HETATM   16  C12 UNL     1      20.339  21.870   3.613  1.00  0.00     0.150 A 
ATOM     17  H6  UNL     1      20.964  19.947   3.841  1.00  0.00     0.168 HD
HETATM   18  N7  UNL     1      19.014  21.514   3.169  1.00  0.00    -0.080 NA
HETATM   19  C13 UNL     1      20.561  23.236   3.677  1.00  0.00     0.140 A 
HETATM   20  N9  UNL     1      21.808  23.589   4.095  1.00  0.00    -0.341 N 
ATOM     21  H9  UNL     1      22.050  24.578   4.169  1.00  0.00     0.167 HD
HETATM   22  S2  UNL     1      24.362  22.641   4.966  1.00  0.00    -0.045 SA
BRANCH  19  23
HETATM   23  C14 UNL     1      19.570  24.219   3.335  1.00  0.00     0.284 C 
HETATM   24  N8  UNL     1      18.616  24.733   4.242  1.00  0.00    -0.056 NA
HETATM   25  O6  UNL     1      19.541  24.657   2.157  1.00  0.00    -0.269 OA
ENDBRANCH  19  23
ENDBRANCH   7  10
ENDBRANCH   5   6
BRANCH   1  26
HETATM   26  N1  UNL     1      26.373  19.046   9.378  1.00  0.00    -0.391 N 
ATOM     27  H12 UNL     1      25.474  19.524   9.317  1.00  0.00     0.157 HD
ATOM     28  H11 UNL     1      26.265  18.483  10.222  1.00  0.00     0.157 HD
ENDBRANCH   1  26
BRANCH   3  29
HETATM   29  C2  UNL     1      31.065  18.851   6.865  1.00  0.00     0.159 C 
BRANCH  29  30
HETATM   30  C3  UNL     1      31.918  19.580   7.884  1.00  0.00     0.193 C 
BRANCH  30  31
HETATM   31  O1  UNL     1      32.372  20.773   7.292  1.00  0.00    -0.399 OA
ATOM     32  H1  UNL     1      32.680  21.343   7.986  1.00  0.00     0.209 HD
ENDBRANCH  30  31
ENDBRANCH  29  30
BRANCH  29  33
HETATM   33  C4  UNL     1      31.385  17.399   6.876  1.00  0.00     0.126 C 
BRANCH  33  34
HETATM   34  O2  UNL     1      32.676  17.216   7.344  1.00  0.00    -0.383 OA
ATOM     35  H2  UNL     1      33.224  16.892   6.639  1.00  0.00     0.210 HD
ENDBRANCH  33  34
BRANCH  33  36
HETATM   36  C5  UNL     1      31.316  16.860   5.470  1.00  0.00     0.206 C 
BRANCH  36  37
HETATM   37  O3  UNL     1      30.963  15.490   5.471  1.00  0.00    -0.398 OA
ATOM     38  H3  UNL     1      30.646  15.221   4.617  1.00  0.00     0.209 HD
ENDBRANCH  36  37
ENDBRANCH  33  36
BRANCH  33  39
HETATM   39  C6  UNL     1      30.380  16.592   7.680  1.00  0.00     0.242 C 
BRANCH  39  40
HETATM   40  O4  UNL     1      31.069  15.700   8.512  1.00  0.00    -0.284 OA
BRANCH  40  41
HETATM   41  N3  UNL     1      31.000  14.443   8.063  1.00  0.00    -0.311 N 
ATOM     42  H32 UNL     1      31.823  13.892   7.820  1.00  0.00     0.184 HD
ATOM     43  H31 UNL     1      30.037  14.112   7.999  1.00  0.00     0.184 HD
ENDBRANCH  40  41
ENDBRANCH  39  40
ENDBRANCH  33  39
ENDBRANCH  29  33
ENDBRANCH   3  29
TORSDOF 14
ENDMDL
