MODEL 1
REMARK VINA RESULT: -6.952233978      0.000      0.000
REMARK  11 active torsions:
REMARK  status: ('A' for Active; 'I' for Inactive)
REMARK    1  A    between atoms: N1_1  and  C1_4 
REMARK    2  A    between atoms: N4_12  and  C5_13 
REMARK    3  A    between atoms: C5_13  and  C6_14 
REMARK    4  A    between atoms: C6_14  and  C7_15 
REMARK    5  A    between atoms: C6_14  and  N6_21 
REMARK    6  A    between atoms: C7_15  and  S1_16 
REMARK    7  A    between atoms: S1_16  and  C8_17 
REMARK    8  A    between atoms: C8_17  and  C9_18 
REMARK    9  A    between atoms: N6_21  and  C10_22 
REMARK   10  A    between atoms: N9_27  and  N10_28 
REMARK   11  A    between atoms: C15_38  and  N14_39 
ROOT
HETATM    1  C1  UNL     1      28.005  17.686  14.372  1.00  0.00     0.693 A 
HETATM    2  N2  UNL     1      28.092  18.917  13.816  1.00  0.00    -0.171 N 
ATOM      3  H2  UNL     1      28.501  19.736  14.267  1.00  0.00     0.186 HD
HETATM    4  C2  UNL     1      27.563  18.901  12.579  1.00  0.00     0.191 A 
HETATM    5  C3  UNL     1      27.374  19.817  11.565  1.00  0.00     0.126 A 
HETATM    6  N3  UNL     1      27.695  21.124  11.483  1.00  0.00    -0.346 N 
ATOM      7  H3  UNL     1      28.151  21.669  12.214  1.00  0.00     0.167 HD
HETATM    8  C4  UNL     1      27.316  21.593  10.281  1.00  0.00     0.185 A 
HETATM    9  N4  UNL     1      26.737  20.589   9.558  1.00  0.00    -0.324 N 
HETATM   10  C14 UNL     1      26.780  19.507  10.358  1.00  0.00     0.155 A 
HETATM   11  N13 UNL     1      26.374  18.219  10.199  1.00  0.00    -0.172 N 
ATOM     12  H13 UNL     1      25.929  17.930   9.328  1.00  0.00     0.186 HD
HETATM   13  C15 UNL     1      26.557  17.324  11.185  1.00  0.00     0.701 A 
HETATM   14  N15 UNL     1      27.140  17.644  12.361  1.00  0.00    -0.053 N 
HETATM   15  N16 UNL     1      27.408  16.921  13.440  1.00  0.00    -0.109 N 
ATOM     16  H16 UNL     1      27.194  15.929  13.548  1.00  0.00     0.207 HD
ENDROOT
BRANCH   9  17
HETATM   17  C5  UNL     1      26.196  20.737   8.231  1.00  0.00     0.171 C 
BRANCH  17  18
HETATM   18  C6  UNL     1      27.264  20.707   7.156  1.00  0.00     0.191 C 
BRANCH  18  19
HETATM   19  C7  UNL     1      26.665  21.074   5.788  1.00  0.00     0.115 C 
BRANCH  19  20
HETATM   20  S1  UNL     1      25.233  19.956   5.599  1.00  0.00    -0.157 SA
BRANCH  20  21
HETATM   21  C8  UNL     1      25.542  18.690   4.369  1.00  0.00     0.173 C 
BRANCH  21  22
HETATM   22  C9  UNL     1      24.325  18.143   3.743  1.00  0.00     0.240 C 
HETATM   23  N5  UNL     1      24.202  16.897   3.107  1.00  0.00    -0.061 NA
HETATM   24  O1  UNL     1      23.297  18.890   3.793  1.00  0.00    -0.276 OA
ENDBRANCH  21  22
ENDBRANCH  20  21
ENDBRANCH  19  20
ENDBRANCH  18  19
BRANCH  18  25
HETATM   25  N6  UNL     1      27.963  19.577   7.080  1.00  0.00    -0.435 NA
BRANCH  25  26
HETATM   26  C10 UNL     1      28.641  18.592   7.198  1.00  0.00     0.170 A 
HETATM   27  C11 UNL     1      28.104  17.297   7.379  1.00  0.00     0.175 A 
HETATM   28  N7  UNL     1      26.694  17.155   7.425  1.00  0.00    -0.077 NA
HETATM   29  N8  UNL     1      28.867  16.210   7.508  1.00  0.00    -0.263 N 
HETATM   30  N9  UNL     1      30.180  16.259   7.477  1.00  0.00    -0.186 N 
ATOM     31  H8  UNL     1      28.414  15.305   7.635  1.00  0.00     0.190 HD
HETATM   32  C12 UNL     1      30.762  17.453   7.307  1.00  0.00     0.183 A 
HETATM   33  N11 UNL     1      32.177  17.485   7.276  1.00  0.00    -0.077 NA
HETATM   34  C13 UNL     1      30.044  18.623   7.167  1.00  0.00     0.134 A 
HETATM   35  N12 UNL     1      30.727  19.860   6.991  1.00  0.00    -0.095 NA
BRANCH  30  36
HETATM   36  N10 UNL     1      30.943  15.111   7.613  1.00  0.00    -0.323 N 
ATOM     37 2H10 UNL     1      31.229  14.573   6.794  1.00  0.00     0.179 HD
ATOM     38 1H10 UNL     1      31.236  14.777   8.531  1.00  0.00     0.179 HD
ENDBRANCH  30  36
ENDBRANCH  25  26
ENDBRANCH  18  25
ENDBRANCH  17  18
ENDBRANCH   9  17
BRANCH  13  39
HETATM   39  N14 UNL     1      26.159  16.097  11.005  1.00  0.00    -0.233 N 
ATOM     40 2H14 UNL     1      25.751  15.846  10.105  1.00  0.00     0.174 HD
ATOM     41 1H14 UNL     1      26.266  15.426  11.766  1.00  0.00     0.174 HD
ENDBRANCH  13  39
BRANCH   1  42
HETATM   42  N1  UNL     1      28.418  17.338  15.564  1.00  0.00    -0.233 N 
ATOM     43  H12 UNL     1      27.889  17.319  16.436  1.00  0.00     0.174 HD
ATOM     44  H11 UNL     1      29.355  17.022  15.814  1.00  0.00     0.174 HD
ENDBRANCH   1  42
TORSDOF 11
ENDMDL
MODEL 2
REMARK VINA RESULT: -6.878060039      1.386      1.632
REMARK  11 active torsions:
REMARK  status: ('A' for Active; 'I' for Inactive)
REMARK    1  A    between atoms: N1_1  and  C1_4 
REMARK    2  A    between atoms: N4_12  and  C5_13 
REMARK    3  A    between atoms: C5_13  and  C6_14 
REMARK    4  A    between atoms: C6_14  and  C7_15 
REMARK    5  A    between atoms: C6_14  and  N6_21 
REMARK    6  A    between atoms: C7_15  and  S1_16 
REMARK    7  A    between atoms: S1_16  and  C8_17 
REMARK    8  A    between atoms: C8_17  and  C9_18 
REMARK    9  A    between atoms: N6_21  and  C10_22 
REMARK   10  A    between atoms: N9_27  and  N10_28 
REMARK   11  A    between atoms: C15_38  and  N14_39 
ROOT
HETATM    1  C1  UNL     1      25.566  16.746  13.609  1.00  0.00     0.693 A 
HETATM    2  N2  UNL     1      24.974  17.746  12.916  1.00  0.00    -0.171 N 
ATOM      3  H2  UNL     1      24.019  18.074  13.062  1.00  0.00     0.186 HD
HETATM    4  C2  UNL     1      25.832  18.246  12.008  1.00  0.00     0.191 A 
HETATM    5  C3  UNL     1      25.801  19.239  11.050  1.00  0.00     0.126 A 
HETATM    6  N3  UNL     1      24.823  20.099  10.699  1.00  0.00    -0.346 N 
ATOM      7  H3  UNL     1      23.893  20.140  11.115  1.00  0.00     0.167 HD
HETATM    8  C4  UNL     1      25.273  20.893   9.712  1.00  0.00     0.185 A 
HETATM    9  N4  UNL     1      26.561  20.558   9.403  1.00  0.00    -0.324 N 
HETATM   10  C14 UNL     1      26.870  19.543  10.232  1.00  0.00     0.155 A 
HETATM   11  N13 UNL     1      27.996  18.802  10.411  1.00  0.00    -0.172 N 
ATOM     12  H13 UNL     1      28.819  18.981   9.836  1.00  0.00     0.186 HD
HETATM   13  C15 UNL     1      28.029  17.834  11.344  1.00  0.00     0.701 A 
HETATM   14  N15 UNL     1      26.973  17.550  12.136  1.00  0.00    -0.053 N 
HETATM   15  N16 UNL     1      26.807  16.651  13.098  1.00  0.00    -0.109 N 
ATOM     16  H16 UNL     1      27.517  15.986  13.406  1.00  0.00     0.207 HD
ENDROOT
BRANCH   9  17
HETATM   17  C5  UNL     1      27.352  21.188   8.378  1.00  0.00     0.171 C 
BRANCH  17  18
HETATM   18  C6  UNL     1      27.312  20.436   7.062  1.00  0.00     0.191 C 
BRANCH  18  19
HETATM   19  C7  UNL     1      25.859  20.196   6.620  1.00  0.00     0.115 C 
BRANCH  19  20
HETATM   20  S1  UNL     1      25.959  19.989   4.808  1.00  0.00    -0.157 SA
BRANCH  20  21
HETATM   21  C8  UNL     1      25.708  18.283   4.323  1.00  0.00     0.173 C 
BRANCH  21  22
HETATM   22  C9  UNL     1      24.399  18.017   3.698  1.00  0.00     0.240 C 
HETATM   23  N5  UNL     1      23.254  18.827   3.783  1.00  0.00    -0.061 NA
HETATM   24  O1  UNL     1      24.320  16.943   3.022  1.00  0.00    -0.276 OA
ENDBRANCH  21  22
ENDBRANCH  20  21
ENDBRANCH  19  20
ENDBRANCH  18  19
BRANCH  18  25
HETATM   25  N6  UNL     1      28.011  19.304   7.033  1.00  0.00    -0.435 NA
BRANCH  25  26
HETATM   26  C10 UNL     1      28.702  18.333   7.185  1.00  0.00     0.170 A 
HETATM   27  C11 UNL     1      28.183  17.036   7.401  1.00  0.00     0.175 A 
HETATM   28  N7  UNL     1      26.774  16.875   7.441  1.00  0.00    -0.077 NA
HETATM   29  N8  UNL     1      28.960  15.964   7.568  1.00  0.00    -0.263 N 
HETATM   30  N9  UNL     1      30.272  16.032   7.545  1.00  0.00    -0.186 N 
ATOM     31  H8  UNL     1      28.518  15.057   7.719  1.00  0.00     0.190 HD
HETATM   32  C12 UNL     1      30.838  17.229   7.344  1.00  0.00     0.183 A 
HETATM   33  N11 UNL     1      32.253  17.280   7.323  1.00  0.00    -0.077 NA
HETATM   34  C13 UNL     1      30.104  18.383   7.163  1.00  0.00     0.134 A 
HETATM   35  N12 UNL     1      30.771  19.624   6.956  1.00  0.00    -0.095 NA
BRANCH  30  36
HETATM   36  N10 UNL     1      31.051  14.899   7.720  1.00  0.00    -0.323 N 
ATOM     37 2H10 UNL     1      31.032  14.141   7.038  1.00  0.00     0.179 HD
ATOM     38 1H10 UNL     1      31.658  14.797   8.533  1.00  0.00     0.179 HD
ENDBRANCH  30  36
ENDBRANCH  25  26
ENDBRANCH  18  25
ENDBRANCH  17  18
ENDBRANCH   9  17
BRANCH  13  39
HETATM   39  N14 UNL     1      29.122  17.140  11.493  1.00  0.00    -0.233 N 
ATOM     40 2H14 UNL     1      29.369  16.462  10.773  1.00  0.00     0.174 HD
ATOM     41 1H14 UNL     1      29.696  17.295  12.322  1.00  0.00     0.174 HD
ENDBRANCH  13  39
BRANCH   1  42
HETATM   42  N1  UNL     1      25.028  16.035  14.566  1.00  0.00    -0.233 N 
ATOM     43  H12 UNL     1      24.553  16.364  15.407  1.00  0.00     0.174 HD
ATOM     44  H11 UNL     1      24.998  15.017  14.625  1.00  0.00     0.174 HD
ENDBRANCH   1  42
TORSDOF 11
ENDMDL
MODEL 3
REMARK VINA RESULT: -6.849187986      2.141      2.293
REMARK  11 active torsions:
REMARK  status: ('A' for Active; 'I' for Inactive)
REMARK    1  A    between atoms: N1_1  and  C1_4 
REMARK    2  A    between atoms: N4_12  and  C5_13 
REMARK    3  A    between atoms: C5_13  and  C6_14 
REMARK    4  A    between atoms: C6_14  and  C7_15 
REMARK    5  A    between atoms: C6_14  and  N6_21 
REMARK    6  A    between atoms: C7_15  and  S1_16 
REMARK    7  A    between atoms: S1_16  and  C8_17 
REMARK    8  A    between atoms: C8_17  and  C9_18 
REMARK    9  A    between atoms: N6_21  and  C10_22 
REMARK   10  A    between atoms: N9_27  and  N10_28 
REMARK   11  A    between atoms: C15_38  and  N14_39 
ROOT
HETATM    1  C1  UNL     1      32.179  19.143  12.914  1.00  0.00     0.693 A 
HETATM    2  N2  UNL     1      31.861  20.194  12.123  1.00  0.00    -0.171 N 
ATOM      3  H2  UNL     1      32.432  21.031  12.004  1.00  0.00     0.186 HD
HETATM    4  C2  UNL     1      30.681  19.972  11.516  1.00  0.00     0.191 A 
HETATM    5  C3  UNL     1      29.873  20.654  10.629  1.00  0.00     0.126 A 
HETATM    6  N3  UNL     1      30.029  21.854  10.035  1.00  0.00    -0.346 N 
ATOM      7  H3  UNL     1      30.821  22.483  10.168  1.00  0.00     0.167 HD
HETATM    8  C4  UNL     1      28.972  22.088   9.238  1.00  0.00     0.185 A 
HETATM    9  N4  UNL     1      28.105  21.034   9.303  1.00  0.00    -0.324 N 
HETATM   10  C14 UNL     1      28.671  20.164  10.160  1.00  0.00     0.155 A 
HETATM   11  N13 UNL     1      28.299  18.939  10.619  1.00  0.00    -0.172 N 
ATOM     12  H13 UNL     1      27.421  18.525  10.307  1.00  0.00     0.186 HD
HETATM   13  C15 UNL     1      29.084  18.272  11.483  1.00  0.00     0.701 A 
HETATM   14  N15 UNL     1      30.257  18.767  11.933  1.00  0.00    -0.053 N 
HETATM   15  N16 UNL     1      31.161  18.275  12.771  1.00  0.00    -0.109 N 
ATOM     16  H16 UNL     1      31.093  17.371  13.238  1.00  0.00     0.207 HD
ENDROOT
BRANCH   9  17
HETATM   17  C5  UNL     1      26.854  20.952   8.593  1.00  0.00     0.171 C 
BRANCH  17  18
HETATM   18  C6  UNL     1      27.008  20.373   7.200  1.00  0.00     0.191 C 
BRANCH  18  19
HETATM   19  C7  UNL     1      25.631  20.131   6.560  1.00  0.00     0.115 C 
BRANCH  19  20
HETATM   20  S1  UNL     1      25.980  19.948   4.776  1.00  0.00    -0.157 SA
BRANCH  20  21
HETATM   21  C8  UNL     1      25.922  18.232   4.265  1.00  0.00     0.173 C 
BRANCH  21  22
HETATM   22  C9  UNL     1      24.577  17.631   4.313  1.00  0.00     0.240 C 
HETATM   23  N5  UNL     1      23.394  18.190   3.799  1.00  0.00    -0.061 NA
HETATM   24  O1  UNL     1      24.500  16.496   4.881  1.00  0.00    -0.276 OA
ENDBRANCH  21  22
ENDBRANCH  20  21
ENDBRANCH  19  20
ENDBRANCH  18  19
BRANCH  18  25
HETATM   25  N6  UNL     1      27.769  19.285   7.117  1.00  0.00    -0.435 NA
BRANCH  25  26
HETATM   26  C10 UNL     1      28.501  18.339   7.229  1.00  0.00     0.170 A 
HETATM   27  C11 UNL     1      28.039  17.024   7.470  1.00  0.00     0.175 A 
HETATM   28  N7  UNL     1      26.642  16.814   7.586  1.00  0.00    -0.077 NA
HETATM   29  N8  UNL     1      28.862  15.980   7.591  1.00  0.00    -0.263 N 
HETATM   30  N9  UNL     1      30.167  16.093   7.496  1.00  0.00    -0.186 N 
ATOM     31  H8  UNL     1      28.461  15.058   7.763  1.00  0.00     0.190 HD
HETATM   32  C12 UNL     1      30.680  17.309   7.268  1.00  0.00     0.183 A 
HETATM   33  N11 UNL     1      32.088  17.410   7.169  1.00  0.00    -0.077 NA
HETATM   34  C13 UNL     1      29.897  18.437   7.130  1.00  0.00     0.134 A 
HETATM   35  N12 UNL     1      30.508  19.702   6.890  1.00  0.00    -0.095 NA
BRANCH  30  36
HETATM   36  N10 UNL     1      30.993  14.988   7.626  1.00  0.00    -0.323 N 
ATOM     37 2H10 UNL     1      30.803  14.129   7.109  1.00  0.00     0.179 HD
ATOM     38 1H10 UNL     1      31.807  15.007   8.240  1.00  0.00     0.179 HD
ENDBRANCH  30  36
ENDBRANCH  25  26
ENDBRANCH  18  25
ENDBRANCH  17  18
ENDBRANCH   9  17
BRANCH  13  39
HETATM   39  N14 UNL     1      28.702  17.101  11.907  1.00  0.00    -0.233 N 
ATOM     40 2H14 UNL     1      29.406  16.370  12.015  1.00  0.00     0.174 HD
ATOM     41 1H14 UNL     1      27.716  16.948  12.117  1.00  0.00     0.174 HD
ENDBRANCH  13  39
BRANCH   1  42
HETATM   42  N1  UNL     1      33.252  19.019  13.651  1.00  0.00    -0.233 N 
ATOM     43  H12 UNL     1      34.206  18.819  13.350  1.00  0.00     0.174 HD
ATOM     44  H11 UNL     1      33.305  19.103  14.666  1.00  0.00     0.174 HD
ENDBRANCH   1  42
TORSDOF 11
ENDMDL
MODEL 4
REMARK VINA RESULT: -6.707855601      3.693      7.128
REMARK  11 active torsions:
REMARK  status: ('A' for Active; 'I' for Inactive)
REMARK    1  A    between atoms: N1_1  and  C1_4 
REMARK    2  A    between atoms: N4_12  and  C5_13 
REMARK    3  A    between atoms: C5_13  and  C6_14 
REMARK    4  A    between atoms: C6_14  and  C7_15 
REMARK    5  A    between atoms: C6_14  and  N6_21 
REMARK    6  A    between atoms: C7_15  and  S1_16 
REMARK    7  A    between atoms: S1_16  and  C8_17 
REMARK    8  A    between atoms: C8_17  and  C9_18 
REMARK    9  A    between atoms: N6_21  and  C10_22 
REMARK   10  A    between atoms: N9_27  and  N10_28 
REMARK   11  A    between atoms: C15_38  and  N14_39 
ROOT
HETATM    1  C1  UNL     1      27.461  16.651  -0.138  1.00  0.00     0.693 A 
HETATM    2  N2  UNL     1      26.900  17.832   0.211  1.00  0.00    -0.171 N 
ATOM      3  H2  UNL     1      26.631  18.568  -0.441  1.00  0.00     0.186 HD
HETATM    4  C2  UNL     1      26.747  17.891   1.547  1.00  0.00     0.191 A 
HETATM    5  C3  UNL     1      26.252  18.805   2.453  1.00  0.00     0.126 A 
HETATM    6  N3  UNL     1      25.711  20.027   2.270  1.00  0.00    -0.346 N 
ATOM      7  H3  UNL     1      25.587  20.492   1.370  1.00  0.00     0.167 HD
HETATM    8  C4  UNL     1      25.364  20.535   3.465  1.00  0.00     0.185 A 
HETATM    9  N4  UNL     1      25.676  19.643   4.452  1.00  0.00    -0.324 N 
HETATM   10  C14 UNL     1      26.219  18.589   3.816  1.00  0.00     0.155 A 
HETATM   11  N13 UNL     1      26.710  17.397   4.248  1.00  0.00    -0.172 N 
ATOM     12  H13 UNL     1      26.713  17.179   5.245  1.00  0.00     0.186 HD
HETATM   13  C15 UNL     1      27.194  16.503   3.368  1.00  0.00     0.701 A 
HETATM   14  N15 UNL     1      27.218  16.732   2.037  1.00  0.00    -0.053 N 
HETATM   15  N16 UNL     1      27.644  15.993   1.021  1.00  0.00    -0.109 N 
ATOM     16  H16 UNL     1      28.052  15.061   1.106  1.00  0.00     0.207 HD
ENDROOT
BRANCH   9  17
HETATM   17  C5  UNL     1      25.461  19.864   5.859  1.00  0.00     0.171 C 
BRANCH  17  18
HETATM   18  C6  UNL     1      26.732  20.244   6.594  1.00  0.00     0.191 C 
BRANCH  18  19
HETATM   19  C7  UNL     1      27.342  21.521   5.992  1.00  0.00     0.115 C 
BRANCH  19  20
HETATM   20  S1  UNL     1      26.269  22.870   6.597  1.00  0.00    -0.157 SA
BRANCH  20  21
HETATM   21  C8  UNL     1      25.765  23.959   5.266  1.00  0.00     0.173 C 
BRANCH  21  22
HETATM   22  C9  UNL     1      24.426  23.670   4.721  1.00  0.00     0.240 C 
HETATM   23  N5  UNL     1      23.945  24.036   3.452  1.00  0.00    -0.061 NA
HETATM   24  O1  UNL     1      23.645  23.028   5.491  1.00  0.00    -0.276 OA
ENDBRANCH  21  22
ENDBRANCH  20  21
ENDBRANCH  19  20
ENDBRANCH  18  19
BRANCH  18  25
HETATM   25  N6  UNL     1      27.644  19.280   6.688  1.00  0.00    -0.435 NA
BRANCH  25  26
HETATM   26  C10 UNL     1      28.393  18.379   6.951  1.00  0.00     0.170 A 
HETATM   27  C11 UNL     1      27.958  17.060   7.219  1.00  0.00     0.175 A 
HETATM   28  N7  UNL     1      26.566  16.791   7.175  1.00  0.00    -0.077 NA
HETATM   29  N8  UNL     1      28.799  16.066   7.509  1.00  0.00    -0.263 N 
HETATM   30  N9  UNL     1      30.101  16.236   7.569  1.00  0.00    -0.186 N 
ATOM     31  H8  UNL     1      28.417  15.138   7.691  1.00  0.00     0.190 HD
HETATM   32  C12 UNL     1      30.589  17.459   7.327  1.00  0.00     0.183 A 
HETATM   33  N11 UNL     1      31.993  17.621   7.397  1.00  0.00    -0.077 NA
HETATM   34  C13 UNL     1      29.785  18.538   7.020  1.00  0.00     0.134 A 
HETATM   35  N12 UNL     1      30.371  19.813   6.775  1.00  0.00    -0.095 NA
BRANCH  30  36
HETATM   36  N10 UNL     1      30.947  15.182   7.873  1.00  0.00    -0.323 N 
ATOM     37 2H10 UNL     1      30.722  14.230   7.581  1.00  0.00     0.179 HD
ATOM     38 1H10 UNL     1      31.811  15.332   8.394  1.00  0.00     0.179 HD
ENDBRANCH  30  36
ENDBRANCH  25  26
ENDBRANCH  18  25
ENDBRANCH  17  18
ENDBRANCH   9  17
BRANCH  13  39
HETATM   39  N14 UNL     1      27.658  15.369   3.810  1.00  0.00    -0.233 N 
ATOM     40 2H14 UNL     1      27.242  14.969   4.652  1.00  0.00     0.174 HD
ATOM     41 1H14 UNL     1      28.419  14.916   3.306  1.00  0.00     0.174 HD
ENDBRANCH  13  39
BRANCH   1  42
HETATM   42  N1  UNL     1      27.753  16.255  -1.350  1.00  0.00    -0.233 N 
ATOM     43  H12 UNL     1      27.159  15.756  -2.013  1.00  0.00     0.174 HD
ATOM     44  H11 UNL     1      28.641  16.385  -1.834  1.00  0.00     0.174 HD
ENDBRANCH   1  42
TORSDOF 11
ENDMDL
MODEL 5
REMARK VINA RESULT: -6.671870836      3.275      6.777
REMARK  11 active torsions:
REMARK  status: ('A' for Active; 'I' for Inactive)
REMARK    1  A    between atoms: N1_1  and  C1_4 
REMARK    2  A    between atoms: N4_12  and  C5_13 
REMARK    3  A    between atoms: C5_13  and  C6_14 
REMARK    4  A    between atoms: C6_14  and  C7_15 
REMARK    5  A    between atoms: C6_14  and  N6_21 
REMARK    6  A    between atoms: C7_15  and  S1_16 
REMARK    7  A    between atoms: S1_16  and  C8_17 
REMARK    8  A    between atoms: C8_17  and  C9_18 
REMARK    9  A    between atoms: N6_21  and  C10_22 
REMARK   10  A    between atoms: N9_27  and  N10_28 
REMARK   11  A    between atoms: C15_38  and  N14_39 
ROOT
HETATM    1  C1  UNL     1      26.865  17.103   1.508  1.00  0.00     0.693 A 
HETATM    2  N2  UNL     1      26.670  18.383   1.902  1.00  0.00    -0.171 N 
ATOM      3  H2  UNL     1      26.666  19.192   1.282  1.00  0.00     0.186 HD
HETATM    4  C2  UNL     1      26.484  18.430   3.234  1.00  0.00     0.191 A 
HETATM    5  C3  UNL     1      26.247  19.413   4.172  1.00  0.00     0.126 A 
HETATM    6  N3  UNL     1      26.108  20.748   4.038  1.00  0.00    -0.346 N 
ATOM      7  H3  UNL     1      26.169  21.265   3.161  1.00  0.00     0.167 HD
HETATM    8  C4  UNL     1      25.877  21.287   5.247  1.00  0.00     0.185 A 
HETATM    9  N4  UNL     1      25.861  20.303   6.195  1.00  0.00    -0.324 N 
HETATM   10  C14 UNL     1      26.090  19.160   5.520  1.00  0.00     0.155 A 
HETATM   11  N13 UNL     1      26.180  17.859   5.903  1.00  0.00    -0.172 N 
ATOM     12  H13 UNL     1      26.072  17.610   6.886  1.00  0.00     0.186 HD
HETATM   13  C15 UNL     1      26.410  16.898   4.991  1.00  0.00     0.701 A 
HETATM   14  N15 UNL     1      26.562  17.164   3.676  1.00  0.00    -0.053 N 
HETATM   15  N16 UNL     1      26.790  16.373   2.635  1.00  0.00    -0.109 N 
ATOM     16  H16 UNL     1      26.894  15.359   2.683  1.00  0.00     0.207 HD
ENDROOT
BRANCH   9  17
HETATM   17  C5  UNL     1      25.661  20.520   7.604  1.00  0.00     0.171 C 
BRANCH  17  18
HETATM   18  C6  UNL     1      26.952  20.460   8.396  1.00  0.00     0.191 C 
BRANCH  18  19
HETATM   19  C7  UNL     1      27.621  21.843   8.445  1.00  0.00     0.115 C 
BRANCH  19  20
HETATM   20  S1  UNL     1      28.499  21.872  10.046  1.00  0.00    -0.157 SA
BRANCH  20  21
HETATM   21  C8  UNL     1      30.275  21.786   9.827  1.00  0.00     0.173 C 
BRANCH  21  22
HETATM   22  C9  UNL     1      30.865  20.477  10.161  1.00  0.00     0.240 C 
HETATM   23  N5  UNL     1      30.257  19.456  10.910  1.00  0.00    -0.061 NA
HETATM   24  O1  UNL     1      32.040  20.273   9.719  1.00  0.00    -0.276 OA
ENDBRANCH  21  22
ENDBRANCH  20  21
ENDBRANCH  19  20
ENDBRANCH  18  19
BRANCH  18  25
HETATM   25  N6  UNL     1      27.816  19.527   8.004  1.00  0.00    -0.435 NA
BRANCH  25  26
HETATM   26  C10 UNL     1      28.549  18.593   7.816  1.00  0.00     0.170 A 
HETATM   27  C11 UNL     1      28.222  17.266   8.177  1.00  0.00     0.175 A 
HETATM   28  N7  UNL     1      26.967  17.027   8.793  1.00  0.00    -0.077 NA
HETATM   29  N8  UNL     1      29.043  16.236   7.962  1.00  0.00    -0.263 N 
HETATM   30  N9  UNL     1      30.221  16.376   7.397  1.00  0.00    -0.186 N 
ATOM     31  H8  UNL     1      28.743  15.303   8.246  1.00  0.00     0.190 HD
HETATM   32  C12 UNL     1      30.600  17.606   7.027  1.00  0.00     0.183 A 
HETATM   33  N11 UNL     1      31.873  17.735   6.421  1.00  0.00    -0.077 NA
HETATM   34  C13 UNL     1      29.810  18.721   7.214  1.00  0.00     0.134 A 
HETATM   35  N12 UNL     1      30.276  20.001   6.798  1.00  0.00    -0.095 NA
BRANCH  30  36
HETATM   36  N10 UNL     1      31.049  15.285   7.188  1.00  0.00    -0.323 N 
ATOM     37 2H10 UNL     1      30.812  14.574   6.495  1.00  0.00     0.179 HD
ATOM     38 1H10 UNL     1      31.911  15.167   7.720  1.00  0.00     0.179 HD
ENDBRANCH  30  36
ENDBRANCH  25  26
ENDBRANCH  18  25
ENDBRANCH  17  18
ENDBRANCH   9  17
BRANCH  13  39
HETATM   39  N14 UNL     1      26.491  15.659   5.387  1.00  0.00    -0.233 N 
ATOM     40 2H14 UNL     1      26.103  15.414   6.298  1.00  0.00     0.174 HD
ATOM     41 1H14 UNL     1      26.937  14.974   4.778  1.00  0.00     0.174 HD
ENDBRANCH  13  39
BRANCH   1  42
HETATM   42  N1  UNL     1      27.079  16.687   0.286  1.00  0.00    -0.233 N 
ATOM     43  H12 UNL     1      27.834  16.093  -0.056  1.00  0.00     0.174 HD
ATOM     44  H11 UNL     1      26.511  16.896  -0.535  1.00  0.00     0.174 HD
ENDBRANCH   1  42
TORSDOF 11
ENDMDL
