MODEL 1
REMARK VINA RESULT: -6.572211971      0.000      0.000
REMARK  15 active torsions:
REMARK  status: ('A' for Active; 'I' for Inactive)
REMARK    1  A    between atoms: S1_2  and  C2_3 
REMARK    2  A    between atoms: N1_5  and  O1_6 
REMARK    3  A    between atoms: N2_10  and  C5_11 
REMARK    4  A    between atoms: C5_11  and  C6_12 
REMARK    5  A    between atoms: C5_11  and  C7_17 
REMARK    6  A    between atoms: C6_12  and  N3_13 
REMARK    7  A    between atoms: C7_17  and  O3_18 
REMARK    8  A    between atoms: C7_17  and  C8_20 
REMARK    9  A    between atoms: C8_20  and  N4_21 
REMARK   10  A    between atoms: N4_21  and  O4_22 
REMARK   11  A    between atoms: N4_21  and  C9_24 
REMARK   12  A    between atoms: C11_28  and  O5_29 
REMARK   13  A    between atoms: N6_31  and  N7_32 
REMARK   14  A    between atoms: C12_35  and  N8_36 
REMARK   15  A    between atoms: C15_44  and  N11_45 
ROOT
HETATM    1  C9  UNL     1      28.267  17.868   7.383  1.00  0.00     0.172 A 
HETATM    2  N5  UNL     1      28.094  19.175   7.671  1.00  0.00    -0.331 N 
ATOM      3  H5  UNL     1      27.156  19.543   7.831  1.00  0.00     0.168 HD
HETATM    4  C10 UNL     1      29.173  20.003   7.747  1.00  0.00     0.133 A 
HETATM    5  C11 UNL     1      29.015  21.341   8.039  1.00  0.00     0.210 A 
HETATM    6  N6  UNL     1      30.091  22.126   8.107  1.00  0.00    -0.068 N 
HETATM    7  C12 UNL     1      31.331  21.623   7.892  1.00  0.00     0.700 A 
HETATM    8  N9  UNL     1      31.471  20.311   7.606  1.00  0.00    -0.172 N 
ATOM      9  H9  UNL     1      32.407  19.941   7.444  1.00  0.00     0.186 HD
HETATM   10  C13 UNL     1      30.412  19.469   7.525  1.00  0.00     0.156 A 
HETATM   11  N10 UNL     1      30.626  18.171   7.236  1.00  0.00    -0.319 N 
HETATM   12  C14 UNL     1      31.958  17.644   7.007  1.00  0.00     0.159 C 
HETATM   13  C15 UNL     1      29.531  17.366   7.166  1.00  0.00     0.149 A 
ENDROOT
BRANCH   1  14
HETATM   14  N4  UNL     1      27.141  17.008   7.304  1.00  0.00    -0.238 N 
BRANCH  14  15
HETATM   15  C8  UNL     1      26.143  17.108   6.264  1.00  0.00     0.191 C 
BRANCH  15  16
HETATM   16  C7  UNL     1      26.895  17.266   4.936  1.00  0.00     0.163 C 
BRANCH  16  17
HETATM   17  C5  UNL     1      25.931  17.595   3.830  1.00  0.00     0.144 C 
BRANCH  17  18
HETATM   18  N2  UNL     1      25.391  18.931   3.955  1.00  0.00    -0.322 N 
HETATM   19  C4  UNL     1      23.984  19.080   3.833  1.00  0.00     0.344 C 
HETATM   20  N1  UNL     1      23.380  20.373   3.842  1.00  0.00    -0.209 N 
HETATM   21  O2  UNL     1      23.237  18.048   3.713  1.00  0.00    -0.245 OA
HETATM   22  C3  UNL     1      24.173  21.525   3.530  1.00  0.00     0.177 C 
HETATM   23  C2  UNL     1      25.620  21.207   3.287  1.00  0.00     0.085 C 
HETATM   24  C16 UNL     1      26.149  20.117   4.191  1.00  0.00     0.145 C 
BRANCH  20  25
HETATM   25  O1  UNL     1      22.076  20.541   4.139  1.00  0.00    -0.283 OA
ATOM     26  H1  UNL     1      21.433  19.993   3.706  1.00  0.00     0.245 HD
ENDBRANCH  20  25
BRANCH  23  27
HETATM   27  S1  UNL     1      26.613  22.683   3.527  1.00  0.00    -0.165 SA
HETATM   28  C1  UNL     1      25.645  24.194   3.502  1.00  0.00     0.090 C 
ENDBRANCH  23  27
ENDBRANCH  17  18
BRANCH  17  29
HETATM   29  C6  UNL     1      26.651  17.454   2.508  1.00  0.00     0.257 C 
BRANCH  29  30
HETATM   30  N3  UNL     1      26.255  16.262   1.836  1.00  0.00    -0.077 N 
ATOM     31  H33 UNL     1      26.544  15.428   2.347  1.00  0.00     0.274 HD
ATOM     32  H32 UNL     1      25.245  16.126   1.876  1.00  0.00     0.274 HD
ATOM     33  H31 UNL     1      26.598  16.252   0.875  1.00  0.00     0.274 HD
ENDBRANCH  29  30
ENDBRANCH  17  29
ENDBRANCH  16  17
BRANCH  16  34
HETATM   34  O3  UNL     1      27.466  16.029   4.672  1.00  0.00    -0.392 OA
ATOM     35  H3  UNL     1      27.894  16.069   3.825  1.00  0.00     0.210 HD
ENDBRANCH  16  34
ENDBRANCH  15  16
ENDBRANCH  14  15
BRANCH  14  36
HETATM   36  O4  UNL     1      26.972  16.046   8.232  1.00  0.00    -0.286 OA
ATOM     37  H4  UNL     1      27.130  16.282   9.138  1.00  0.00     0.244 HD
ENDBRANCH  14  36
ENDBRANCH   1  14
BRANCH  13  38
HETATM   38  N11 UNL     1      29.678  16.106   6.890  1.00  0.00    -0.382 N 
ATOM     39 2H11 UNL     1      30.215  15.512   7.522  1.00  0.00     0.157 HD
ATOM     40 1H11 UNL     1      29.254  15.727   6.044  1.00  0.00     0.157 HD
ENDBRANCH  13  38
BRANCH   5  41
HETATM   41  O5  UNL     1      27.768  21.904   8.267  1.00  0.00    -0.343 OA
ATOM     42  H5  UNL     1      27.666  22.775   8.633  1.00  0.00     0.219 HD
ENDBRANCH   5  41
BRANCH   6  43
HETATM   43  N7  UNL     1      29.996  23.483   8.398  1.00  0.00    -0.322 N 
ATOM     44  H72 UNL     1      29.062  23.862   8.558  1.00  0.00     0.178 HD
ATOM     45  H71 UNL     1      30.819  24.083   8.452  1.00  0.00     0.178 HD
ENDBRANCH   6  43
BRANCH   7  46
HETATM   46  N8  UNL     1      32.362  22.398   7.960  1.00  0.00    -0.233 N 
ATOM     47  H82 UNL     1      32.279  23.395   7.761  1.00  0.00     0.174 HD
ATOM     48  H81 UNL     1      33.272  22.014   8.216  1.00  0.00     0.174 HD
ENDBRANCH   7  46
TORSDOF 15
ENDMDL
MODEL 2
REMARK VINA RESULT: -6.454153236      1.765      2.270
REMARK  15 active torsions:
REMARK  status: ('A' for Active; 'I' for Inactive)
REMARK    1  A    between atoms: S1_2  and  C2_3 
REMARK    2  A    between atoms: N1_5  and  O1_6 
REMARK    3  A    between atoms: N2_10  and  C5_11 
REMARK    4  A    between atoms: C5_11  and  C6_12 
REMARK    5  A    between atoms: C5_11  and  C7_17 
REMARK    6  A    between atoms: C6_12  and  N3_13 
REMARK    7  A    between atoms: C7_17  and  O3_18 
REMARK    8  A    between atoms: C7_17  and  C8_20 
REMARK    9  A    between atoms: C8_20  and  N4_21 
REMARK   10  A    between atoms: N4_21  and  O4_22 
REMARK   11  A    between atoms: N4_21  and  C9_24 
REMARK   12  A    between atoms: C11_28  and  O5_29 
REMARK   13  A    between atoms: N6_31  and  N7_32 
REMARK   14  A    between atoms: C12_35  and  N8_36 
REMARK   15  A    between atoms: C15_44  and  N11_45 
ROOT
HETATM    1  C9  UNL     1      27.591  17.213   8.279  1.00  0.00     0.172 A 
HETATM    2  N5  UNL     1      28.550  17.998   7.742  1.00  0.00    -0.331 N 
ATOM      3  H5  UNL     1      28.792  17.906   6.756  1.00  0.00     0.168 HD
HETATM    4  C10 UNL     1      29.194  18.912   8.521  1.00  0.00     0.133 A 
HETATM    5  C11 UNL     1      30.175  19.722   7.990  1.00  0.00     0.210 A 
HETATM    6  N6  UNL     1      30.787  20.608   8.777  1.00  0.00    -0.068 N 
HETATM    7  C12 UNL     1      30.455  20.718  10.086  1.00  0.00     0.700 A 
HETATM    8  N9  UNL     1      29.492  19.918  10.592  1.00  0.00    -0.172 N 
ATOM      9  H9  UNL     1      29.248  20.006  11.578  1.00  0.00     0.186 HD
HETATM   10  C13 UNL     1      28.838  19.002   9.838  1.00  0.00     0.156 A 
HETATM   11  N10 UNL     1      27.888  18.237  10.410  1.00  0.00    -0.319 N 
HETATM   12  C14 UNL     1      27.541  18.363  11.813  1.00  0.00     0.159 C 
HETATM   13  C15 UNL     1      27.261  17.332   9.610  1.00  0.00     0.149 A 
ENDROOT
BRANCH   1  14
HETATM   14  N4  UNL     1      26.923  16.261   7.465  1.00  0.00    -0.238 N 
BRANCH  14  15
HETATM   15  C8  UNL     1      25.996  16.629   6.420  1.00  0.00     0.191 C 
BRANCH  15  16
HETATM   16  C7  UNL     1      26.817  17.290   5.306  1.00  0.00     0.163 C 
BRANCH  16  17
HETATM   17  C5  UNL     1      25.944  17.568   4.113  1.00  0.00     0.144 C 
BRANCH  17  18
HETATM   18  N2  UNL     1      25.392  18.904   4.138  1.00  0.00    -0.322 N 
HETATM   19  C4  UNL     1      23.996  19.038   3.913  1.00  0.00     0.344 C 
HETATM   20  N1  UNL     1      23.389  20.326   3.821  1.00  0.00    -0.209 N 
HETATM   21  O2  UNL     1      23.262  17.997   3.790  1.00  0.00    -0.245 OA
HETATM   22  C3  UNL     1      24.197  21.468   3.511  1.00  0.00     0.177 C 
HETATM   23  C2  UNL     1      25.659  21.148   3.383  1.00  0.00     0.085 C 
HETATM   24  C16 UNL     1      26.127  20.105   4.371  1.00  0.00     0.145 C 
BRANCH  20  25
HETATM   25  O1  UNL     1      22.067  20.499   4.019  1.00  0.00    -0.283 OA
ATOM     26  H1  UNL     1      21.476  19.781   3.825  1.00  0.00     0.245 HD
ENDBRANCH  20  25
BRANCH  23  27
HETATM   27  S1  UNL     1      26.628  22.640   3.622  1.00  0.00    -0.165 SA
HETATM   28  C1  UNL     1      25.663  24.143   3.440  1.00  0.00     0.090 C 
ENDBRANCH  23  27
ENDBRANCH  17  18
BRANCH  17  29
HETATM   29  C6  UNL     1      26.768  17.376   2.861  1.00  0.00     0.257 C 
BRANCH  29  30
HETATM   30  N3  UNL     1      26.200  16.372   2.024  1.00  0.00    -0.077 N 
ATOM     31  H33 UNL     1      25.392  15.931   2.462  1.00  0.00     0.274 HD
ATOM     32  H32 UNL     1      25.735  16.778   1.213  1.00  0.00     0.274 HD
ATOM     33  H31 UNL     1      26.902  15.685   1.750  1.00  0.00     0.274 HD
ENDBRANCH  29  30
ENDBRANCH  17  29
ENDBRANCH  16  17
BRANCH  16  34
HETATM   34  O3  UNL     1      27.782  16.363   4.941  1.00  0.00    -0.392 OA
ATOM     35  H3  UNL     1      28.135  15.968   5.730  1.00  0.00     0.210 HD
ENDBRANCH  16  34
ENDBRANCH  15  16
ENDBRANCH  14  15
BRANCH  14  36
HETATM   36  O4  UNL     1      27.147  14.947   7.658  1.00  0.00    -0.286 OA
ATOM     37  H4  UNL     1      26.584  14.495   8.276  1.00  0.00     0.244 HD
ENDBRANCH  14  36
ENDBRANCH   1  14
BRANCH  13  38
HETATM   38  N11 UNL     1      26.337  16.568  10.109  1.00  0.00    -0.382 N 
ATOM     39 2H11 UNL     1      25.409  16.559   9.685  1.00  0.00     0.157 HD
ATOM     40 1H11 UNL     1      26.552  15.986  10.918  1.00  0.00     0.157 HD
ENDBRANCH  13  38
BRANCH   5  41
HETATM   41  O5  UNL     1      30.552  19.649   6.657  1.00  0.00    -0.343 OA
ATOM     42  H5  UNL     1      31.452  19.766   6.378  1.00  0.00     0.219 HD
ENDBRANCH   5  41
BRANCH   6  43
HETATM   43  N7  UNL     1      31.784  21.452   8.300  1.00  0.00    -0.322 N 
ATOM     44  H72 UNL     1      31.945  21.462   7.292  1.00  0.00     0.178 HD
ATOM     45  H71 UNL     1      32.336  22.041   8.923  1.00  0.00     0.178 HD
ENDBRANCH   6  43
BRANCH   7  46
HETATM   46  N8  UNL     1      31.058  21.580  10.835  1.00  0.00    -0.233 N 
ATOM     47  H82 UNL     1      32.050  21.780  10.704  1.00  0.00     0.174 HD
ATOM     48  H81 UNL     1      30.542  22.070  11.566  1.00  0.00     0.174 HD
ENDBRANCH   7  46
TORSDOF 15
ENDMDL
MODEL 3
REMARK VINA RESULT: -6.335603549      2.324      6.185
REMARK  15 active torsions:
REMARK  status: ('A' for Active; 'I' for Inactive)
REMARK    1  A    between atoms: S1_2  and  C2_3 
REMARK    2  A    between atoms: N1_5  and  O1_6 
REMARK    3  A    between atoms: N2_10  and  C5_11 
REMARK    4  A    between atoms: C5_11  and  C6_12 
REMARK    5  A    between atoms: C5_11  and  C7_17 
REMARK    6  A    between atoms: C6_12  and  N3_13 
REMARK    7  A    between atoms: C7_17  and  O3_18 
REMARK    8  A    between atoms: C7_17  and  C8_20 
REMARK    9  A    between atoms: C8_20  and  N4_21 
REMARK   10  A    between atoms: N4_21  and  O4_22 
REMARK   11  A    between atoms: N4_21  and  C9_24 
REMARK   12  A    between atoms: C11_28  and  O5_29 
REMARK   13  A    between atoms: N6_31  and  N7_32 
REMARK   14  A    between atoms: C12_35  and  N8_36 
REMARK   15  A    between atoms: C15_44  and  N11_45 
ROOT
HETATM    1  C9  UNL     1      26.238  17.134   5.357  1.00  0.00     0.172 A 
HETATM    2  N5  UNL     1      25.578  18.299   5.534  1.00  0.00    -0.331 N 
ATOM      3  H5  UNL     1      25.170  18.523   6.441  1.00  0.00     0.168 HD
HETATM    4  C10 UNL     1      25.458  19.176   4.497  1.00  0.00     0.133 A 
HETATM    5  C11 UNL     1      24.788  20.369   4.659  1.00  0.00     0.210 A 
HETATM    6  N6  UNL     1      24.687  21.207   3.625  1.00  0.00    -0.068 N 
HETATM    7  C12 UNL     1      25.234  20.896   2.426  1.00  0.00     0.700 A 
HETATM    8  N9  UNL     1      25.887  19.723   2.281  1.00  0.00    -0.172 N 
ATOM      9  H9  UNL     1      26.296  19.496   1.375  1.00  0.00     0.186 HD
HETATM   10  C13 UNL     1      26.019  18.836   3.298  1.00  0.00     0.156 A 
HETATM   11  N10 UNL     1      26.685  17.685   3.082  1.00  0.00    -0.319 N 
HETATM   12  C14 UNL     1      27.266  17.362   1.792  1.00  0.00     0.159 C 
HETATM   13  C15 UNL     1      26.790  16.828   4.133  1.00  0.00     0.149 A 
ENDROOT
BRANCH   1  14
HETATM   14  N4  UNL     1      26.361  16.223   6.439  1.00  0.00    -0.238 N 
BRANCH  14  15
HETATM   15  C8  UNL     1      27.450  16.267   7.387  1.00  0.00     0.191 C 
BRANCH  15  16
HETATM   16  C7  UNL     1      26.941  17.030   8.617  1.00  0.00     0.163 C 
BRANCH  16  17
HETATM   17  C5  UNL     1      28.066  17.800   9.253  1.00  0.00     0.144 C 
BRANCH  17  18
HETATM   18  N2  UNL     1      28.319  19.055   8.581  1.00  0.00    -0.322 N 
HETATM   19  C4  UNL     1      29.654  19.325   8.180  1.00  0.00     0.344 C 
HETATM   20  N1  UNL     1      30.007  20.581   7.603  1.00  0.00    -0.209 N 
HETATM   21  O2  UNL     1      30.562  18.436   8.332  1.00  0.00    -0.245 OA
HETATM   22  C3  UNL     1      29.164  21.719   7.820  1.00  0.00     0.177 C 
HETATM   23  C2  UNL     1      27.927  21.405   8.611  1.00  0.00     0.085 C 
HETATM   24  C16 UNL     1      27.341  20.051   8.283  1.00  0.00     0.145 C 
BRANCH  20  25
HETATM   25  O1  UNL     1      31.118  20.727   6.854  1.00  0.00    -0.283 OA
ATOM     26  H1  UNL     1      31.946  20.891   7.290  1.00  0.00     0.245 HD
ENDBRANCH  20  25
BRANCH  23  27
HETATM   27  S1  UNL     1      26.679  22.659   8.306  1.00  0.00    -0.165 SA
HETATM   28  C1  UNL     1      26.617  23.188   6.591  1.00  0.00     0.090 C 
ENDBRANCH  23  27
ENDBRANCH  17  18
BRANCH  17  29
HETATM   29  C6  UNL     1      27.717  18.053  10.701  1.00  0.00     0.257 C 
BRANCH  29  30
HETATM   30  N3  UNL     1      28.410  17.152  11.559  1.00  0.00    -0.077 N 
ATOM     31  H33 UNL     1      28.857  16.400  11.034  1.00  0.00     0.274 HD
ATOM     32  H32 UNL     1      29.246  17.580  11.957  1.00  0.00     0.274 HD
ATOM     33  H31 UNL     1      27.793  16.788  12.285  1.00  0.00     0.274 HD
ENDBRANCH  29  30
ENDBRANCH  17  29
ENDBRANCH  16  17
BRANCH  16  34
HETATM   34  O3  UNL     1      26.506  16.064   9.513  1.00  0.00    -0.392 OA
ATOM     35  H3  UNL     1      25.583  16.207   9.687  1.00  0.00     0.210 HD
ENDBRANCH  16  34
ENDBRANCH  15  16
ENDBRANCH  14  15
BRANCH  14  36
HETATM   36  O4  UNL     1      25.431  15.264   6.609  1.00  0.00    -0.286 OA
ATOM     37  H4  UNL     1      25.568  14.439   6.157  1.00  0.00     0.244 HD
ENDBRANCH  14  36
ENDBRANCH   1  14
BRANCH  13  38
HETATM   38  N11 UNL     1      27.420  15.703   3.983  1.00  0.00    -0.382 N 
ATOM     39 2H11 UNL     1      26.896  14.827   3.990  1.00  0.00     0.157 HD
ATOM     40 1H11 UNL     1      28.432  15.709   3.858  1.00  0.00     0.157 HD
ENDBRANCH  13  38
BRANCH   5  41
HETATM   41  O5  UNL     1      24.210  20.734   5.866  1.00  0.00    -0.343 OA
ATOM     42  H5  UNL     1      23.310  21.031   5.928  1.00  0.00     0.219 HD
ENDBRANCH   5  41
BRANCH   6  43
HETATM   43  N7  UNL     1      24.024  22.425   3.727  1.00  0.00    -0.322 N 
ATOM     44  H72 UNL     1      23.387  22.676   2.970  1.00  0.00     0.178 HD
ATOM     45  H71 UNL     1      24.162  23.049   4.522  1.00  0.00     0.178 HD
ENDBRANCH   6  43
BRANCH   7  46
HETATM   46  N8  UNL     1      25.127  21.718   1.435  1.00  0.00    -0.233 N 
ATOM     47  H82 UNL     1      24.743  22.653   1.573  1.00  0.00     0.174 HD
ATOM     48  H81 UNL     1      25.428  21.434   0.502  1.00  0.00     0.174 HD
ENDBRANCH   7  46
TORSDOF 15
ENDMDL
MODEL 4
REMARK VINA RESULT: -6.326155209      2.645      7.152
REMARK  15 active torsions:
REMARK  status: ('A' for Active; 'I' for Inactive)
REMARK    1  A    between atoms: S1_2  and  C2_3 
REMARK    2  A    between atoms: N1_5  and  O1_6 
REMARK    3  A    between atoms: N2_10  and  C5_11 
REMARK    4  A    between atoms: C5_11  and  C6_12 
REMARK    5  A    between atoms: C5_11  and  C7_17 
REMARK    6  A    between atoms: C6_12  and  N3_13 
REMARK    7  A    between atoms: C7_17  and  O3_18 
REMARK    8  A    between atoms: C7_17  and  C8_20 
REMARK    9  A    between atoms: C8_20  and  N4_21 
REMARK   10  A    between atoms: N4_21  and  O4_22 
REMARK   11  A    between atoms: N4_21  and  C9_24 
REMARK   12  A    between atoms: C11_28  and  O5_29 
REMARK   13  A    between atoms: N6_31  and  N7_32 
REMARK   14  A    between atoms: C12_35  and  N8_36 
REMARK   15  A    between atoms: C15_44  and  N11_45 
ROOT
HETATM    1  C9  UNL     1      24.264  19.714   3.769  1.00  0.00     0.172 A 
HETATM    2  N5  UNL     1      23.033  20.141   4.121  1.00  0.00    -0.331 N 
ATOM      3  H5  UNL     1      22.319  19.467   4.398  1.00  0.00     0.168 HD
HETATM    4  C10 UNL     1      22.744  21.472   4.104  1.00  0.00     0.133 A 
HETATM    5  C11 UNL     1      21.492  21.926   4.460  1.00  0.00     0.210 A 
HETATM    6  N6  UNL     1      21.241  23.236   4.434  1.00  0.00    -0.068 N 
HETATM    7  C12 UNL     1      22.199  24.118   4.063  1.00  0.00     0.700 A 
HETATM    8  N9  UNL     1      23.421  23.660   3.716  1.00  0.00    -0.172 N 
ATOM      9  H9  UNL     1      24.137  24.330   3.437  1.00  0.00     0.186 HD
HETATM   10  C13 UNL     1      23.730  22.341   3.725  1.00  0.00     0.156 A 
HETATM   11  N10 UNL     1      24.971  21.954   3.367  1.00  0.00    -0.319 N 
HETATM   12  C14 UNL     1      25.989  22.909   2.971  1.00  0.00     0.159 C 
HETATM   13  C15 UNL     1      25.231  20.620   3.392  1.00  0.00     0.149 A 
ENDROOT
BRANCH   1  14
HETATM   14  N4  UNL     1      24.561  18.326   3.786  1.00  0.00    -0.238 N 
BRANCH  14  15
HETATM   15  C8  UNL     1      24.954  17.619   4.983  1.00  0.00     0.191 C 
BRANCH  15  16
HETATM   16  C7  UNL     1      26.169  16.757   4.615  1.00  0.00     0.163 C 
BRANCH  16  17
HETATM   17  C5  UNL     1      26.899  16.330   5.859  1.00  0.00     0.144 C 
BRANCH  17  18
HETATM   18  N2  UNL     1      27.532  17.443   6.531  1.00  0.00    -0.322 N 
HETATM   19  C4  UNL     1      28.941  17.567   6.403  1.00  0.00     0.344 C 
HETATM   20  N1  UNL     1      29.656  18.576   7.116  1.00  0.00    -0.209 N 
HETATM   21  O2  UNL     1      29.589  16.770   5.641  1.00  0.00    -0.245 OA
HETATM   22  C3  UNL     1      29.066  19.171   8.278  1.00  0.00     0.177 C 
HETATM   23  C2  UNL     1      27.678  18.676   8.565  1.00  0.00     0.085 C 
HETATM   24  C16 UNL     1      26.865  18.431   7.315  1.00  0.00     0.145 C 
BRANCH  20  25
HETATM   25  O1  UNL     1      30.878  18.986   6.724  1.00  0.00    -0.283 OA
ATOM     26  H1  UNL     1      31.624  18.805   7.283  1.00  0.00     0.245 HD
ENDBRANCH  20  25
BRANCH  23  27
HETATM   27  S1  UNL     1      26.810  19.867   9.590  1.00  0.00    -0.165 SA
HETATM   28  C1  UNL     1      25.814  19.098  10.871  1.00  0.00     0.090 C 
ENDBRANCH  23  27
ENDBRANCH  17  18
BRANCH  17  29
HETATM   29  C6  UNL     1      25.912  15.662   6.788  1.00  0.00     0.257 C 
BRANCH  29  30
HETATM   30  N3  UNL     1      26.576  15.080   7.906  1.00  0.00    -0.077 N 
ATOM     31  H33 UNL     1      27.497  14.725   7.654  1.00  0.00     0.274 HD
ATOM     32  H32 UNL     1      26.862  15.787   8.583  1.00  0.00     0.274 HD
ATOM     33  H31 UNL     1      26.000  14.358   8.339  1.00  0.00     0.274 HD
ENDBRANCH  29  30
ENDBRANCH  17  29
ENDBRANCH  16  17
BRANCH  16  34
HETATM   34  O3  UNL     1      27.007  17.577   3.872  1.00  0.00    -0.392 OA
ATOM     35  H3  UNL     1      26.859  18.477   4.134  1.00  0.00     0.210 HD
ENDBRANCH  16  34
ENDBRANCH  15  16
ENDBRANCH  14  15
BRANCH  14  36
HETATM   36  O4  UNL     1      24.481  17.614   2.646  1.00  0.00    -0.286 OA
ATOM     37  H4  UNL     1      25.226  17.647   2.058  1.00  0.00     0.244 HD
ENDBRANCH  14  36
ENDBRANCH   1  14
BRANCH  13  38
HETATM   38  N11 UNL     1      26.410  20.190   3.057  1.00  0.00    -0.382 N 
ATOM     39 2H11 UNL     1      26.518  19.621   2.217  1.00  0.00     0.157 HD
ATOM     40 1H11 UNL     1      27.213  20.429   3.638  1.00  0.00     0.157 HD
ENDBRANCH  13  38
BRANCH   5  41
HETATM   41  O5  UNL     1      20.478  21.064   4.847  1.00  0.00    -0.343 OA
ATOM     42  H5  UNL     1      19.736  20.869   4.286  1.00  0.00     0.219 HD
ENDBRANCH   5  41
BRANCH   6  43
HETATM   43  N7  UNL     1      19.998  23.754   4.783  1.00  0.00    -0.322 N 
ATOM     44  H72 UNL     1      19.405  23.182   5.385  1.00  0.00     0.178 HD
ATOM     45  H71 UNL     1      19.683  24.666   4.455  1.00  0.00     0.178 HD
ENDBRANCH   6  43
BRANCH   7  46
HETATM   46  N8  UNL     1      21.939  25.383   4.042  1.00  0.00    -0.233 N 
ATOM     47  H82 UNL     1      21.721  25.885   4.904  1.00  0.00     0.174 HD
ATOM     48  H81 UNL     1      21.950  25.892   3.158  1.00  0.00     0.174 HD
ENDBRANCH   7  46
TORSDOF 15
ENDMDL
MODEL 5
REMARK VINA RESULT: -6.273878422      2.700      5.250
REMARK  15 active torsions:
REMARK  status: ('A' for Active; 'I' for Inactive)
REMARK    1  A    between atoms: S1_2  and  C2_3 
REMARK    2  A    between atoms: N1_5  and  O1_6 
REMARK    3  A    between atoms: N2_10  and  C5_11 
REMARK    4  A    between atoms: C5_11  and  C6_12 
REMARK    5  A    between atoms: C5_11  and  C7_17 
REMARK    6  A    between atoms: C6_12  and  N3_13 
REMARK    7  A    between atoms: C7_17  and  O3_18 
REMARK    8  A    between atoms: C7_17  and  C8_20 
REMARK    9  A    between atoms: C8_20  and  N4_21 
REMARK   10  A    between atoms: N4_21  and  O4_22 
REMARK   11  A    between atoms: N4_21  and  C9_24 
REMARK   12  A    between atoms: C11_28  and  O5_29 
REMARK   13  A    between atoms: N6_31  and  N7_32 
REMARK   14  A    between atoms: C12_35  and  N8_36 
REMARK   15  A    between atoms: C15_44  and  N11_45 
ROOT
HETATM    1  C9  UNL     1      25.285  18.375   4.390  1.00  0.00     0.172 A 
HETATM    2  N5  UNL     1      25.602  18.626   5.679  1.00  0.00    -0.331 N 
ATOM      3  H5  UNL     1      25.063  19.307   6.214  1.00  0.00     0.168 HD
HETATM    4  C10 UNL     1      26.643  17.969   6.262  1.00  0.00     0.133 A 
HETATM    5  C11 UNL     1      26.981  18.213   7.576  1.00  0.00     0.210 A 
HETATM    6  N6  UNL     1      28.006  17.553   8.120  1.00  0.00    -0.068 N 
HETATM    7  C12 UNL     1      28.712  16.652   7.396  1.00  0.00     0.700 A 
HETATM    8  N9  UNL     1      28.370  16.423   6.110  1.00  0.00    -0.172 N 
ATOM      9  H9  UNL     1      28.907  15.744   5.572  1.00  0.00     0.186 HD
HETATM   10  C13 UNL     1      27.339  17.065   5.509  1.00  0.00     0.156 A 
HETATM   11  N10 UNL     1      27.054  16.787   4.221  1.00  0.00    -0.319 N 
HETATM   12  C14 UNL     1      27.818  15.820   3.456  1.00  0.00     0.159 C 
HETATM   13  C15 UNL     1      26.010  17.457   3.663  1.00  0.00     0.149 A 
ENDROOT
BRANCH   1  14
HETATM   14  N4  UNL     1      24.200  19.062   3.785  1.00  0.00    -0.238 N 
BRANCH  14  15
HETATM   15  C8  UNL     1      24.338  20.355   3.155  1.00  0.00     0.191 C 
BRANCH  15  16
HETATM   16  C7  UNL     1      23.438  21.327   3.929  1.00  0.00     0.163 C 
BRANCH  16  17
HETATM   17  C5  UNL     1      24.127  21.782   5.187  1.00  0.00     0.144 C 
BRANCH  17  18
HETATM   18  N2  UNL     1      25.226  22.681   4.913  1.00  0.00    -0.322 N 
HETATM   19  C4  UNL     1      26.435  22.472   5.628  1.00  0.00     0.344 C 
HETATM   20  N1  UNL     1      27.533  23.373   5.494  1.00  0.00    -0.209 N 
HETATM   21  O2  UNL     1      26.553  21.464   6.408  1.00  0.00    -0.245 OA
HETATM   22  C3  UNL     1      27.300  24.702   5.010  1.00  0.00     0.177 C 
HETATM   23  C2  UNL     1      25.870  24.958   4.629  1.00  0.00     0.085 C 
HETATM   24  C16 UNL     1      25.205  23.764   3.984  1.00  0.00     0.145 C 
BRANCH  20  25
HETATM   25  O1  UNL     1      28.790  23.007   5.810  1.00  0.00    -0.283 OA
ATOM     26  H1  UNL     1      28.941  22.537   6.622  1.00  0.00     0.245 HD
ENDBRANCH  20  25
BRANCH  23  27
HETATM   27  S1  UNL     1      25.784  26.345   3.494  1.00  0.00    -0.165 SA
HETATM   28  C1  UNL     1      27.216  27.424   3.592  1.00  0.00     0.090 C 
ENDBRANCH  23  27
ENDBRANCH  17  18
BRANCH  17  29
HETATM   29  C6  UNL     1      23.111  22.467   6.070  1.00  0.00     0.257 C 
BRANCH  29  30
HETATM   30  N3  UNL     1      22.739  21.633   7.164  1.00  0.00    -0.077 N 
ATOM     31  H33 UNL     1      21.734  21.658   7.331  1.00  0.00     0.274 HD
ATOM     32  H32 UNL     1      22.833  20.645   6.932  1.00  0.00     0.274 HD
ATOM     33  H31 UNL     1      23.266  21.874   8.003  1.00  0.00     0.274 HD
ENDBRANCH  29  30
ENDBRANCH  17  29
ENDBRANCH  16  17
BRANCH  16  34
HETATM   34  O3  UNL     1      22.308  20.603   4.282  1.00  0.00    -0.392 OA
ATOM     35  H3  UNL     1      22.573  19.717   4.501  1.00  0.00     0.210 HD
ENDBRANCH  16  34
ENDBRANCH  15  16
ENDBRANCH  14  15
BRANCH  14  36
HETATM   36  O4  UNL     1      22.975  18.502   3.786  1.00  0.00    -0.286 OA
ATOM     37  H4  UNL     1      22.497  18.500   4.607  1.00  0.00     0.244 HD
ENDBRANCH  14  36
ENDBRANCH   1  14
BRANCH  13  38
HETATM   38  N11 UNL     1      25.690  17.230   2.426  1.00  0.00    -0.382 N 
ATOM     39 2H11 UNL     1      25.139  17.919   1.913  1.00  0.00     0.157 HD
ATOM     40 1H11 UNL     1      25.995  16.364   1.981  1.00  0.00     0.157 HD
ENDBRANCH  13  38
BRANCH   5  41
HETATM   41  O5  UNL     1      26.290  19.125   8.360  1.00  0.00    -0.343 OA
ATOM     42  H5  UNL     1      26.576  20.024   8.461  1.00  0.00     0.219 HD
ENDBRANCH   5  41
BRANCH   6  43
HETATM   43  N7  UNL     1      28.394  17.755   9.440  1.00  0.00    -0.322 N 
ATOM     44  H72 UNL     1      27.975  18.542   9.935  1.00  0.00     0.178 HD
ATOM     45  H71 UNL     1      29.068  17.146   9.903  1.00  0.00     0.178 HD
ENDBRANCH   6  43
BRANCH   7  46
HETATM   46  N8  UNL     1      29.702  16.022   7.937  1.00  0.00    -0.233 N 
ATOM     47  H82 UNL     1      29.630  15.029   8.157  1.00  0.00     0.174 HD
ATOM     48  H81 UNL     1      30.567  16.519   8.149  1.00  0.00     0.174 HD
ENDBRANCH   7  46
TORSDOF 15
ENDMDL
