MODEL 1
REMARK VINA RESULT: -6.882556898      0.000      0.000
REMARK  15 active torsions:
REMARK  status: ('A' for Active; 'I' for Inactive)
REMARK    1  A    between atoms: C2_2  and  N1_3 
REMARK    2  A    between atoms: C2_2  and  C11_31 
REMARK    3  A    between atoms: N1_3  and  C3_6 
REMARK    4  A    between atoms: C3_6  and  C4_7 
REMARK    5  A    between atoms: C6_11  and  N3_12 
REMARK    6  A    between atoms: C7_17  and  N5_18 
REMARK    7  A    between atoms: C11_31  and  N13_44 
REMARK    8  A    between atoms: N10_32  and  O1_34 
REMARK    9  A    between atoms: O1_34  and  S1_35 
REMARK   10  A    between atoms: S1_35  and  N11_37 
REMARK   11  A    between atoms: S1_35  and  O4_41 
REMARK   12  A    between atoms: N11_37  and  O3_39 
REMARK   13  A    between atoms: N13_44  and  C13_46 
REMARK   14  A    between atoms: C13_46  and  N14_47 
REMARK   15  A    between atoms: C13_46  and  O5_51 
ROOT
HETATM    1  O4  UNL     1      31.347  17.317   5.663  1.00  0.00    -0.147 OA
HETATM    2  C12 UNL     1      31.350  16.411   4.664  1.00  0.00     0.245 C 
HETATM    3  N12 UNL     1      31.343  15.643   3.796  1.00  0.00    -0.163 NA
ENDROOT
BRANCH   1   4
HETATM    4  S1  UNL     1      30.264  17.332   6.950  1.00  0.00     0.332 S 
HETATM    5  O2  UNL     1      28.874  17.399   6.383  1.00  0.00    -0.186 OA
BRANCH   4   6
HETATM    6  O1  UNL     1      30.514  18.649   7.992  1.00  0.00    -0.142 OA
BRANCH   6   7
HETATM    7  N10 UNL     1      29.954  19.866   7.830  1.00  0.00    -0.234 N 
HETATM    8  C11 UNL     1      29.208  20.456   8.696  1.00  0.00     0.132 C 
ATOM      9  H10 UNL     1      30.137  20.356   6.954  1.00  0.00     0.197 HD
BRANCH   8  10
HETATM   10  C2  UNL     1      28.607  21.794   8.491  1.00  0.00     0.251 C 
HETATM   11  C1  UNL     1      29.500  22.547   7.527  1.00  0.00     0.048 C 
BRANCH  10  12
HETATM   12  N1  UNL     1      27.230  21.714   8.011  1.00  0.00    -0.059 N 
ATOM     13  H12 UNL     1      26.787  20.818   8.216  1.00  0.00     0.278 HD
ATOM     14  H11 UNL     1      26.588  22.303   8.540  1.00  0.00     0.278 HD
BRANCH  12  15
HETATM   15  C3  UNL     1      27.250  22.021   6.618  1.00  0.00     0.294 C 
BRANCH  15  16
HETATM   16  C4  UNL     1      26.665  20.976   5.754  1.00  0.00     0.082 A 
HETATM   17  N2  UNL     1      26.488  19.701   6.117  1.00  0.00    -0.349 N 
HETATM   18  C5  UNL     1      25.932  18.845   5.209  1.00  0.00     0.124 A 
ATOM     19  H2  UNL     1      26.759  19.377   7.045  1.00  0.00     0.166 HD
HETATM   20  C6  UNL     1      25.720  17.522   5.513  1.00  0.00     0.145 A 
HETATM   21  C8  UNL     1      25.560  19.268   3.949  1.00  0.00     0.175 A 
HETATM   22  N4  UNL     1      25.167  16.710   4.584  1.00  0.00    -0.175 N 
HETATM   23  C7  UNL     1      24.807  17.127   3.363  1.00  0.00     0.679 A 
ATOM     24  H4  UNL     1      25.016  15.730   4.825  1.00  0.00     0.186 HD
HETATM   25  N6  UNL     1      25.009  18.423   3.047  1.00  0.00    -0.172 N 
ATOM     26  H6  UNL     1      24.745  18.767   2.123  1.00  0.00     0.186 HD
HETATM   27  N7  UNL     1      25.741  20.549   3.589  1.00  0.00    -0.218 N 
HETATM   28  N8  UNL     1      25.469  21.190   2.452  1.00  0.00    -0.286 N 
HETATM   29  C10 UNL     1      26.282  21.383   4.475  1.00  0.00     0.154 A 
HETATM   30  C9  UNL     1      25.840  22.455   2.607  1.00  0.00     0.199 A 
ATOM     31  H8  UNL     1      25.052  20.783   1.615  1.00  0.00     0.188 HD
HETATM   32  N9  UNL     1      26.340  22.583   3.843  1.00  0.00    -0.334 N 
ATOM     33  H9  UNL     1      26.706  23.445   4.246  1.00  0.00     0.168 HD
BRANCH  20  34
HETATM   34  N3  UNL     1      26.041  17.057   6.663  1.00  0.00    -0.383 N 
ATOM     35  H32 UNL     1      25.523  17.346   7.493  1.00  0.00     0.157 HD
ATOM     36  H31 UNL     1      26.812  16.398   6.760  1.00  0.00     0.157 HD
ENDBRANCH  20  34
BRANCH  23  37
HETATM   37  N5  UNL     1      24.280  16.379   2.463  1.00  0.00    -0.234 N 
ATOM     38  H52 UNL     1      24.559  15.398   2.452  1.00  0.00     0.174 HD
ATOM     39  H51 UNL     1      23.608  16.697   1.766  1.00  0.00     0.174 HD
ENDBRANCH  23  37
ENDBRANCH  15  16
ENDBRANCH  12  15
ENDBRANCH  10  12
ENDBRANCH   8  10
BRANCH   8  40
HETATM   40  N13 UNL     1      28.947  19.784   9.918  1.00  0.00    -0.328 N 
ATOM     41  H13 UNL     1      29.453  20.056  10.761  1.00  0.00     0.165 HD
BRANCH  40  42
HETATM   42  C13 UNL     1      27.980  18.726   9.984  1.00  0.00     0.424 C 
BRANCH  42  43
HETATM   43  N14 UNL     1      28.594  17.444  10.306  1.00  0.00    -0.035 N 
ATOM     44 3H14 UNL     1      29.532  17.568  10.689  1.00  0.00     0.279 HD
ATOM     45 2H14 UNL     1      28.147  17.013  11.114  1.00  0.00     0.279 HD
ATOM     46 1H14 UNL     1      28.602  16.813   9.506  1.00  0.00     0.279 HD
ENDBRANCH  42  43
BRANCH  42  47
HETATM   47  O5  UNL     1      27.390  18.566   8.717  1.00  0.00    -0.355 OA
ATOM     48  H5  UNL     1      26.671  19.180   8.632  1.00  0.00     0.213 HD
ENDBRANCH  42  47
ENDBRANCH  40  42
ENDBRANCH   8  40
ENDBRANCH   6   7
ENDBRANCH   4   6
BRANCH   4  49
HETATM   49  N11 UNL     1      30.376  15.956   7.708  1.00  0.00    -0.181 N 
ATOM     50  H11 UNL     1      29.595  15.303   7.765  1.00  0.00     0.208 HD
BRANCH  49  51
HETATM   51  O3  UNL     1      31.604  15.691   8.294  1.00  0.00    -0.279 OA
ATOM     52  H3  UNL     1      32.268  15.335   7.715  1.00  0.00     0.245 HD
ENDBRANCH  49  51
ENDBRANCH   4  49
ENDBRANCH   1   4
TORSDOF 15
ENDMDL
MODEL 2
REMARK VINA RESULT: -6.851562177      2.149      4.682
REMARK  15 active torsions:
REMARK  status: ('A' for Active; 'I' for Inactive)
REMARK    1  A    between atoms: C2_2  and  N1_3 
REMARK    2  A    between atoms: C2_2  and  C11_31 
REMARK    3  A    between atoms: N1_3  and  C3_6 
REMARK    4  A    between atoms: C3_6  and  C4_7 
REMARK    5  A    between atoms: C6_11  and  N3_12 
REMARK    6  A    between atoms: C7_17  and  N5_18 
REMARK    7  A    between atoms: C11_31  and  N13_44 
REMARK    8  A    between atoms: N10_32  and  O1_34 
REMARK    9  A    between atoms: O1_34  and  S1_35 
REMARK   10  A    between atoms: S1_35  and  N11_37 
REMARK   11  A    between atoms: S1_35  and  O4_41 
REMARK   12  A    between atoms: N11_37  and  O3_39 
REMARK   13  A    between atoms: N13_44  and  C13_46 
REMARK   14  A    between atoms: C13_46  and  N14_47 
REMARK   15  A    between atoms: C13_46  and  O5_51 
ROOT
HETATM    1  O4  UNL     1      29.825  20.170   8.968  1.00  0.00    -0.147 OA
HETATM    2  C12 UNL     1      29.653  19.192   9.880  1.00  0.00     0.245 C 
HETATM    3  N12 UNL     1      29.519  18.357  10.672  1.00  0.00    -0.163 NA
ENDROOT
BRANCH   1   4
HETATM    4  S1  UNL     1      30.678  20.009   7.528  1.00  0.00     0.332 S 
HETATM    5  O2  UNL     1      30.832  21.378   6.927  1.00  0.00    -0.186 OA
BRANCH   4   6
HETATM    6  O1  UNL     1      29.894  18.990   6.420  1.00  0.00    -0.142 OA
BRANCH   6   7
HETATM    7  N10 UNL     1      28.816  18.232   6.712  1.00  0.00    -0.234 N 
HETATM    8  C11 UNL     1      28.836  16.959   6.894  1.00  0.00     0.132 C 
ATOM      9  H10 UNL     1      27.916  18.706   6.794  1.00  0.00     0.197 HD
BRANCH   8  10
HETATM   10  C2  UNL     1      27.636  16.152   7.213  1.00  0.00     0.251 C 
HETATM   11  C1  UNL     1      26.763  16.986   8.129  1.00  0.00     0.048 C 
BRANCH  10  12
HETATM   12  N1  UNL     1      26.920  15.728   6.013  1.00  0.00    -0.059 N 
ATOM     13  H12 UNL     1      27.454  15.875   5.157  1.00  0.00     0.278 HD
ATOM     14  H11 UNL     1      26.829  14.715   5.940  1.00  0.00     0.278 HD
BRANCH  12  15
HETATM   15  C3  UNL     1      25.663  16.402   6.010  1.00  0.00     0.294 C 
BRANCH  15  16
HETATM   16  C4  UNL     1      25.603  17.578   5.119  1.00  0.00     0.082 A 
HETATM   17  N2  UNL     1      25.023  18.741   5.434  1.00  0.00    -0.349 N 
HETATM   18  C5  UNL     1      25.045  19.744   4.506  1.00  0.00     0.124 A 
ATOM     19  H2  UNL     1      24.577  18.877   6.342  1.00  0.00     0.166 HD
HETATM   20  C6  UNL     1      24.470  20.965   4.763  1.00  0.00     0.145 A 
HETATM   21  C8  UNL     1      25.644  19.577   3.275  1.00  0.00     0.175 A 
HETATM   22  N4  UNL     1      24.515  21.930   3.815  1.00  0.00    -0.175 N 
HETATM   23  C7  UNL     1      25.099  21.761   2.622  1.00  0.00     0.679 A 
ATOM     24  H4  UNL     1      24.083  22.830   4.020  1.00  0.00     0.186 HD
HETATM   25  N6  UNL     1      25.668  20.568   2.353  1.00  0.00    -0.172 N 
ATOM     26  H6  UNL     1      26.119  20.412   1.451  1.00  0.00     0.186 HD
HETATM   27  N7  UNL     1      26.225  18.407   2.962  1.00  0.00    -0.218 N 
HETATM   28  N8  UNL     1      26.857  18.005   1.859  1.00  0.00    -0.286 N 
HETATM   29  C10 UNL     1      26.202  17.430   3.867  1.00  0.00     0.154 A 
HETATM   30  C9  UNL     1      27.248  16.753   2.056  1.00  0.00     0.199 A 
ATOM     31  H8  UNL     1      27.012  18.559   1.017  1.00  0.00     0.188 HD
HETATM   32  N9  UNL     1      26.852  16.391   3.283  1.00  0.00    -0.334 N 
ATOM     33  H9  UNL     1      27.012  15.479   3.711  1.00  0.00     0.168 HD
BRANCH  20  34
HETATM   34  N3  UNL     1      23.895  21.193   5.884  1.00  0.00    -0.383 N 
ATOM     35  H32 UNL     1      24.104  22.048   6.401  1.00  0.00     0.157 HD
ATOM     36  H31 UNL     1      23.226  20.528   6.270  1.00  0.00     0.157 HD
ENDBRANCH  20  34
BRANCH  23  37
HETATM   37  N5  UNL     1      25.157  22.658   1.706  1.00  0.00    -0.234 N 
ATOM     38  H52 UNL     1      24.324  22.793   1.133  1.00  0.00     0.174 HD
ATOM     39  H51 UNL     1      25.973  23.239   1.515  1.00  0.00     0.174 HD
ENDBRANCH  23  37
ENDBRANCH  15  16
ENDBRANCH  12  15
ENDBRANCH  10  12
ENDBRANCH   8  10
BRANCH   8  40
HETATM   40  N13 UNL     1      30.083  16.290   6.782  1.00  0.00    -0.328 N 
ATOM     41  H13 UNL     1      30.624  16.089   7.622  1.00  0.00     0.165 HD
BRANCH  40  42
HETATM   42  C13 UNL     1      30.593  15.894   5.500  1.00  0.00     0.424 C 
BRANCH  42  43
HETATM   43  N14 UNL     1      31.664  16.768   5.045  1.00  0.00    -0.035 N 
ATOM     44 3H14 UNL     1      31.866  16.623   4.055  1.00  0.00     0.279 HD
ATOM     45 2H14 UNL     1      31.357  17.740   5.005  1.00  0.00     0.279 HD
ATOM     46 1H14 UNL     1      32.506  16.669   5.611  1.00  0.00     0.279 HD
ENDBRANCH  42  43
BRANCH  42  47
HETATM   47  O5  UNL     1      29.566  16.007   4.545  1.00  0.00    -0.355 OA
ATOM     48  H5  UNL     1      29.837  15.569   3.747  1.00  0.00     0.213 HD
ENDBRANCH  42  47
ENDBRANCH  40  42
ENDBRANCH   8  40
ENDBRANCH   6   7
ENDBRANCH   4   6
BRANCH   4  49
HETATM   49  N11 UNL     1      32.130  19.500   7.865  1.00  0.00    -0.181 N 
ATOM     50  H11 UNL     1      32.827  20.100   8.307  1.00  0.00     0.208 HD
BRANCH  49  51
HETATM   51  O3  UNL     1      32.400  18.185   7.523  1.00  0.00    -0.279 OA
ATOM     52  H3  UNL     1      33.100  17.767   8.011  1.00  0.00     0.245 HD
ENDBRANCH  49  51
ENDBRANCH   4  49
ENDBRANCH   1   4
TORSDOF 15
ENDMDL
MODEL 3
REMARK VINA RESULT: -6.685210999      2.236      4.360
REMARK  15 active torsions:
REMARK  status: ('A' for Active; 'I' for Inactive)
REMARK    1  A    between atoms: C2_2  and  N1_3 
REMARK    2  A    between atoms: C2_2  and  C11_31 
REMARK    3  A    between atoms: N1_3  and  C3_6 
REMARK    4  A    between atoms: C3_6  and  C4_7 
REMARK    5  A    between atoms: C6_11  and  N3_12 
REMARK    6  A    between atoms: C7_17  and  N5_18 
REMARK    7  A    between atoms: C11_31  and  N13_44 
REMARK    8  A    between atoms: N10_32  and  O1_34 
REMARK    9  A    between atoms: O1_34  and  S1_35 
REMARK   10  A    between atoms: S1_35  and  N11_37 
REMARK   11  A    between atoms: S1_35  and  O4_41 
REMARK   12  A    between atoms: N11_37  and  O3_39 
REMARK   13  A    between atoms: N13_44  and  C13_46 
REMARK   14  A    between atoms: C13_46  and  N14_47 
REMARK   15  A    between atoms: C13_46  and  O5_51 
ROOT
HETATM    1  O4  UNL     1      31.812  18.329   7.200  1.00  0.00    -0.147 OA
HETATM    2  C12 UNL     1      31.551  19.650   7.133  1.00  0.00     0.245 C 
HETATM    3  N12 UNL     1      31.315  20.784   7.087  1.00  0.00    -0.163 NA
ENDROOT
BRANCH   1   4
HETATM    4  S1  UNL     1      31.024  17.141   6.309  1.00  0.00     0.332 S 
HETATM    5  O2  UNL     1      31.739  16.999   4.995  1.00  0.00    -0.186 OA
BRANCH   4   6
HETATM    6  O1  UNL     1      29.393  17.517   6.026  1.00  0.00    -0.142 OA
BRANCH   6   7
HETATM    7  N10 UNL     1      28.395  16.608   5.990  1.00  0.00    -0.234 N 
HETATM    8  C11 UNL     1      27.307  16.679   6.672  1.00  0.00     0.132 C 
ATOM      9  H10 UNL     1      28.514  15.804   5.374  1.00  0.00     0.197 HD
BRANCH   8  10
HETATM   10  C2  UNL     1      26.229  15.666   6.612  1.00  0.00     0.251 C 
HETATM   11  C1  UNL     1      26.223  14.934   7.939  1.00  0.00     0.048 C 
BRANCH  10  12
HETATM   12  N1  UNL     1      24.929  16.259   6.311  1.00  0.00    -0.059 N 
ATOM     13  H12 UNL     1      24.162  15.817   6.817  1.00  0.00     0.278 HD
ATOM     14  H11 UNL     1      24.820  17.197   6.697  1.00  0.00     0.278 HD
BRANCH  12  15
HETATM   15  C3  UNL     1      24.762  16.216   4.895  1.00  0.00     0.294 C 
BRANCH  15  16
HETATM   16  C4  UNL     1      24.957  17.512   4.217  1.00  0.00     0.082 A 
HETATM   17  N2  UNL     1      24.297  18.636   4.521  1.00  0.00    -0.349 N 
HETATM   18  C5  UNL     1      24.584  19.764   3.806  1.00  0.00     0.124 A 
ATOM     19  H2  UNL     1      23.600  18.649   5.266  1.00  0.00     0.166 HD
HETATM   20  C6  UNL     1      23.945  20.953   4.064  1.00  0.00     0.145 A 
HETATM   21  C8  UNL     1      25.524  19.762   2.796  1.00  0.00     0.175 A 
HETATM   22  N4  UNL     1      24.260  22.046   3.332  1.00  0.00    -0.175 N 
HETATM   23  C7  UNL     1      25.174  22.036   2.353  1.00  0.00     0.679 A 
ATOM     24  H4  UNL     1      23.777  22.920   3.535  1.00  0.00     0.186 HD
HETATM   25  N6  UNL     1      25.811  20.877   2.086  1.00  0.00    -0.172 N 
ATOM     26  H6  UNL     1      26.511  20.842   1.345  1.00  0.00     0.186 HD
HETATM   27  N7  UNL     1      26.184  18.631   2.494  1.00  0.00    -0.218 N 
HETATM   28  N8  UNL     1      27.120  18.377   1.580  1.00  0.00    -0.286 N 
HETATM   29  C10 UNL     1      25.904  17.532   3.192  1.00  0.00     0.154 A 
HETATM   30  C9  UNL     1      27.449  17.096   1.689  1.00  0.00     0.199 A 
ATOM     31  H8  UNL     1      27.512  19.045   0.916  1.00  0.00     0.188 HD
HETATM   32  N9  UNL     1      26.709  16.569   2.674  1.00  0.00    -0.334 N 
ATOM     33  H9  UNL     1      26.744  15.599   2.986  1.00  0.00     0.168 HD
BRANCH  20  34
HETATM   34  N3  UNL     1      23.060  21.031   4.986  1.00  0.00    -0.383 N 
ATOM     35  H32 UNL     1      23.285  21.483   5.873  1.00  0.00     0.157 HD
ATOM     36  H31 UNL     1      22.126  20.647   4.845  1.00  0.00     0.157 HD
ENDBRANCH  20  34
BRANCH  23  37
HETATM   37  N5  UNL     1      25.493  23.057   1.644  1.00  0.00    -0.234 N 
ATOM     38  H52 UNL     1      25.880  23.863   2.135  1.00  0.00     0.174 HD
ATOM     39  H51 UNL     1      25.386  23.116   0.632  1.00  0.00     0.174 HD
ENDBRANCH  23  37
ENDBRANCH  15  16
ENDBRANCH  12  15
ENDBRANCH  10  12
ENDBRANCH   8  10
BRANCH   8  40
HETATM   40  N13 UNL     1      27.132  17.794   7.532  1.00  0.00    -0.328 N 
ATOM     41  H13 UNL     1      26.403  18.477   7.329  1.00  0.00     0.165 HD
BRANCH  40  42
HETATM   42  C13 UNL     1      27.968  17.974   8.684  1.00  0.00     0.424 C 
BRANCH  42  43
HETATM   43  N14 UNL     1      28.792  19.170   8.580  1.00  0.00    -0.035 N 
ATOM     44 3H14 UNL     1      29.288  19.202   7.689  1.00  0.00     0.279 HD
ATOM     45 2H14 UNL     1      28.218  20.006   8.475  1.00  0.00     0.279 HD
ATOM     46 1H14 UNL     1      29.437  19.260   9.365  1.00  0.00     0.279 HD
ENDBRANCH  42  43
BRANCH  42  47
HETATM   47  O5  UNL     1      28.864  16.892   8.772  1.00  0.00    -0.355 OA
ATOM     48  H5  UNL     1      28.483  16.140   8.336  1.00  0.00     0.213 HD
ENDBRANCH  42  47
ENDBRANCH  40  42
ENDBRANCH   8  40
ENDBRANCH   6   7
ENDBRANCH   4   6
BRANCH   4  49
HETATM   49  N11 UNL     1      31.185  15.767   7.061  1.00  0.00    -0.181 N 
ATOM     50  H11 UNL     1      30.888  14.883   6.647  1.00  0.00     0.208 HD
BRANCH  49  51
HETATM   51  O3  UNL     1      31.758  15.836   8.321  1.00  0.00    -0.279 OA
ATOM     52  H3  UNL     1      31.935  15.001   8.740  1.00  0.00     0.245 HD
ENDBRANCH  49  51
ENDBRANCH   4  49
ENDBRANCH   1   4
TORSDOF 15
ENDMDL
MODEL 4
REMARK VINA RESULT: -6.584829736      2.006      5.282
REMARK  15 active torsions:
REMARK  status: ('A' for Active; 'I' for Inactive)
REMARK    1  A    between atoms: C2_2  and  N1_3 
REMARK    2  A    between atoms: C2_2  and  C11_31 
REMARK    3  A    between atoms: N1_3  and  C3_6 
REMARK    4  A    between atoms: C3_6  and  C4_7 
REMARK    5  A    between atoms: C6_11  and  N3_12 
REMARK    6  A    between atoms: C7_17  and  N5_18 
REMARK    7  A    between atoms: C11_31  and  N13_44 
REMARK    8  A    between atoms: N10_32  and  O1_34 
REMARK    9  A    between atoms: O1_34  and  S1_35 
REMARK   10  A    between atoms: S1_35  and  N11_37 
REMARK   11  A    between atoms: S1_35  and  O4_41 
REMARK   12  A    between atoms: N11_37  and  O3_39 
REMARK   13  A    between atoms: N13_44  and  C13_46 
REMARK   14  A    between atoms: C13_46  and  N14_47 
REMARK   15  A    between atoms: C13_46  and  O5_51 
ROOT
HETATM    1  O4  UNL     1      30.453  18.104   7.548  1.00  0.00    -0.147 OA
HETATM    2  C12 UNL     1      30.732  19.404   7.323  1.00  0.00     0.245 C 
HETATM    3  N12 UNL     1      30.957  20.524   7.125  1.00  0.00    -0.163 NA
ENDROOT
BRANCH   1   4
HETATM    4  S1  UNL     1      30.715  16.856   6.451  1.00  0.00     0.332 S 
HETATM    5  O2  UNL     1      31.971  17.168   5.688  1.00  0.00    -0.186 OA
BRANCH   4   6
HETATM    6  O1  UNL     1      29.425  16.668   5.364  1.00  0.00    -0.142 OA
BRANCH   6   7
HETATM    7  N10 UNL     1      28.123  16.797   5.694  1.00  0.00    -0.234 N 
HETATM    8  C11 UNL     1      27.141  16.729   4.866  1.00  0.00     0.132 C 
ATOM      9  H10 UNL     1      27.901  16.962   6.676  1.00  0.00     0.197 HD
BRANCH   8  10
HETATM   10  C2  UNL     1      25.721  16.876   5.258  1.00  0.00     0.251 C 
HETATM   11  C1  UNL     1      25.347  15.650   6.068  1.00  0.00     0.048 C 
BRANCH  10  12
HETATM   12  N1  UNL     1      25.475  18.112   5.995  1.00  0.00    -0.059 N 
ATOM     13  H12 UNL     1      24.828  17.990   6.774  1.00  0.00     0.278 HD
ATOM     14  H11 UNL     1      26.281  18.419   6.539  1.00  0.00     0.278 HD
BRANCH  12  15
HETATM   15  C3  UNL     1      25.035  19.086   5.051  1.00  0.00     0.294 C 
BRANCH  15  16
HETATM   16  C4  UNL     1      25.782  20.359   5.094  1.00  0.00     0.082 A 
HETATM   17  N2  UNL     1      26.513  20.777   6.134  1.00  0.00    -0.349 N 
HETATM   18  C5  UNL     1      27.152  21.980   6.029  1.00  0.00     0.124 A 
ATOM     19  H2  UNL     1      26.592  20.213   6.980  1.00  0.00     0.166 HD
HETATM   20  C6  UNL     1      27.920  22.470   7.057  1.00  0.00     0.145 A 
HETATM   21  C8  UNL     1      27.055  22.754   4.892  1.00  0.00     0.175 A 
HETATM   22  N4  UNL     1      28.535  23.666   6.912  1.00  0.00    -0.175 N 
HETATM   23  C7  UNL     1      28.437  24.413   5.804  1.00  0.00     0.679 A 
ATOM     24  H4  UNL     1      29.101  24.017   7.683  1.00  0.00     0.186 HD
HETATM   25  N6  UNL     1      27.686  23.947   4.784  1.00  0.00    -0.172 N 
ATOM     26  H6  UNL     1      27.594  24.496   3.929  1.00  0.00     0.186 HD
HETATM   27  N7  UNL     1      26.319  22.332   3.850  1.00  0.00    -0.218 N 
HETATM   28  N8  UNL     1      26.074  22.887   2.663  1.00  0.00    -0.286 N 
HETATM   29  C10 UNL     1      25.697  21.159   3.953  1.00  0.00     0.154 A 
HETATM   30  C9  UNL     1      25.283  22.060   1.991  1.00  0.00     0.199 A 
ATOM     31  H8  UNL     1      26.429  23.784   2.332  1.00  0.00     0.188 HD
HETATM   32  N9  UNL     1      25.046  20.998   2.773  1.00  0.00    -0.334 N 
ATOM     33  H9  UNL     1      24.468  20.197   2.521  1.00  0.00     0.168 HD
BRANCH  20  34
HETATM   34  N3  UNL     1      28.056  21.807   8.144  1.00  0.00    -0.383 N 
ATOM     35  H32 UNL     1      28.167  20.794   8.114  1.00  0.00     0.157 HD
ATOM     36  H31 UNL     1      28.055  22.282   9.047  1.00  0.00     0.157 HD
ENDBRANCH  20  34
BRANCH  23  37
HETATM   37  N5  UNL     1      29.010  25.549   5.638  1.00  0.00    -0.234 N 
ATOM     38  H52 UNL     1      29.913  25.551   5.164  1.00  0.00     0.174 HD
ATOM     39  H51 UNL     1      28.625  26.442   5.946  1.00  0.00     0.174 HD
ENDBRANCH  23  37
ENDBRANCH  15  16
ENDBRANCH  12  15
ENDBRANCH  10  12
ENDBRANCH   8  10
BRANCH   8  40
HETATM   40  N13 UNL     1      27.438  16.500   3.498  1.00  0.00    -0.328 N 
ATOM     41  H13 UNL     1      28.284  15.990   3.245  1.00  0.00     0.165 HD
BRANCH  40  42
HETATM   42  C13 UNL     1      26.564  16.977   2.465  1.00  0.00     0.424 C 
BRANCH  42  43
HETATM   43  N14 UNL     1      26.811  16.313   1.192  1.00  0.00    -0.035 N 
ATOM     44 3H14 UNL     1      27.387  16.891   0.578  1.00  0.00     0.279 HD
ATOM     45 2H14 UNL     1      27.441  15.520   1.304  1.00  0.00     0.279 HD
ATOM     46 1H14 UNL     1      25.944  16.036   0.731  1.00  0.00     0.279 HD
ENDBRANCH  42  43
BRANCH  42  47
HETATM   47  O5  UNL     1      26.818  18.343   2.246  1.00  0.00    -0.355 OA
ATOM     48  H5  UNL     1      26.562  18.567   1.359  1.00  0.00     0.213 HD
ENDBRANCH  42  47
ENDBRANCH  40  42
ENDBRANCH   8  40
ENDBRANCH   6   7
ENDBRANCH   4   6
BRANCH   4  49
HETATM   49  N11 UNL     1      30.995  15.535   7.261  1.00  0.00    -0.181 N 
ATOM     50  H11 UNL     1      30.640  14.627   6.959  1.00  0.00     0.208 HD
BRANCH  49  51
HETATM   51  O3  UNL     1      31.756  15.684   8.410  1.00  0.00    -0.279 OA
ATOM     52  H3  UNL     1      32.051  14.878   8.816  1.00  0.00     0.245 HD
ENDBRANCH  49  51
ENDBRANCH   4  49
ENDBRANCH   1   4
TORSDOF 15
ENDMDL
MODEL 5
REMARK VINA RESULT: -6.522165058      1.923      2.390
REMARK  15 active torsions:
REMARK  status: ('A' for Active; 'I' for Inactive)
REMARK    1  A    between atoms: C2_2  and  N1_3 
REMARK    2  A    between atoms: C2_2  and  C11_31 
REMARK    3  A    between atoms: N1_3  and  C3_6 
REMARK    4  A    between atoms: C3_6  and  C4_7 
REMARK    5  A    between atoms: C6_11  and  N3_12 
REMARK    6  A    between atoms: C7_17  and  N5_18 
REMARK    7  A    between atoms: C11_31  and  N13_44 
REMARK    8  A    between atoms: N10_32  and  O1_34 
REMARK    9  A    between atoms: O1_34  and  S1_35 
REMARK   10  A    between atoms: S1_35  and  N11_37 
REMARK   11  A    between atoms: S1_35  and  O4_41 
REMARK   12  A    between atoms: N11_37  and  O3_39 
REMARK   13  A    between atoms: N13_44  and  C13_46 
REMARK   14  A    between atoms: C13_46  and  N14_47 
REMARK   15  A    between atoms: C13_46  and  O5_51 
ROOT
HETATM    1  O4  UNL     1      30.597  18.270   8.172  1.00  0.00    -0.147 OA
HETATM    2  C12 UNL     1      30.843  19.432   7.533  1.00  0.00     0.245 C 
HETATM    3  N12 UNL     1      31.040  20.437   6.991  1.00  0.00    -0.163 NA
ENDROOT
BRANCH   1   4
HETATM    4  S1  UNL     1      29.747  16.972   7.523  1.00  0.00     0.332 S 
HETATM    5  O2  UNL     1      29.650  17.179   6.038  1.00  0.00    -0.186 OA
BRANCH   4   6
HETATM    6  O1  UNL     1      28.187  16.827   8.177  1.00  0.00    -0.142 OA
BRANCH   6   7
HETATM    7  N10 UNL     1      27.254  17.802   8.148  1.00  0.00    -0.234 N 
HETATM    8  C11 UNL     1      27.199  18.795   8.965  1.00  0.00     0.132 C 
ATOM      9  H10 UNL     1      26.538  17.747   7.424  1.00  0.00     0.197 HD
BRANCH   8  10
HETATM   10  C2  UNL     1      26.163  19.851   8.909  1.00  0.00     0.251 C 
HETATM   11  C1  UNL     1      26.216  20.605  10.223  1.00  0.00     0.048 C 
BRANCH  10  12
HETATM   12  N1  UNL     1      26.338  20.739   7.763  1.00  0.00    -0.059 N 
ATOM     13  H12 UNL     1      26.445  21.718   8.030  1.00  0.00     0.278 HD
ATOM     14  H11 UNL     1      27.244  20.627   7.307  1.00  0.00     0.278 HD
BRANCH  12  15
HETATM   15  C3  UNL     1      25.239  20.516   6.883  1.00  0.00     0.294 C 
BRANCH  15  16
HETATM   16  C4  UNL     1      25.591  19.824   5.628  1.00  0.00     0.082 A 
HETATM   17  N2  UNL     1      26.062  18.574   5.555  1.00  0.00    -0.349 N 
HETATM   18  C5  UNL     1      26.345  18.064   4.320  1.00  0.00     0.124 A 
ATOM     19  H2  UNL     1      26.206  18.018   6.398  1.00  0.00     0.166 HD
HETATM   20  C6  UNL     1      26.831  16.787   4.171  1.00  0.00     0.145 A 
HETATM   21  C8  UNL     1      26.157  18.803   3.171  1.00  0.00     0.175 A 
HETATM   22  N4  UNL     1      27.097  16.322   2.929  1.00  0.00    -0.175 N 
HETATM   23  C7  UNL     1      26.912  17.045   1.817  1.00  0.00     0.679 A 
ATOM     24  H4  UNL     1      27.458  15.373   2.834  1.00  0.00     0.186 HD
HETATM   25  N6  UNL     1      26.436  18.301   1.945  1.00  0.00    -0.172 N 
ATOM     26  H6  UNL     1      26.285  18.874   1.115  1.00  0.00     0.186 HD
HETATM   27  N7  UNL     1      25.684  20.058   3.248  1.00  0.00    -0.218 N 
HETATM   28  N8  UNL     1      25.421  20.959   2.302  1.00  0.00    -0.286 N 
HETATM   29  C10 UNL     1      25.409  20.555   4.453  1.00  0.00     0.154 A 
HETATM   30  C9  UNL     1      24.968  22.052   2.903  1.00  0.00     0.199 A 
ATOM     31  H8  UNL     1      25.544  20.832   1.297  1.00  0.00     0.188 HD
HETATM   32  N9  UNL     1      24.958  21.814   4.222  1.00  0.00    -0.334 N 
ATOM     33  H9  UNL     1      24.658  22.475   4.939  1.00  0.00     0.168 HD
BRANCH  20  34
HETATM   34  N3  UNL     1      27.032  16.041   5.192  1.00  0.00    -0.383 N 
ATOM     35  H32 UNL     1      26.685  16.326   6.108  1.00  0.00     0.157 HD
ATOM     36  H31 UNL     1      27.537  15.160   5.101  1.00  0.00     0.157 HD
ENDBRANCH  20  34
BRANCH  23  37
HETATM   37  N5  UNL     1      27.155  16.629   0.628  1.00  0.00    -0.234 N 
ATOM     38  H52 UNL     1      26.353  16.463   0.020  1.00  0.00     0.174 HD
ATOM     39  H51 UNL     1      28.087  16.455   0.254  1.00  0.00     0.174 HD
ENDBRANCH  23  37
ENDBRANCH  15  16
ENDBRANCH  12  15
ENDBRANCH  10  12
ENDBRANCH   8  10
BRANCH   8  40
HETATM   40  N13 UNL     1      28.191  18.881   9.976  1.00  0.00    -0.328 N 
ATOM     41  H13 UNL     1      28.892  19.620   9.932  1.00  0.00     0.165 HD
BRANCH  40  42
HETATM   42  C13 UNL     1      28.219  17.942  11.060  1.00  0.00     0.424 C 
BRANCH  42  43
HETATM   43  N14 UNL     1      29.462  17.183  11.093  1.00  0.00    -0.035 N 
ATOM     44 3H14 UNL     1      30.106  17.556  11.791  1.00  0.00     0.279 HD
ATOM     45 2H14 UNL     1      29.318  16.254  11.488  1.00  0.00     0.279 HD
ATOM     46 1H14 UNL     1      29.902  17.131  10.175  1.00  0.00     0.279 HD
ENDBRANCH  42  43
BRANCH  42  47
HETATM   47  O5  UNL     1      27.193  16.998  10.874  1.00  0.00    -0.355 OA
ATOM     48  H5  UNL     1      27.510  16.304  10.309  1.00  0.00     0.213 HD
ENDBRANCH  42  47
ENDBRANCH  40  42
ENDBRANCH   8  40
ENDBRANCH   6   7
ENDBRANCH   4   6
BRANCH   4  49
HETATM   49  N11 UNL     1      30.596  15.664   7.740  1.00  0.00    -0.181 N 
ATOM     50  H11 UNL     1      30.613  14.907   7.056  1.00  0.00     0.208 HD
BRANCH  49  51
HETATM   51  O3  UNL     1      31.318  15.606   8.922  1.00  0.00    -0.279 OA
ATOM     52  H3  UNL     1      31.951  14.899   8.984  1.00  0.00     0.245 HD
ENDBRANCH  49  51
ENDBRANCH   4  49
ENDBRANCH   1   4
TORSDOF 15
ENDMDL
