MODEL 1
REMARK VINA RESULT: -6.246080563      0.000      0.000
REMARK  14 active torsions:
REMARK  status: ('A' for Active; 'I' for Inactive)
REMARK    1  A    between atoms: N1_2  and  C2_4 
REMARK    2  A    between atoms: C3_5  and  O1_6 
REMARK    3  A    between atoms: O1_6  and  C4_7 
REMARK    4  A    between atoms: C5_9  and  S1_10 
REMARK    5  A    between atoms: S1_10  and  C6_11 
REMARK    6  A    between atoms: C7_15  and  N3_16 
REMARK    7  A    between atoms: C8_20  and  O3_21 
REMARK    8  A    between atoms: C9_23  and  O4_24 
REMARK    9  A    between atoms: C10_30  and  C11_31 
REMARK   10  A    between atoms: C11_31  and  S2_32 
REMARK   11  A    between atoms: S2_32  and  C12_33 
REMARK   12  A    between atoms: C13_36  and  N8_37 
REMARK   13  A    between atoms: C14_41  and  O5_42 
REMARK   14  A    between atoms: C15_44  and  O6_45 
ROOT
HETATM    1  C2  UNL     1      25.993  22.252   6.611  1.00  0.00     0.157 C 
HETATM    2  C3  UNL     1      26.253  20.756   6.458  1.00  0.00     0.263 C 
HETATM    3  N4  UNL     1      26.859  20.296   7.649  1.00  0.00    -0.309 N 
ATOM      4  H4  UNL     1      26.617  19.371   8.003  1.00  0.00     0.182 HD
HETATM    5  N5  UNL     1      27.665  20.975   8.265  1.00  0.00    -0.330 N 
ATOM      6  H5  UNL     1      28.054  20.565   9.115  1.00  0.00     0.180 HD
HETATM    7  C10 UNL     1      28.120  22.286   7.917  1.00  0.00     0.139 C 
HETATM    8  C15 UNL     1      27.400  22.858   6.715  1.00  0.00     0.169 C 
ENDROOT
BRANCH   2   9
HETATM    9  O1  UNL     1      25.144  20.069   6.049  1.00  0.00    -0.331 OA
BRANCH   9  10
HETATM   10  C4  UNL     1      25.441  19.018   5.228  1.00  0.00     0.295 C 
HETATM   11  O2  UNL     1      26.485  18.263   5.757  1.00  0.00    -0.340 OA
HETATM   12  C5  UNL     1      26.606  17.021   5.185  1.00  0.00     0.224 C 
HETATM   13  C7  UNL     1      26.477  16.944   3.708  1.00  0.00     0.253 C 
HETATM   14  C8  UNL     1      25.851  18.110   3.027  1.00  0.00     0.185 C 
HETATM   15  C9  UNL     1      25.900  19.400   3.838  1.00  0.00     0.204 C 
BRANCH  12  16
HETATM   16  S1  UNL     1      25.528  15.796   6.022  1.00  0.00    -0.091 SA
BRANCH  16  17
HETATM   17  C6  UNL     1      26.311  15.387   7.569  1.00  0.00     0.129 C 
HETATM   18  N2  UNL     1      27.452  15.853   7.884  1.00  0.00    -0.403 N 
ATOM     19  H22 UNL     1      27.917  16.475   7.223  1.00  0.00     0.155 HD
ATOM     20  H21 UNL     1      27.900  15.618   8.770  1.00  0.00     0.155 HD
ENDBRANCH  16  17
ENDBRANCH  12  16
BRANCH  13  21
HETATM   21  N3  UNL     1      27.739  16.546   3.065  1.00  0.00    -0.069 N 
ATOM     22  H33 UNL     1      28.520  16.593   3.720  1.00  0.00     0.275 HD
ATOM     23  H32 UNL     1      27.755  15.545   2.868  1.00  0.00     0.275 HD
ATOM     24  H31 UNL     1      27.928  17.092   2.224  1.00  0.00     0.275 HD
ENDBRANCH  13  21
BRANCH  14  25
HETATM   25  O3  UNL     1      26.419  18.278   1.774  1.00  0.00    -0.391 OA
ATOM     26  H3  UNL     1      25.896  18.887   1.265  1.00  0.00     0.210 HD
ENDBRANCH  14  25
BRANCH  15  27
HETATM   27  O4  UNL     1      25.037  20.305   3.229  1.00  0.00    -0.388 OA
ATOM     28  H4  UNL     1      25.379  21.192   3.241  1.00  0.00     0.210 HD
ENDBRANCH  15  27
ENDBRANCH   9  10
ENDBRANCH   2   9
BRANCH   1  29
HETATM   29  N1  UNL     1      25.303  22.577   7.809  1.00  0.00    -0.415 N 
HETATM   30  C1  UNL     1      23.954  23.008   7.670  1.00  0.00     0.140 C 
ATOM     31  H1  UNL     1      25.752  22.504   8.723  1.00  0.00     0.153 HD
ENDBRANCH   1  29
BRANCH   8  32
HETATM   32  O6  UNL     1      28.095  22.425   5.586  1.00  0.00    -0.391 OA
ATOM     33  H6  UNL     1      28.966  22.799   5.652  1.00  0.00     0.210 HD
ENDBRANCH   8  32
BRANCH   7  34
HETATM   34  C11 UNL     1      29.605  22.195   7.688  1.00  0.00     0.105 C 
BRANCH  34  35
HETATM   35  S2  UNL     1      30.352  20.868   8.651  1.00  0.00    -0.141 SA
BRANCH  35  36
HETATM   36  C12 UNL     1      31.045  19.641   7.565  1.00  0.00     0.188 C 
HETATM   37  N6  UNL     1      32.305  19.098   7.941  1.00  0.00    -0.128 NA
HETATM   38  N7  UNL     1      32.455  17.863   7.321  1.00  0.00    -0.111 NA
HETATM   39  C13 UNL     1      31.192  17.471   6.754  1.00  0.00     0.322 C 
HETATM   40  C14 UNL     1      30.191  18.366   7.498  1.00  0.00     0.196 C 
BRANCH  39  41
HETATM   41  N8  UNL     1      30.904  16.078   6.902  1.00  0.00    -0.058 N 
ATOM     42  H83 UNL     1      31.289  15.722   7.777  1.00  0.00     0.276 HD
ATOM     43  H82 UNL     1      29.911  15.932   7.081  1.00  0.00     0.276 HD
ATOM     44  H81 UNL     1      31.216  15.510   6.114  1.00  0.00     0.276 HD
ENDBRANCH  39  41
BRANCH  40  45
HETATM   45  O5  UNL     1      29.025  18.555   6.792  1.00  0.00    -0.390 OA
ATOM     46  H5  UNL     1      28.609  17.734   6.558  1.00  0.00     0.210 HD
ENDBRANCH  40  45
ENDBRANCH  35  36
ENDBRANCH  34  35
ENDBRANCH   7  34
TORSDOF 14
ENDMDL
MODEL 2
REMARK VINA RESULT: -6.031062727      2.305      5.409
REMARK  14 active torsions:
REMARK  status: ('A' for Active; 'I' for Inactive)
REMARK    1  A    between atoms: N1_2  and  C2_4 
REMARK    2  A    between atoms: C3_5  and  O1_6 
REMARK    3  A    between atoms: O1_6  and  C4_7 
REMARK    4  A    between atoms: C5_9  and  S1_10 
REMARK    5  A    between atoms: S1_10  and  C6_11 
REMARK    6  A    between atoms: C7_15  and  N3_16 
REMARK    7  A    between atoms: C8_20  and  O3_21 
REMARK    8  A    between atoms: C9_23  and  O4_24 
REMARK    9  A    between atoms: C10_30  and  C11_31 
REMARK   10  A    between atoms: C11_31  and  S2_32 
REMARK   11  A    between atoms: S2_32  and  C12_33 
REMARK   12  A    between atoms: C13_36  and  N8_37 
REMARK   13  A    between atoms: C14_41  and  O5_42 
REMARK   14  A    between atoms: C15_44  and  O6_45 
ROOT
HETATM    1  C2  UNL     1      27.322  22.363   7.538  1.00  0.00     0.157 C 
HETATM    2  C3  UNL     1      27.706  20.917   7.238  1.00  0.00     0.263 C 
HETATM    3  N4  UNL     1      27.441  20.672   5.872  1.00  0.00    -0.309 N 
ATOM      4  H4  UNL     1      28.076  20.075   5.344  1.00  0.00     0.182 HD
HETATM    5  N5  UNL     1      26.473  21.155   5.306  1.00  0.00    -0.330 N 
ATOM      6  H5  UNL     1      26.359  20.926   4.319  1.00  0.00     0.180 HD
HETATM    7  C10 UNL     1      25.484  22.009   5.887  1.00  0.00     0.139 C 
HETATM    8  C15 UNL     1      25.802  22.391   7.317  1.00  0.00     0.169 C 
ENDROOT
BRANCH   2   9
HETATM    9  O1  UNL     1      28.966  20.608   7.667  1.00  0.00    -0.331 OA
BRANCH   9  10
HETATM   10  C4  UNL     1      29.360  19.352   7.301  1.00  0.00     0.295 C 
HETATM   11  O2  UNL     1      28.601  18.389   7.961  1.00  0.00    -0.340 OA
HETATM   12  C5  UNL     1      28.694  17.140   7.399  1.00  0.00     0.224 C 
HETATM   13  C7  UNL     1      30.046  16.684   6.989  1.00  0.00     0.253 C 
HETATM   14  C8  UNL     1      31.095  17.731   6.855  1.00  0.00     0.185 C 
HETATM   15  C9  UNL     1      30.798  19.010   7.630  1.00  0.00     0.204 C 
BRANCH  12  16
HETATM   16  S1  UNL     1      27.472  16.927   6.047  1.00  0.00    -0.091 SA
BRANCH  16  17
HETATM   17  C6  UNL     1      26.123  15.974   6.714  1.00  0.00     0.129 C 
HETATM   18  N2  UNL     1      25.058  15.766   6.048  1.00  0.00    -0.403 N 
ATOM     19  H22 UNL     1      24.992  16.162   5.110  1.00  0.00     0.155 HD
ATOM     20  H21 UNL     1      24.286  15.220   6.429  1.00  0.00     0.155 HD
ENDBRANCH  16  17
ENDBRANCH  12  16
BRANCH  13  21
HETATM   21  N3  UNL     1      30.509  15.543   7.795  1.00  0.00    -0.069 N 
ATOM     22  H33 UNL     1      30.123  15.574   8.739  1.00  0.00     0.275 HD
ATOM     23  H32 UNL     1      30.088  14.670   7.478  1.00  0.00     0.275 HD
ATOM     24  H31 UNL     1      31.527  15.478   7.813  1.00  0.00     0.275 HD
ENDBRANCH  13  21
BRANCH  14  25
HETATM   25  O3  UNL     1      32.328  17.203   7.205  1.00  0.00    -0.391 OA
ATOM     26  H3  UNL     1      32.216  16.559   7.895  1.00  0.00     0.210 HD
ENDBRANCH  14  25
BRANCH  15  27
HETATM   27  O4  UNL     1      31.686  19.982   7.183  1.00  0.00    -0.388 OA
ATOM     28  H4  UNL     1      32.574  19.819   7.477  1.00  0.00     0.210 HD
ENDBRANCH  15  27
ENDBRANCH   9  10
ENDBRANCH   2   9
BRANCH   1  29
HETATM   29  N1  UNL     1      27.898  23.291   6.631  1.00  0.00    -0.415 N 
HETATM   30  C1  UNL     1      28.968  24.088   7.130  1.00  0.00     0.140 C 
ATOM     31  H1  UNL     1      27.563  23.382   5.672  1.00  0.00     0.153 HD
ENDBRANCH   1  29
BRANCH   8  32
HETATM   32  O6  UNL     1      25.271  21.390   8.128  1.00  0.00    -0.391 OA
ATOM     33  H6  UNL     1      25.061  21.803   8.957  1.00  0.00     0.210 HD
ENDBRANCH   8  32
BRANCH   7  34
HETATM   34  C11 UNL     1      24.162  21.295   5.780  1.00  0.00     0.105 C 
BRANCH  34  35
HETATM   35  S2  UNL     1      23.904  20.606   4.137  1.00  0.00    -0.141 SA
BRANCH  35  36
HETATM   36  C12 UNL     1      24.490  18.927   4.079  1.00  0.00     0.188 C 
HETATM   37  N6  UNL     1      23.523  17.924   3.790  1.00  0.00    -0.128 NA
HETATM   38  N7  UNL     1      24.183  16.806   3.294  1.00  0.00    -0.111 NA
HETATM   39  C13 UNL     1      25.548  17.160   3.007  1.00  0.00     0.322 C 
HETATM   40  C14 UNL     1      25.496  18.694   2.942  1.00  0.00     0.196 C 
BRANCH  39  41
HETATM   41  N8  UNL     1      26.051  16.574   1.804  1.00  0.00    -0.058 N 
ATOM     42  H83 UNL     1      26.681  15.800   2.016  1.00  0.00     0.276 HD
ATOM     43  H82 UNL     1      25.314  16.064   1.316  1.00  0.00     0.276 HD
ATOM     44  H81 UNL     1      26.501  17.244   1.180  1.00  0.00     0.276 HD
ENDBRANCH  39  41
BRANCH  40  45
HETATM   45  O5  UNL     1      26.717  19.274   3.198  1.00  0.00    -0.390 OA
ATOM     46  H5  UNL     1      27.441  18.698   2.984  1.00  0.00     0.210 HD
ENDBRANCH  40  45
ENDBRANCH  35  36
ENDBRANCH  34  35
ENDBRANCH   7  34
TORSDOF 14
ENDMDL
MODEL 3
REMARK VINA RESULT: -5.999789973      2.588      5.420
REMARK  14 active torsions:
REMARK  status: ('A' for Active; 'I' for Inactive)
REMARK    1  A    between atoms: N1_2  and  C2_4 
REMARK    2  A    between atoms: C3_5  and  O1_6 
REMARK    3  A    between atoms: O1_6  and  C4_7 
REMARK    4  A    between atoms: C5_9  and  S1_10 
REMARK    5  A    between atoms: S1_10  and  C6_11 
REMARK    6  A    between atoms: C7_15  and  N3_16 
REMARK    7  A    between atoms: C8_20  and  O3_21 
REMARK    8  A    between atoms: C9_23  and  O4_24 
REMARK    9  A    between atoms: C10_30  and  C11_31 
REMARK   10  A    between atoms: C11_31  and  S2_32 
REMARK   11  A    between atoms: S2_32  and  C12_33 
REMARK   12  A    between atoms: C13_36  and  N8_37 
REMARK   13  A    between atoms: C14_41  and  O5_42 
REMARK   14  A    between atoms: C15_44  and  O6_45 
ROOT
HETATM    1  C2  UNL     1      25.572  17.752   3.035  1.00  0.00     0.157 C 
HETATM    2  C3  UNL     1      25.151  18.950   3.882  1.00  0.00     0.263 C 
HETATM    3  N4  UNL     1      26.207  19.243   4.774  1.00  0.00    -0.309 N 
ATOM      4  H4  UNL     1      26.412  20.217   4.994  1.00  0.00     0.182 HD
HETATM    5  N5  UNL     1      26.879  18.364   5.288  1.00  0.00    -0.330 N 
ATOM      6  H5  UNL     1      27.621  18.666   5.920  1.00  0.00     0.180 HD
HETATM    7  C10 UNL     1      26.732  16.954   5.096  1.00  0.00     0.139 C 
HETATM    8  C15 UNL     1      25.691  16.608   4.053  1.00  0.00     0.169 C 
ENDROOT
BRANCH   2   9
HETATM    9  O1  UNL     1      24.700  19.995   3.126  1.00  0.00    -0.331 OA
BRANCH   9  10
HETATM   10  C4  UNL     1      24.470  21.124   3.861  1.00  0.00     0.295 C 
HETATM   11  O2  UNL     1      23.501  20.887   4.833  1.00  0.00    -0.340 OA
HETATM   12  C5  UNL     1      23.467  21.843   5.816  1.00  0.00     0.224 C 
HETATM   13  C7  UNL     1      23.571  23.260   5.382  1.00  0.00     0.253 C 
HETATM   14  C8  UNL     1      24.087  23.505   4.009  1.00  0.00     0.185 C 
HETATM   15  C9  UNL     1      23.952  22.308   3.074  1.00  0.00     0.204 C 
BRANCH  12  16
HETATM   16  S1  UNL     1      24.657  21.460   7.158  1.00  0.00    -0.091 SA
BRANCH  16  17
HETATM   17  C6  UNL     1      26.008  22.610   6.997  1.00  0.00     0.129 C 
HETATM   18  N2  UNL     1      27.005  22.369   6.244  1.00  0.00    -0.403 N 
ATOM     19  H22 UNL     1      27.016  21.490   5.727  1.00  0.00     0.155 HD
ATOM     20  H21 UNL     1      27.779  23.027   6.152  1.00  0.00     0.155 HD
ENDBRANCH  16  17
ENDBRANCH  12  16
BRANCH  13  21
HETATM   21  N3  UNL     1      22.331  24.008   5.644  1.00  0.00    -0.069 N 
ATOM     22  H33 UNL     1      21.977  24.449   4.794  1.00  0.00     0.275 HD
ATOM     23  H32 UNL     1      21.551  23.378   5.834  1.00  0.00     0.275 HD
ATOM     24  H31 UNL     1      22.448  24.689   6.394  1.00  0.00     0.275 HD
ENDBRANCH  13  21
BRANCH  14  25
HETATM   25  O3  UNL     1      23.481  24.632   3.477  1.00  0.00    -0.391 OA
ATOM     26  H3  UNL     1      22.599  24.419   3.196  1.00  0.00     0.210 HD
ENDBRANCH  14  25
BRANCH  15  27
HETATM   27  O4  UNL     1      24.727  22.572   1.949  1.00  0.00    -0.388 OA
ATOM     28  H4  UNL     1      24.198  22.799   1.193  1.00  0.00     0.210 HD
ENDBRANCH  15  27
ENDBRANCH   9  10
ENDBRANCH   2   9
BRANCH   1  29
HETATM   29  N1  UNL     1      26.848  17.917   2.434  1.00  0.00    -0.415 N 
HETATM   30  C1  UNL     1      27.265  16.896   1.535  1.00  0.00     0.140 C 
ATOM     31  H1  UNL     1      27.435  18.727   2.636  1.00  0.00     0.153 HD
ENDBRANCH   1  29
BRANCH   8  32
HETATM   32  O6  UNL     1      24.465  16.545   4.714  1.00  0.00    -0.391 OA
ATOM     33  H6  UNL     1      24.517  15.799   5.299  1.00  0.00     0.210 HD
ENDBRANCH   8  32
BRANCH   7  34
HETATM   34  C11 UNL     1      26.401  16.355   6.436  1.00  0.00     0.105 C 
BRANCH  34  35
HETATM   35  S2  UNL     1      27.699  16.660   7.647  1.00  0.00    -0.141 SA
BRANCH  35  36
HETATM   36  C12 UNL     1      29.246  16.964   6.821  1.00  0.00     0.188 C 
HETATM   37  N6  UNL     1      29.605  18.326   6.625  1.00  0.00    -0.128 NA
HETATM   38  N7  UNL     1      30.983  18.398   6.455  1.00  0.00    -0.111 NA
HETATM   39  C13 UNL     1      31.561  17.125   6.800  1.00  0.00     0.322 C 
HETATM   40  C14 UNL     1      30.452  16.459   7.626  1.00  0.00     0.196 C 
BRANCH  39  41
HETATM   41  N8  UNL     1      32.795  17.231   7.515  1.00  0.00    -0.058 N 
ATOM     42  H83 UNL     1      33.580  16.965   6.921  1.00  0.00     0.276 HD
ATOM     43  H82 UNL     1      33.032  18.209   7.682  1.00  0.00     0.276 HD
ATOM     44  H81 UNL     1      32.808  16.703   8.388  1.00  0.00     0.276 HD
ENDBRANCH  39  41
BRANCH  40  45
HETATM   45  O5  UNL     1      30.544  15.087   7.624  1.00  0.00    -0.390 OA
ATOM     46  H5  UNL     1      31.427  14.785   7.447  1.00  0.00     0.210 HD
ENDBRANCH  40  45
ENDBRANCH  35  36
ENDBRANCH  34  35
ENDBRANCH   7  34
TORSDOF 14
ENDMDL
MODEL 4
REMARK VINA RESULT: -5.934073798      3.057      5.685
REMARK  14 active torsions:
REMARK  status: ('A' for Active; 'I' for Inactive)
REMARK    1  A    between atoms: N1_2  and  C2_4 
REMARK    2  A    between atoms: C3_5  and  O1_6 
REMARK    3  A    between atoms: O1_6  and  C4_7 
REMARK    4  A    between atoms: C5_9  and  S1_10 
REMARK    5  A    between atoms: S1_10  and  C6_11 
REMARK    6  A    between atoms: C7_15  and  N3_16 
REMARK    7  A    between atoms: C8_20  and  O3_21 
REMARK    8  A    between atoms: C9_23  and  O4_24 
REMARK    9  A    between atoms: C10_30  and  C11_31 
REMARK   10  A    between atoms: C11_31  and  S2_32 
REMARK   11  A    between atoms: S2_32  and  C12_33 
REMARK   12  A    between atoms: C13_36  and  N8_37 
REMARK   13  A    between atoms: C14_41  and  O5_42 
REMARK   14  A    between atoms: C15_44  and  O6_45 
ROOT
HETATM    1  C2  UNL     1      25.566  18.212   3.049  1.00  0.00     0.157 C 
HETATM    2  C3  UNL     1      25.110  19.463   3.794  1.00  0.00     0.263 C 
HETATM    3  N4  UNL     1      26.120  19.808   4.721  1.00  0.00    -0.309 N 
ATOM      4  H4  UNL     1      26.322  20.793   4.889  1.00  0.00     0.182 HD
HETATM    5  N5  UNL     1      26.757  18.961   5.325  1.00  0.00    -0.330 N 
ATOM      6  H5  UNL     1      27.467  19.298   5.975  1.00  0.00     0.180 HD
HETATM    7  C10 UNL     1      26.609  17.542   5.215  1.00  0.00     0.139 C 
HETATM    8  C15 UNL     1      25.622  17.135   4.142  1.00  0.00     0.169 C 
ENDROOT
BRANCH   2   9
HETATM    9  O1  UNL     1      24.708  20.460   2.950  1.00  0.00    -0.331 OA
BRANCH   9  10
HETATM   10  C4  UNL     1      24.588  21.670   3.575  1.00  0.00     0.295 C 
HETATM   11  O2  UNL     1      23.299  22.175   3.422  1.00  0.00    -0.340 OA
HETATM   12  C5  UNL     1      23.002  23.192   4.295  1.00  0.00     0.224 C 
HETATM   13  C7  UNL     1      24.048  24.225   4.504  1.00  0.00     0.253 C 
HETATM   14  C8  UNL     1      25.430  23.877   4.079  1.00  0.00     0.185 C 
HETATM   15  C9  UNL     1      25.498  22.757   3.047  1.00  0.00     0.204 C 
BRANCH  12  16
HETATM   16  S1  UNL     1      22.371  22.538   5.888  1.00  0.00    -0.091 SA
BRANCH  16  17
HETATM   17  C6  UNL     1      20.702  21.987   5.596  1.00  0.00     0.129 C 
HETATM   18  N2  UNL     1      20.410  21.227   4.618  1.00  0.00    -0.403 N 
ATOM     19  H22 UNL     1      21.163  20.935   3.995  1.00  0.00     0.155 HD
ATOM     20  H21 UNL     1      19.455  20.911   4.451  1.00  0.00     0.155 HD
ENDBRANCH  16  17
ENDBRANCH  12  16
BRANCH  13  21
HETATM   21  N3  UNL     1      23.632  25.541   3.992  1.00  0.00    -0.069 N 
ATOM     22  H33 UNL     1      22.615  25.614   3.943  1.00  0.00     0.275 HD
ATOM     23  H32 UNL     1      23.813  26.278   4.674  1.00  0.00     0.275 HD
ATOM     24  H31 UNL     1      24.062  25.753   3.092  1.00  0.00     0.275 HD
ENDBRANCH  13  21
BRANCH  14  25
HETATM   25  O3  UNL     1      26.082  25.016   3.633  1.00  0.00    -0.391 OA
ATOM     26  H3  UNL     1      26.956  24.789   3.336  1.00  0.00     0.210 HD
ENDBRANCH  14  25
BRANCH  15  27
HETATM   27  O4  UNL     1      26.824  22.343   2.971  1.00  0.00    -0.388 OA
ATOM     28  H4  UNL     1      27.177  22.427   2.093  1.00  0.00     0.210 HD
ENDBRANCH  15  27
ENDBRANCH   9  10
ENDBRANCH   2   9
BRANCH   1  29
HETATM   29  N1  UNL     1      26.873  18.332   2.507  1.00  0.00    -0.415 N 
HETATM   30  C1  UNL     1      27.295  17.296   1.627  1.00  0.00     0.140 C 
ATOM     31  H1  UNL     1      27.478  19.121   2.737  1.00  0.00     0.153 HD
ENDBRANCH   1  29
BRANCH   8  32
HETATM   32  O6  UNL     1      24.362  17.120   4.740  1.00  0.00    -0.391 OA
ATOM     33  H6  UNL     1      24.375  17.800   5.403  1.00  0.00     0.210 HD
ENDBRANCH   8  32
BRANCH   7  34
HETATM   34  C11 UNL     1      26.203  17.031   6.572  1.00  0.00     0.105 C 
BRANCH  34  35
HETATM   35  S2  UNL     1      27.575  17.063   7.739  1.00  0.00    -0.141 SA
BRANCH  35  36
HETATM   36  C12 UNL     1      29.112  17.281   6.869  1.00  0.00     0.188 C 
HETATM   37  N6  UNL     1      29.577  18.618   6.726  1.00  0.00    -0.128 NA
HETATM   38  N7  UNL     1      30.950  18.585   6.506  1.00  0.00    -0.111 NA
HETATM   39  C13 UNL     1      31.430  17.254   6.767  1.00  0.00     0.322 C 
HETATM   40  C14 UNL     1      30.299  16.640   7.602  1.00  0.00     0.196 C 
BRANCH  39  41
HETATM   41  N8  UNL     1      32.693  17.223   7.438  1.00  0.00    -0.058 N 
ATOM     42  H83 UNL     1      33.222  16.393   7.171  1.00  0.00     0.276 HD
ATOM     43  H82 UNL     1      33.313  17.945   7.073  1.00  0.00     0.276 HD
ATOM     44  H81 UNL     1      32.617  17.291   8.453  1.00  0.00     0.276 HD
ENDBRANCH  39  41
BRANCH  40  45
HETATM   45  O5  UNL     1      30.276  15.266   7.531  1.00  0.00    -0.390 OA
ATOM     46  H5  UNL     1      30.818  14.933   6.826  1.00  0.00     0.210 HD
ENDBRANCH  40  45
ENDBRANCH  35  36
ENDBRANCH  34  35
ENDBRANCH   7  34
TORSDOF 14
ENDMDL
MODEL 5
REMARK VINA RESULT: -5.893293224      2.417      5.041
REMARK  14 active torsions:
REMARK  status: ('A' for Active; 'I' for Inactive)
REMARK    1  A    between atoms: N1_2  and  C2_4 
REMARK    2  A    between atoms: C3_5  and  O1_6 
REMARK    3  A    between atoms: O1_6  and  C4_7 
REMARK    4  A    between atoms: C5_9  and  S1_10 
REMARK    5  A    between atoms: S1_10  and  C6_11 
REMARK    6  A    between atoms: C7_15  and  N3_16 
REMARK    7  A    between atoms: C8_20  and  O3_21 
REMARK    8  A    between atoms: C9_23  and  O4_24 
REMARK    9  A    between atoms: C10_30  and  C11_31 
REMARK   10  A    between atoms: C11_31  and  S2_32 
REMARK   11  A    between atoms: S2_32  and  C12_33 
REMARK   12  A    between atoms: C13_36  and  N8_37 
REMARK   13  A    between atoms: C14_41  and  O5_42 
REMARK   14  A    between atoms: C15_44  and  O6_45 
ROOT
HETATM    1  C2  UNL     1      26.016  16.974   4.544  1.00  0.00     0.157 C 
HETATM    2  C3  UNL     1      25.508  18.152   5.371  1.00  0.00     0.263 C 
HETATM    3  N4  UNL     1      26.623  18.942   5.732  1.00  0.00    -0.309 N 
ATOM      4  H4  UNL     1      26.524  19.956   5.758  1.00  0.00     0.182 HD
HETATM    5  N5  UNL     1      27.701  18.444   6.015  1.00  0.00    -0.330 N 
ATOM      6  H5  UNL     1      28.452  19.088   6.264  1.00  0.00     0.180 HD
HETATM    7  C10 UNL     1      28.018  17.049   6.032  1.00  0.00     0.139 C 
HETATM    8  C15 UNL     1      26.883  16.181   5.533  1.00  0.00     0.169 C 
ENDROOT
BRANCH   2   9
HETATM    9  O1  UNL     1      24.479  18.815   4.764  1.00  0.00    -0.331 OA
BRANCH   9  10
HETATM   10  C4  UNL     1      24.740  20.143   4.571  1.00  0.00     0.295 C 
HETATM   11  O2  UNL     1      23.906  20.927   5.364  1.00  0.00    -0.340 OA
HETATM   12  C5  UNL     1      24.333  22.225   5.491  1.00  0.00     0.224 C 
HETATM   13  C7  UNL     1      24.821  22.896   4.259  1.00  0.00     0.253 C 
HETATM   14  C8  UNL     1      25.173  22.018   3.111  1.00  0.00     0.185 C 
HETATM   15  C9  UNL     1      24.519  20.642   3.160  1.00  0.00     0.204 C 
BRANCH  12  16
HETATM   16  S1  UNL     1      25.525  22.402   6.874  1.00  0.00    -0.091 SA
BRANCH  16  17
HETATM   17  C6  UNL     1      27.148  22.508   6.148  1.00  0.00     0.129 C 
HETATM   18  N2  UNL     1      28.163  21.974   6.700  1.00  0.00    -0.403 N 
ATOM     19  H22 UNL     1      28.026  21.476   7.579  1.00  0.00     0.155 HD
ATOM     20  H21 UNL     1      29.093  22.035   6.284  1.00  0.00     0.155 HD
ENDBRANCH  16  17
ENDBRANCH  12  16
BRANCH  13  21
HETATM   21  N3  UNL     1      23.944  24.005   3.853  1.00  0.00    -0.069 N 
ATOM     22  H33 UNL     1      23.103  23.662   3.388  1.00  0.00     0.275 HD
ATOM     23  H32 UNL     1      23.510  24.450   4.662  1.00  0.00     0.275 HD
ATOM     24  H31 UNL     1      24.435  24.687   3.274  1.00  0.00     0.275 HD
ENDBRANCH  13  21
BRANCH  14  25
HETATM   25  O3  UNL     1      24.891  22.670   1.921  1.00  0.00    -0.391 OA
ATOM     26  H3  UNL     1      25.281  22.196   1.196  1.00  0.00     0.210 HD
ENDBRANCH  14  25
BRANCH  15  27
HETATM   27  O4  UNL     1      25.157  19.846   2.214  1.00  0.00    -0.388 OA
ATOM     28  H4  UNL     1      24.571  19.203   1.831  1.00  0.00     0.210 HD
ENDBRANCH  15  27
ENDBRANCH   9  10
ENDBRANCH   2   9
BRANCH   1  29
HETATM   29  N1  UNL     1      26.855  17.370   3.469  1.00  0.00    -0.415 N 
HETATM   30  C1  UNL     1      26.847  16.535   2.316  1.00  0.00     0.140 C 
ATOM     31  H1  UNL     1      27.433  18.209   3.521  1.00  0.00     0.153 HD
ENDBRANCH   1  29
BRANCH   8  32
HETATM   32  O6  UNL     1      26.071  15.909   6.633  1.00  0.00    -0.391 OA
ATOM     33  H6  UNL     1      26.430  15.130   7.042  1.00  0.00     0.210 HD
ENDBRANCH   8  32
BRANCH   7  34
HETATM   34  C11 UNL     1      28.410  16.700   7.444  1.00  0.00     0.105 C 
BRANCH  34  35
HETATM   35  S2  UNL     1      28.554  18.165   8.481  1.00  0.00    -0.141 SA
BRANCH  35  36
HETATM   36  C12 UNL     1      30.091  18.999   8.149  1.00  0.00     0.188 C 
HETATM   37  N6  UNL     1      30.218  19.614   6.872  1.00  0.00    -0.128 NA
HETATM   38  N7  UNL     1      31.192  20.603   6.954  1.00  0.00    -0.111 NA
HETATM   39  C13 UNL     1      31.517  20.821   8.339  1.00  0.00     0.322 C 
HETATM   40  C14 UNL     1      30.317  20.205   9.073  1.00  0.00     0.196 C 
BRANCH  39  41
HETATM   41  N8  UNL     1      31.719  22.197   8.670  1.00  0.00    -0.058 N 
ATOM     42  H83 UNL     1      32.406  22.621   8.046  1.00  0.00     0.276 HD
ATOM     43  H82 UNL     1      30.900  22.752   8.423  1.00  0.00     0.276 HD
ATOM     44  H81 UNL     1      31.977  22.349   9.645  1.00  0.00     0.276 HD
ENDBRANCH  39  41
BRANCH  40  45
HETATM   45  O5  UNL     1      30.624  19.826  10.360  1.00  0.00    -0.390 OA
ATOM     46  H5  UNL     1      29.878  19.900  10.944  1.00  0.00     0.210 HD
ENDBRANCH  40  45
ENDBRANCH  35  36
ENDBRANCH  34  35
ENDBRANCH   7  34
TORSDOF 14
ENDMDL
