MODEL 1
REMARK VINA RESULT: -7.532084632      0.000      0.000
REMARK  13 active torsions:
REMARK  status: ('A' for Active; 'I' for Inactive)
REMARK    1  A    between atoms: N2_3  and  C2_5 
REMARK    2  A    between atoms: C2_5  and  C3_6 
REMARK    3  A    between atoms: C2_5  and  C17_45 
REMARK    4  A    between atoms: N5_11  and  C4_12 
REMARK    5  A    between atoms: C4_12  and  C5_13 
REMARK       I    between atoms: C5_13  and  N6_15 
REMARK    6  A    between atoms: N6_15  and  C6_17 
REMARK    7  A    between atoms: C11_22  and  O2_23 
REMARK    8  A    between atoms: C12_25  and  N7_26 
REMARK    9  A    between atoms: C14_32  and  N10_33 
REMARK   10  A    between atoms: C15_38  and  N12_39 
REMARK   11  A    between atoms: C17_45  and  O3_46 
REMARK   12  A    between atoms: C17_45  and  C18_48 
REMARK   13  A    between atoms: C18_48  and  O4_49 
ROOT
HETATM    1  N1  UNL     1      30.100  20.418   8.115  1.00  0.00    -0.172 NA
HETATM    2  C1  UNL     1      30.431  19.469   7.502  1.00  0.00     0.178 C 
HETATM    3  N2  UNL     1      30.830  18.354   6.752  1.00  0.00    -0.316 N 
ATOM      4  H2  UNL     1      31.573  18.429   6.057  1.00  0.00     0.172 HD
ENDROOT
BRANCH   3   5
HETATM    5  C2  UNL     1      30.166  17.105   6.986  1.00  0.00     0.178 C 
BRANCH   5   6
HETATM    6  C3  UNL     1      28.971  16.825   6.208  1.00  0.00     0.100 A 
HETATM    7  N3  UNL     1      28.934  16.430   4.900  1.00  0.00    -0.284 N 
HETATM    8  N4  UNL     1      27.685  16.243   4.523  1.00  0.00    -0.238 N 
ATOM      9  H3  UNL     1      29.752  16.300   4.304  1.00  0.00     0.188 HD
HETATM   10  N5  UNL     1      26.863  16.499   5.542  1.00  0.00    -0.250 N 
ATOM     11  H4  UNL     1      27.391  15.948   3.592  1.00  0.00     0.208 HD
HETATM   12  C12 UNL     1      27.654  16.864   6.600  1.00  0.00     0.175 A 
BRANCH  10  13
HETATM   13  C4  UNL     1      25.434  16.431   5.591  1.00  0.00     0.255 C 
BRANCH  13  14
HETATM   14  C5  UNL     1      24.853  17.580   4.821  1.00  0.00     0.242 C 
HETATM   15  O1  UNL     1      23.763  17.375   4.279  1.00  0.00    -0.271 OA
HETATM   16  N6  UNL     1      25.580  18.787   4.772  1.00  0.00    -0.323 N 
ATOM     17  H6  UNL     1      26.466  18.788   5.277  1.00  0.00     0.169 HD
BRANCH  16  18
HETATM   18  C6  UNL     1      25.252  19.983   4.127  1.00  0.00     0.068 A 
HETATM   19  C7  UNL     1      25.643  20.255   2.823  1.00  0.00     0.032 A 
HETATM   20  C8  UNL     1      25.291  21.451   2.246  1.00  0.00     0.002 A 
HETATM   21  C9  UNL     1      24.559  22.390   2.928  1.00  0.00     0.003 A 
HETATM   22  C10 UNL     1      24.169  22.145   4.199  1.00  0.00     0.039 A 
HETATM   23  C11 UNL     1      24.507  20.948   4.812  1.00  0.00     0.092 A 
BRANCH  23  24
HETATM   24  O2  UNL     1      24.091  20.754   6.085  1.00  0.00    -0.358 OA
ATOM     25  H2  UNL     1      23.847  21.480   6.647  1.00  0.00     0.217 HD
ENDBRANCH  23  24
ENDBRANCH  16  18
ENDBRANCH  13  14
ENDBRANCH  10  13
BRANCH  12  26
HETATM   26  N7  UNL     1      27.207  17.217   7.899  1.00  0.00    -0.203 N 
HETATM   27  N8  UNL     1      27.014  16.457   8.962  1.00  0.00    -0.232 N 
HETATM   28  N9  UNL     1      26.601  17.147   9.987  1.00  0.00    -0.279 N 
ATOM     29  H8  UNL     1      27.169  15.449   8.979  1.00  0.00     0.209 HD
HETATM   30  C13 UNL     1      26.507  18.441   9.613  1.00  0.00     0.140 A 
ATOM     31  H9  UNL     1      26.387  16.774  10.911  1.00  0.00     0.189 HD
HETATM   32  C14 UNL     1      26.128  19.564  10.292  1.00  0.00     0.147 A 
HETATM   33  C16 UNL     1      26.899  18.468   8.268  1.00  0.00     0.177 A 
HETATM   34  N11 UNL     1      26.141  20.730   9.626  1.00  0.00    -0.175 N 
HETATM   35  C15 UNL     1      26.516  20.797   8.318  1.00  0.00     0.679 A 
ATOM     36  H11 UNL     1      25.863  21.585  10.110  1.00  0.00     0.186 HD
HETATM   37  N13 UNL     1      26.880  19.670   7.685  1.00  0.00    -0.172 N 
ATOM     38  H13 UNL     1      27.158  19.736   6.705  1.00  0.00     0.186 HD
BRANCH  32  39
HETATM   39  N10 UNL     1      25.782  19.459  11.525  1.00  0.00    -0.383 N 
ATOM     40 2H10 UNL     1      26.345  18.977  12.225  1.00  0.00     0.157 HD
ATOM     41 1H10 UNL     1      24.900  19.873  11.828  1.00  0.00     0.157 HD
ENDBRANCH  32  39
BRANCH  35  42
HETATM   42  N12 UNL     1      26.531  21.918   7.669  1.00  0.00    -0.234 N 
ATOM     43 2H12 UNL     1      26.889  22.754   8.131  1.00  0.00     0.174 HD
ATOM     44 1H12 UNL     1      26.195  21.987   6.709  1.00  0.00     0.174 HD
ENDBRANCH  35  42
ENDBRANCH  12  26
ENDBRANCH   5   6
BRANCH   5  45
HETATM   45  C17 UNL     1      31.202  16.005   6.973  1.00  0.00     0.171 C 
BRANCH  45  46
HETATM   46  O3  UNL     1      31.097  15.312   5.726  1.00  0.00    -0.391 OA
ATOM     47  H3  UNL     1      30.384  14.688   5.795  1.00  0.00     0.210 HD
ENDBRANCH  45  46
BRANCH  45  48
HETATM   48  C18 UNL     1      31.011  14.988   8.079  1.00  0.00     0.198 C 
BRANCH  48  49
HETATM   49  O4  UNL     1      31.592  15.316   9.279  1.00  0.00    -0.398 OA
ATOM     50  H4  UNL     1      31.079  15.098  10.048  1.00  0.00     0.209 HD
ENDBRANCH  48  49
ENDBRANCH  45  48
ENDBRANCH   5  45
ENDBRANCH   3   5
TORSDOF 13
ENDMDL
MODEL 2
REMARK VINA RESULT: -7.282479845      1.057      2.064
REMARK  13 active torsions:
REMARK  status: ('A' for Active; 'I' for Inactive)
REMARK    1  A    between atoms: N2_3  and  C2_5 
REMARK    2  A    between atoms: C2_5  and  C3_6 
REMARK    3  A    between atoms: C2_5  and  C17_45 
REMARK    4  A    between atoms: N5_11  and  C4_12 
REMARK    5  A    between atoms: C4_12  and  C5_13 
REMARK       I    between atoms: C5_13  and  N6_15 
REMARK    6  A    between atoms: N6_15  and  C6_17 
REMARK    7  A    between atoms: C11_22  and  O2_23 
REMARK    8  A    between atoms: C12_25  and  N7_26 
REMARK    9  A    between atoms: C14_32  and  N10_33 
REMARK   10  A    between atoms: C15_38  and  N12_39 
REMARK   11  A    between atoms: C17_45  and  O3_46 
REMARK   12  A    between atoms: C17_45  and  C18_48 
REMARK   13  A    between atoms: C18_48  and  O4_49 
ROOT
HETATM    1  N1  UNL     1      32.137  20.378   8.594  1.00  0.00    -0.172 NA
HETATM    2  C1  UNL     1      31.365  19.865   7.868  1.00  0.00     0.178 C 
HETATM    3  N2  UNL     1      30.434  19.278   7.000  1.00  0.00    -0.316 N 
ATOM      4  H2  UNL     1      30.051  19.799   6.212  1.00  0.00     0.172 HD
ENDROOT
BRANCH   3   5
HETATM    5  C2  UNL     1      30.034  17.924   7.250  1.00  0.00     0.178 C 
BRANCH   5   6
HETATM    6  C3  UNL     1      28.871  17.425   6.536  1.00  0.00     0.100 A 
HETATM    7  N3  UNL     1      28.880  16.516   5.515  1.00  0.00    -0.284 N 
HETATM    8  N4  UNL     1      27.646  16.276   5.118  1.00  0.00    -0.238 N 
ATOM      9  H3  UNL     1      29.717  16.088   5.120  1.00  0.00     0.188 HD
HETATM   10  N5  UNL     1      26.790  16.997   5.842  1.00  0.00    -0.250 N 
ATOM     11  H4  UNL     1      27.385  15.634   4.369  1.00  0.00     0.208 HD
HETATM   12  C12 UNL     1      27.542  17.720   6.731  1.00  0.00     0.175 A 
BRANCH  10  13
HETATM   13  C4  UNL     1      25.362  17.058   5.762  1.00  0.00     0.255 C 
BRANCH  13  14
HETATM   14  C5  UNL     1      24.962  18.148   4.812  1.00  0.00     0.242 C 
HETATM   15  O1  UNL     1      23.925  17.957   4.170  1.00  0.00    -0.271 OA
HETATM   16  N6  UNL     1      25.784  19.291   4.722  1.00  0.00    -0.323 N 
ATOM     17  H6  UNL     1      26.607  19.289   5.325  1.00  0.00     0.169 HD
BRANCH  16  18
HETATM   18  C6  UNL     1      25.626  20.425   3.920  1.00  0.00     0.068 A 
HETATM   19  C7  UNL     1      25.514  20.350   2.539  1.00  0.00     0.032 A 
HETATM   20  C8  UNL     1      25.363  21.502   1.808  1.00  0.00     0.002 A 
HETATM   21  C9  UNL     1      25.319  22.734   2.410  1.00  0.00     0.003 A 
HETATM   22  C10 UNL     1      25.427  22.830   3.754  1.00  0.00     0.039 A 
HETATM   23  C11 UNL     1      25.581  21.687   4.523  1.00  0.00     0.092 A 
BRANCH  23  24
HETATM   24  O2  UNL     1      25.683  21.840   5.863  1.00  0.00    -0.358 OA
ATOM     25  H2  UNL     1      26.313  21.348   6.376  1.00  0.00     0.217 HD
ENDBRANCH  23  24
ENDBRANCH  16  18
ENDBRANCH  13  14
ENDBRANCH  10  13
BRANCH  12  26
HETATM   26  N7  UNL     1      27.049  18.622   7.709  1.00  0.00    -0.203 N 
HETATM   27  N8  UNL     1      26.741  19.902   7.600  1.00  0.00    -0.232 N 
HETATM   28  N9  UNL     1      26.309  20.398   8.723  1.00  0.00    -0.279 N 
ATOM     29  H8  UNL     1      26.830  20.439   6.737  1.00  0.00     0.209 HD
HETATM   30  C13 UNL     1      26.321  19.414   9.650  1.00  0.00     0.140 A 
ATOM     31  H9  UNL     1      26.014  21.362   8.878  1.00  0.00     0.189 HD
HETATM   32  C14 UNL     1      25.971  19.398  10.970  1.00  0.00     0.147 A 
HETATM   33  C16 UNL     1      26.799  18.280   8.980  1.00  0.00     0.177 A 
HETATM   34  N11 UNL     1      26.098  18.238  11.634  1.00  0.00    -0.175 N 
HETATM   35  C15 UNL     1      26.560  17.113  11.018  1.00  0.00     0.679 A 
ATOM     36  H11 UNL     1      25.843  18.197  12.621  1.00  0.00     0.186 HD
HETATM   37  N13 UNL     1      26.894  17.171   9.719  1.00  0.00    -0.172 N 
ATOM     38  H13 UNL     1      27.239  16.321   9.272  1.00  0.00     0.186 HD
BRANCH  32  39
HETATM   39  N10 UNL     1      25.539  20.479  11.514  1.00  0.00    -0.383 N 
ATOM     40 2H10 UNL     1      26.125  21.299  11.670  1.00  0.00     0.157 HD
ATOM     41 1H10 UNL     1      24.564  20.529  11.808  1.00  0.00     0.157 HD
ENDBRANCH  32  39
BRANCH  35  42
HETATM   42  N12 UNL     1      26.685  15.991  11.652  1.00  0.00    -0.234 N 
ATOM     43 2H12 UNL     1      26.044  15.779  12.417  1.00  0.00     0.174 HD
ATOM     44 1H12 UNL     1      27.407  15.314  11.407  1.00  0.00     0.174 HD
ENDBRANCH  35  42
ENDBRANCH  12  26
ENDBRANCH   5   6
BRANCH   5  45
HETATM   45  C17 UNL     1      31.257  17.041   7.162  1.00  0.00     0.171 C 
BRANCH  45  46
HETATM   46  O3  UNL     1      31.632  16.941   5.786  1.00  0.00    -0.391 OA
ATOM     47  H3  UNL     1      31.905  17.802   5.490  1.00  0.00     0.210 HD
ENDBRANCH  45  46
BRANCH  45  48
HETATM   48  C18 UNL     1      31.022  15.636   7.676  1.00  0.00     0.198 C 
BRANCH  48  49
HETATM   49  O4  UNL     1      31.456  15.404   8.957  1.00  0.00    -0.398 OA
ATOM     50  H4  UNL     1      32.194  14.811   9.032  1.00  0.00     0.209 HD
ENDBRANCH  48  49
ENDBRANCH  45  48
ENDBRANCH   5  45
ENDBRANCH   3   5
TORSDOF 13
ENDMDL
MODEL 3
REMARK VINA RESULT: -7.178778098      1.966      4.232
REMARK  13 active torsions:
REMARK  status: ('A' for Active; 'I' for Inactive)
REMARK    1  A    between atoms: N2_3  and  C2_5 
REMARK    2  A    between atoms: C2_5  and  C3_6 
REMARK    3  A    between atoms: C2_5  and  C17_45 
REMARK    4  A    between atoms: N5_11  and  C4_12 
REMARK    5  A    between atoms: C4_12  and  C5_13 
REMARK       I    between atoms: C5_13  and  N6_15 
REMARK    6  A    between atoms: N6_15  and  C6_17 
REMARK    7  A    between atoms: C11_22  and  O2_23 
REMARK    8  A    between atoms: C12_25  and  N7_26 
REMARK    9  A    between atoms: C14_32  and  N10_33 
REMARK   10  A    between atoms: C15_38  and  N12_39 
REMARK   11  A    between atoms: C17_45  and  O3_46 
REMARK   12  A    between atoms: C17_45  and  C18_48 
REMARK   13  A    between atoms: C18_48  and  O4_49 
ROOT
HETATM    1  N1  UNL     1      31.908  15.311   9.330  1.00  0.00    -0.172 NA
HETATM    2  C1  UNL     1      30.985  15.421   8.606  1.00  0.00     0.178 C 
HETATM    3  N2  UNL     1      29.891  15.527   7.736  1.00  0.00    -0.316 N 
ATOM      4  H2  UNL     1      29.265  14.736   7.584  1.00  0.00     0.172 HD
ENDROOT
BRANCH   3   5
HETATM    5  C2  UNL     1      29.675  16.776   7.066  1.00  0.00     0.178 C 
BRANCH   5   6
HETATM    6  C3  UNL     1      28.902  17.787   7.765  1.00  0.00     0.100 A 
HETATM    7  N3  UNL     1      29.374  18.650   8.715  1.00  0.00    -0.284 N 
HETATM    8  N4  UNL     1      28.404  19.446   9.120  1.00  0.00    -0.238 N 
ATOM      9  H3  UNL     1      30.334  18.673   9.060  1.00  0.00     0.188 HD
HETATM   10  N5  UNL     1      27.278  19.152   8.469  1.00  0.00    -0.250 N 
ATOM     11  H4  UNL     1      28.501  20.177   9.824  1.00  0.00     0.208 HD
HETATM   12  C12 UNL     1      27.575  18.117   7.621  1.00  0.00     0.175 A 
BRANCH  10  13
HETATM   13  C4  UNL     1      25.982  19.750   8.584  1.00  0.00     0.255 C 
BRANCH  13  14
HETATM   14  C5  UNL     1      25.851  20.852   7.574  1.00  0.00     0.242 C 
HETATM   15  O1  UNL     1      26.906  21.352   7.175  1.00  0.00    -0.271 OA
HETATM   16  N6  UNL     1      24.556  21.229   7.162  1.00  0.00    -0.323 N 
ATOM     17  H6  UNL     1      23.789  20.711   7.592  1.00  0.00     0.169 HD
BRANCH  16  18
HETATM   18  C6  UNL     1      24.179  22.215   6.246  1.00  0.00     0.068 A 
HETATM   19  C7  UNL     1      24.328  23.570   6.508  1.00  0.00     0.032 A 
HETATM   20  C8  UNL     1      23.936  24.489   5.566  1.00  0.00     0.002 A 
HETATM   21  C9  UNL     1      23.396  24.102   4.366  1.00  0.00     0.003 A 
HETATM   22  C10 UNL     1      23.240  22.788   4.091  1.00  0.00     0.039 A 
HETATM   23  C11 UNL     1      23.626  21.833   5.019  1.00  0.00     0.092 A 
BRANCH  23  24
HETATM   24  O2  UNL     1      23.449  20.532   4.693  1.00  0.00    -0.358 OA
ATOM     25  H2  UNL     1      24.102  19.872   4.894  1.00  0.00     0.217 HD
ENDBRANCH  23  24
ENDBRANCH  16  18
ENDBRANCH  13  14
ENDBRANCH  10  13
BRANCH  12  26
HETATM   26  N7  UNL     1      26.678  17.483   6.724  1.00  0.00    -0.203 N 
HETATM   27  N8  UNL     1      26.057  16.321   6.828  1.00  0.00    -0.232 N 
HETATM   28  N9  UNL     1      25.301  16.077   5.797  1.00  0.00    -0.279 N 
ATOM     29  H8  UNL     1      26.158  15.690   7.623  1.00  0.00     0.209 HD
HETATM   30  C13 UNL     1      25.405  17.119   4.943  1.00  0.00     0.140 A 
ATOM     31  H9  UNL     1      24.730  15.244   5.658  1.00  0.00     0.189 HD
HETATM   32  C14 UNL     1      24.829  17.367   3.729  1.00  0.00     0.147 A 
HETATM   33  C16 UNL     1      26.294  18.013   5.554  1.00  0.00     0.177 A 
HETATM   34  N11 UNL     1      25.139  18.520   3.115  1.00  0.00    -0.175 N 
HETATM   35  C15 UNL     1      26.000  19.415   3.678  1.00  0.00     0.679 A 
ATOM     36  H11 UNL     1      24.723  18.731   2.208  1.00  0.00     0.186 HD
HETATM   37  N13 UNL     1      26.546  19.133   4.872  1.00  0.00    -0.172 N 
ATOM     38  H13 UNL     1      27.189  19.812   5.280  1.00  0.00     0.186 HD
BRANCH  32  39
HETATM   39  N10 UNL     1      24.022  16.499   3.233  1.00  0.00    -0.383 N 
ATOM     40 2H10 UNL     1      23.766  15.635   3.712  1.00  0.00     0.157 HD
ATOM     41 1H10 UNL     1      23.614  16.671   2.315  1.00  0.00     0.157 HD
ENDBRANCH  32  39
BRANCH  35  42
HETATM   42  N12 UNL     1      26.304  20.529   3.092  1.00  0.00    -0.234 N 
ATOM     43 2H12 UNL     1      26.022  20.673   2.123  1.00  0.00     0.174 HD
ATOM     44 1H12 UNL     1      26.819  21.266   3.574  1.00  0.00     0.174 HD
ENDBRANCH  35  42
ENDBRANCH  12  26
ENDBRANCH   5   6
BRANCH   5  45
HETATM   45  C17 UNL     1      30.999  17.257   6.518  1.00  0.00     0.171 C 
BRANCH  45  46
HETATM   46  O3  UNL     1      30.945  18.682   6.417  1.00  0.00    -0.391 OA
ATOM     47  H3  UNL     1      31.814  19.024   6.594  1.00  0.00     0.210 HD
ENDBRANCH  45  46
BRANCH  45  48
HETATM   48  C18 UNL     1      31.312  16.712   5.140  1.00  0.00     0.198 C 
BRANCH  48  49
HETATM   49  O4  UNL     1      31.214  15.349   5.016  1.00  0.00    -0.398 OA
ATOM     50  H4  UNL     1      31.966  14.924   4.621  1.00  0.00     0.209 HD
ENDBRANCH  48  49
ENDBRANCH  45  48
ENDBRANCH   5  45
ENDBRANCH   3   5
TORSDOF 13
ENDMDL
MODEL 4
REMARK VINA RESULT: -7.048998867      1.441      1.972
REMARK  13 active torsions:
REMARK  status: ('A' for Active; 'I' for Inactive)
REMARK    1  A    between atoms: N2_3  and  C2_5 
REMARK    2  A    between atoms: C2_5  and  C3_6 
REMARK    3  A    between atoms: C2_5  and  C17_45 
REMARK    4  A    between atoms: N5_11  and  C4_12 
REMARK    5  A    between atoms: C4_12  and  C5_13 
REMARK       I    between atoms: C5_13  and  N6_15 
REMARK    6  A    between atoms: N6_15  and  C6_17 
REMARK    7  A    between atoms: C11_22  and  O2_23 
REMARK    8  A    between atoms: C12_25  and  N7_26 
REMARK    9  A    between atoms: C14_32  and  N10_33 
REMARK   10  A    between atoms: C15_38  and  N12_39 
REMARK   11  A    between atoms: C17_45  and  O3_46 
REMARK   12  A    between atoms: C17_45  and  C18_48 
REMARK   13  A    between atoms: C18_48  and  O4_49 
ROOT
HETATM    1  N1  UNL     1      31.397  14.050   8.192  1.00  0.00    -0.172 NA
HETATM    2  C1  UNL     1      30.953  15.139   8.265  1.00  0.00     0.178 C 
HETATM    3  N2  UNL     1      30.409  16.427   8.371  1.00  0.00    -0.316 N 
ATOM      4  H2  UNL     1      30.154  16.813   9.280  1.00  0.00     0.172 HD
ENDROOT
BRANCH   3   5
HETATM    5  C2  UNL     1      30.221  17.186   7.169  1.00  0.00     0.178 C 
BRANCH   5   6
HETATM    6  C3  UNL     1      29.041  16.899   6.373  1.00  0.00     0.100 A 
HETATM    7  N3  UNL     1      29.028  16.498   5.066  1.00  0.00    -0.284 N 
HETATM    8  N4  UNL     1      27.786  16.306   4.668  1.00  0.00    -0.238 N 
ATOM      9  H3  UNL     1      29.856  16.366   4.485  1.00  0.00     0.188 HD
HETATM   10  N5  UNL     1      26.946  16.566   5.670  1.00  0.00    -0.250 N 
ATOM     11  H4  UNL     1      27.509  16.005   3.734  1.00  0.00     0.208 HD
HETATM   12  C12 UNL     1      27.717  16.938   6.740  1.00  0.00     0.175 A 
BRANCH  10  13
HETATM   13  C4  UNL     1      25.516  16.495   5.695  1.00  0.00     0.255 C 
BRANCH  13  14
HETATM   14  C5  UNL     1      24.947  17.622   4.886  1.00  0.00     0.242 C 
HETATM   15  O1  UNL     1      23.911  17.374   4.262  1.00  0.00    -0.271 OA
HETATM   16  N6  UNL     1      25.623  18.860   4.896  1.00  0.00    -0.323 N 
ATOM     17  H6  UNL     1      26.468  18.895   5.467  1.00  0.00     0.169 HD
BRANCH  16  18
HETATM   18  C6  UNL     1      25.295  20.044   4.231  1.00  0.00     0.068 A 
HETATM   19  C7  UNL     1      25.697  20.302   2.928  1.00  0.00     0.032 A 
HETATM   20  C8  UNL     1      25.344  21.487   2.331  1.00  0.00     0.002 A 
HETATM   21  C9  UNL     1      24.599  22.430   2.992  1.00  0.00     0.003 A 
HETATM   22  C10 UNL     1      24.198  22.201   4.263  1.00  0.00     0.039 A 
HETATM   23  C11 UNL     1      24.537  21.014   4.895  1.00  0.00     0.092 A 
BRANCH  23  24
HETATM   24  O2  UNL     1      24.109  20.835   6.166  1.00  0.00    -0.358 OA
ATOM     25  H2  UNL     1      23.202  20.633   6.365  1.00  0.00     0.217 HD
ENDBRANCH  23  24
ENDBRANCH  16  18
ENDBRANCH  13  14
ENDBRANCH  10  13
BRANCH  12  26
HETATM   26  N7  UNL     1      27.246  17.297   8.029  1.00  0.00    -0.203 N 
HETATM   27  N8  UNL     1      27.035  16.542   9.093  1.00  0.00    -0.232 N 
HETATM   28  N9  UNL     1      26.604  17.236  10.107  1.00  0.00    -0.279 N 
ATOM     29  H8  UNL     1      27.191  15.534   9.117  1.00  0.00     0.209 HD
HETATM   30  C13 UNL     1      26.514  18.528   9.724  1.00  0.00     0.140 A 
ATOM     31  H9  UNL     1      26.373  16.867  11.029  1.00  0.00     0.189 HD
HETATM   32  C14 UNL     1      26.122  19.654  10.391  1.00  0.00     0.147 A 
HETATM   33  C16 UNL     1      26.931  18.549   8.387  1.00  0.00     0.177 A 
HETATM   34  N11 UNL     1      26.146  20.817   9.720  1.00  0.00    -0.175 N 
HETATM   35  C15 UNL     1      26.545  20.878   8.419  1.00  0.00     0.679 A 
ATOM     36  H11 UNL     1      25.859  21.673  10.194  1.00  0.00     0.186 HD
HETATM   37  N13 UNL     1      26.921  19.748   7.797  1.00  0.00    -0.172 N 
ATOM     38  H13 UNL     1      27.217  19.810   6.823  1.00  0.00     0.186 HD
BRANCH  32  39
HETATM   39  N10 UNL     1      25.754  19.555  11.618  1.00  0.00    -0.383 N 
ATOM     40 2H10 UNL     1      25.146  18.811  11.961  1.00  0.00     0.157 HD
ATOM     41 1H10 UNL     1      26.078  20.250  12.290  1.00  0.00     0.157 HD
ENDBRANCH  32  39
BRANCH  35  42
HETATM   42  N12 UNL     1      26.570  21.995   7.765  1.00  0.00    -0.234 N 
ATOM     43 2H12 UNL     1      25.740  22.587   7.762  1.00  0.00     0.174 HD
ATOM     44 1H12 UNL     1      27.398  22.299   7.252  1.00  0.00     0.174 HD
ENDBRANCH  35  42
ENDBRANCH  12  26
ENDBRANCH   5   6
BRANCH   5  45
HETATM   45  C17 UNL     1      30.427  18.648   7.493  1.00  0.00     0.171 C 
BRANCH  45  46
HETATM   46  O3  UNL     1      29.767  19.421   6.488  1.00  0.00    -0.391 OA
ATOM     47  H3  UNL     1      29.081  19.927   6.908  1.00  0.00     0.210 HD
ENDBRANCH  45  46
BRANCH  45  48
HETATM   48  C18 UNL     1      31.884  19.060   7.504  1.00  0.00     0.198 C 
BRANCH  48  49
HETATM   49  O4  UNL     1      32.234  19.938   8.499  1.00  0.00    -0.398 OA
ATOM     50  H4  UNL     1      32.259  20.851   8.242  1.00  0.00     0.209 HD
ENDBRANCH  48  49
ENDBRANCH  45  48
ENDBRANCH   5  45
ENDBRANCH   3   5
TORSDOF 13
ENDMDL
MODEL 5
REMARK VINA RESULT: -6.991384144      2.637      5.444
REMARK  13 active torsions:
REMARK  status: ('A' for Active; 'I' for Inactive)
REMARK    1  A    between atoms: N2_3  and  C2_5 
REMARK    2  A    between atoms: C2_5  and  C3_6 
REMARK    3  A    between atoms: C2_5  and  C17_45 
REMARK    4  A    between atoms: N5_11  and  C4_12 
REMARK    5  A    between atoms: C4_12  and  C5_13 
REMARK       I    between atoms: C5_13  and  N6_15 
REMARK    6  A    between atoms: N6_15  and  C6_17 
REMARK    7  A    between atoms: C11_22  and  O2_23 
REMARK    8  A    between atoms: C12_25  and  N7_26 
REMARK    9  A    between atoms: C14_32  and  N10_33 
REMARK   10  A    between atoms: C15_38  and  N12_39 
REMARK   11  A    between atoms: C17_45  and  O3_46 
REMARK   12  A    between atoms: C17_45  and  C18_48 
REMARK   13  A    between atoms: C18_48  and  O4_49 
ROOT
HETATM    1  N1  UNL     1      26.269  14.864   8.123  1.00  0.00    -0.172 NA
HETATM    2  C1  UNL     1      25.885  15.413   7.154  1.00  0.00     0.178 C 
HETATM    3  N2  UNL     1      25.420  16.043   5.991  1.00  0.00    -0.316 N 
ATOM      4  H2  UNL     1      24.581  15.712   5.516  1.00  0.00     0.172 HD
ENDROOT
BRANCH   3   5
HETATM    5  C2  UNL     1      26.156  17.166   5.488  1.00  0.00     0.178 C 
BRANCH   5   6
HETATM    6  C3  UNL     1      27.517  17.344   5.964  1.00  0.00     0.100 A 
HETATM    7  N3  UNL     1      28.644  16.807   5.405  1.00  0.00    -0.284 N 
HETATM    8  N4  UNL     1      29.707  17.194   6.082  1.00  0.00    -0.238 N 
ATOM      9  H3  UNL     1      28.659  16.197   4.588  1.00  0.00     0.188 HD
HETATM   10  N5  UNL     1      29.338  17.985   7.090  1.00  0.00    -0.250 N 
ATOM     11  H4  UNL     1      30.668  16.929   5.866  1.00  0.00     0.208 HD
HETATM   12  C12 UNL     1      27.973  18.086   7.028  1.00  0.00     0.175 A 
BRANCH  10  13
HETATM   13  C4  UNL     1      30.148  18.631   8.078  1.00  0.00     0.255 C 
BRANCH  13  14
HETATM   14  C5  UNL     1      30.418  20.044   7.656  1.00  0.00     0.242 C 
HETATM   15  O1  UNL     1      31.252  20.193   6.758  1.00  0.00    -0.271 OA
HETATM   16  N6  UNL     1      29.715  21.081   8.303  1.00  0.00    -0.323 N 
ATOM     17  H6  UNL     1      29.059  20.783   9.026  1.00  0.00     0.169 HD
BRANCH  16  18
HETATM   18  C6  UNL     1      29.792  22.460   8.091  1.00  0.00     0.068 A 
HETATM   19  C7  UNL     1      30.857  23.225   8.547  1.00  0.00     0.032 A 
HETATM   20  C8  UNL     1      30.872  24.577   8.307  1.00  0.00     0.002 A 
HETATM   21  C9  UNL     1      29.857  25.197   7.624  1.00  0.00     0.003 A 
HETATM   22  C10 UNL     1      28.810  24.471   7.172  1.00  0.00     0.039 A 
HETATM   23  C11 UNL     1      28.762  23.104   7.396  1.00  0.00     0.092 A 
BRANCH  23  24
HETATM   24  O2  UNL     1      27.692  22.426   6.920  1.00  0.00    -0.358 OA
ATOM     25  H2  UNL     1      27.485  22.405   5.994  1.00  0.00     0.217 HD
ENDBRANCH  23  24
ENDBRANCH  16  18
ENDBRANCH  13  14
ENDBRANCH  10  13
BRANCH  12  26
HETATM   26  N7  UNL     1      27.146  18.838   7.901  1.00  0.00    -0.203 N 
HETATM   27  N8  UNL     1      26.527  19.988   7.700  1.00  0.00    -0.232 N 
HETATM   28  N9  UNL     1      25.848  20.367   8.744  1.00  0.00    -0.279 N 
ATOM     29  H8  UNL     1      26.576  20.517   6.829  1.00  0.00     0.209 HD
HETATM   30  C13 UNL     1      26.006  19.435   9.710  1.00  0.00     0.140 A 
ATOM     31  H9  UNL     1      25.294  21.219   8.820  1.00  0.00     0.189 HD
HETATM   32  C14 UNL     1      25.516  19.344  10.981  1.00  0.00     0.147 A 
HETATM   33  C16 UNL     1      26.843  18.460   9.151  1.00  0.00     0.177 A 
HETATM   34  N11 UNL     1      25.862  18.270  11.708  1.00  0.00    -0.175 N 
HETATM   35  C15 UNL     1      26.674  17.300  11.200  1.00  0.00     0.679 A 
ATOM     36  H11 UNL     1      25.510  18.177  12.661  1.00  0.00     0.186 HD
HETATM   37  N13 UNL     1      27.136  17.427   9.946  1.00  0.00    -0.172 N 
ATOM     38  H13 UNL     1      27.743  16.693   9.579  1.00  0.00     0.186 HD
BRANCH  32  39
HETATM   39  N10 UNL     1      24.753  20.279  11.423  1.00  0.00    -0.383 N 
ATOM     40 2H10 UNL     1      24.935  21.270  11.267  1.00  0.00     0.157 HD
ATOM     41 1H10 UNL     1      23.923  20.028  11.959  1.00  0.00     0.157 HD
ENDBRANCH  32  39
BRANCH  35  42
HETATM   42  N12 UNL     1      27.012  16.261  11.895  1.00  0.00    -0.234 N 
ATOM     43 2H12 UNL     1      26.301  15.777  12.442  1.00  0.00     0.174 HD
ATOM     44 1H12 UNL     1      27.971  15.913  11.909  1.00  0.00     0.174 HD
ENDBRANCH  35  42
ENDBRANCH  12  26
ENDBRANCH   5   6
BRANCH   5  45
HETATM   45  C17 UNL     1      26.002  17.201   3.985  1.00  0.00     0.171 C 
BRANCH  45  46
HETATM   46  O3  UNL     1      26.735  18.324   3.489  1.00  0.00    -0.391 OA
ATOM     47  H3  UNL     1      27.112  18.084   2.651  1.00  0.00     0.210 HD
ENDBRANCH  45  46
BRANCH  45  48
HETATM   48  C18 UNL     1      24.565  17.357   3.533  1.00  0.00     0.198 C 
BRANCH  48  49
HETATM   49  O4  UNL     1      24.203  16.580   2.461  1.00  0.00    -0.398 OA
ATOM     50  H4  UNL     1      23.267  16.466   2.343  1.00  0.00     0.209 HD
ENDBRANCH  48  49
ENDBRANCH  45  48
ENDBRANCH   5  45
ENDBRANCH   3   5
TORSDOF 13
ENDMDL
