MODEL 1
REMARK VINA RESULT: -6.877581716      0.000      0.000
REMARK  15 active torsions:
REMARK  status: ('A' for Active; 'I' for Inactive)
REMARK    1  A    between atoms: N4_12  and  O2_13 
REMARK    2  A    between atoms: C7_15  and  C8_16 
REMARK    3  A    between atoms: C8_16  and  N5_17 
REMARK    4  A    between atoms: C8_16  and  C13_34 
REMARK    5  A    between atoms: N5_17  and  C9_18 
REMARK    6  A    between atoms: C9_18  and  N6_19 
REMARK    7  A    between atoms: C9_18  and  C10_24 
REMARK    8  A    between atoms: N6_19  and  N7_21 
REMARK    9  A    between atoms: C12_30  and  N10_31 
REMARK   10  A    between atoms: C13_34  and  C14_36 
REMARK   11  A    between atoms: C14_36  and  C15_37 
REMARK   12  A    between atoms: C14_36  and  C16_40 
REMARK   13  A    between atoms: C15_37  and  O4_38 
REMARK   14  A    between atoms: C16_40  and  O5_41 
REMARK   15  A    between atoms: C16_40  and  O6_43 
ROOT
HETATM    1  N1  UNL     1      28.293  21.573   6.943  1.00  0.00    -0.191 NA
HETATM    2  C1  UNL     1      27.767  20.566   6.880  1.00  0.00     0.102 C 
HETATM    3  C2  UNL     1      27.106  19.307   6.754  1.00  0.00     0.081 A 
HETATM    4  C3  UNL     1      26.084  19.210   5.798  1.00  0.00     0.070 A 
HETATM    5  N2  UNL     1      25.714  20.355   5.064  1.00  0.00    -0.101 NA
HETATM    6  C4  UNL     1      25.442  18.030   5.568  1.00  0.00     0.065 A 
HETATM    7  C5  UNL     1      25.828  16.941   6.303  1.00  0.00     0.121 A 
HETATM    8  C6  UNL     1      26.830  17.040   7.242  1.00  0.00     0.099 A 
HETATM    9  N3  UNL     1      26.940  15.799   7.748  1.00  0.00    -0.236 N 
ATOM     10  H3  UNL     1      27.600  15.521   8.475  1.00  0.00     0.197 HD
HETATM   11  O1  UNL     1      26.077  14.995   7.174  1.00  0.00    -0.128 OA
HETATM   12  N4  UNL     1      25.389  15.653   6.295  1.00  0.00    -0.100 N 
HETATM   13  C7  UNL     1      27.505  18.248   7.497  1.00  0.00     0.038 A 
ENDROOT
BRANCH  13  14
HETATM   14  C8  UNL     1      28.563  18.280   8.551  1.00  0.00     0.272 C 
BRANCH  14  15
HETATM   15  N5  UNL     1      28.006  17.953   9.742  1.00  0.00    -0.410 NA
BRANCH  15  16
HETATM   16  C9  UNL     1      27.522  17.665  10.778  1.00  0.00     0.204 C 
BRANCH  16  17
HETATM   17  N6  UNL     1      28.339  16.857  11.681  1.00  0.00    -0.280 N 
ATOM     18  H6  UNL     1      27.943  16.081  12.212  1.00  0.00     0.189 HD
BRANCH  17  19
HETATM   19  N7  UNL     1      29.682  17.198  11.780  1.00  0.00    -0.343 N 
ATOM     20  H72 UNL     1      30.379  16.754  11.183  1.00  0.00     0.176 HD
ATOM     21  H71 UNL     1      29.923  17.907  12.473  1.00  0.00     0.176 HD
ENDBRANCH  17  19
ENDBRANCH  16  17
BRANCH  16  22
HETATM   22  C10 UNL     1      26.197  18.020  11.287  1.00  0.00     0.099 A 
HETATM   23  C11 UNL     1      25.353  17.191  11.914  1.00  0.00     0.140 A 
HETATM   24  N8  UNL     1      25.636  15.793  12.183  1.00  0.00    -0.081 NA
HETATM   25  N9  UNL     1      24.179  17.642  12.324  1.00  0.00    -0.312 N 
HETATM   26  S1  UNL     1      24.178  19.267  11.858  1.00  0.00     0.005 SA
ATOM     27  H9  UNL     1      23.444  17.128  12.809  1.00  0.00     0.175 HD
HETATM   28  C12 UNL     1      25.740  19.321  11.125  1.00  0.00     0.103 A 
BRANCH  28  29
HETATM   29  N10 UNL     1      26.267  20.361  10.587  1.00  0.00    -0.392 N 
ATOM     30 2H10 UNL     1      26.746  20.376   9.686  1.00  0.00     0.156 HD
ATOM     31 1H10 UNL     1      26.332  21.333  10.892  1.00  0.00     0.156 HD
ENDBRANCH  28  29
ENDBRANCH  16  22
ENDBRANCH  15  16
ENDBRANCH  14  15
BRANCH  14  32
HETATM   32  C13 UNL     1      29.823  17.599   8.210  1.00  0.00     0.178 C 
HETATM   33  O3  UNL     1      30.269  16.752   9.004  1.00  0.00    -0.293 OA
BRANCH  32  34
HETATM   34  C14 UNL     1      30.587  17.858   6.998  1.00  0.00     0.137 C 
BRANCH  34  35
HETATM   35  C15 UNL     1      32.041  18.213   7.189  1.00  0.00     0.181 C 
BRANCH  35  36
HETATM   36  O4  UNL     1      32.855  17.225   7.639  1.00  0.00    -0.400 OA
ATOM     37  H4  UNL     1      32.804  17.019   8.565  1.00  0.00     0.209 HD
ENDBRANCH  35  36
ENDBRANCH  34  35
BRANCH  34  38
HETATM   38  C16 UNL     1      30.627  16.616   6.081  1.00  0.00     0.267 C 
BRANCH  38  39
HETATM   39  O5  UNL     1      30.986  15.473   6.736  1.00  0.00    -0.371 OA
ATOM     40  H5  UNL     1      30.264  14.867   6.857  1.00  0.00     0.212 HD
ENDBRANCH  38  39
BRANCH  38  41
HETATM   41  O6  UNL     1      31.517  16.936   5.040  1.00  0.00    -0.371 OA
ATOM     42  H6  UNL     1      32.390  16.799   5.392  1.00  0.00     0.212 HD
ENDBRANCH  38  41
ENDBRANCH  34  38
ENDBRANCH  32  34
ENDBRANCH  14  32
ENDBRANCH  13  14
BRANCH  12  43
HETATM   43  O2  UNL     1      24.375  15.201   5.461  1.00  0.00    -0.261 OA
ATOM     44  H2  UNL     1      24.080  14.299   5.443  1.00  0.00     0.247 HD
ENDBRANCH  12  43
TORSDOF 15
ENDMDL
MODEL 2
REMARK VINA RESULT: -6.729931080      2.825      5.904
REMARK  15 active torsions:
REMARK  status: ('A' for Active; 'I' for Inactive)
REMARK    1  A    between atoms: N4_12  and  O2_13 
REMARK    2  A    between atoms: C7_15  and  C8_16 
REMARK    3  A    between atoms: C8_16  and  N5_17 
REMARK    4  A    between atoms: C8_16  and  C13_34 
REMARK    5  A    between atoms: N5_17  and  C9_18 
REMARK    6  A    between atoms: C9_18  and  N6_19 
REMARK    7  A    between atoms: C9_18  and  C10_24 
REMARK    8  A    between atoms: N6_19  and  N7_21 
REMARK    9  A    between atoms: C12_30  and  N10_31 
REMARK   10  A    between atoms: C13_34  and  C14_36 
REMARK   11  A    between atoms: C14_36  and  C15_37 
REMARK   12  A    between atoms: C14_36  and  C16_40 
REMARK   13  A    between atoms: C15_37  and  O4_38 
REMARK   14  A    between atoms: C16_40  and  O5_41 
REMARK   15  A    between atoms: C16_40  and  O6_43 
ROOT
HETATM    1  N1  UNL     1      27.278  22.316   8.237  1.00  0.00    -0.191 NA
HETATM    2  C1  UNL     1      27.976  21.438   8.043  1.00  0.00     0.102 C 
HETATM    3  C2  UNL     1      28.885  20.359   7.823  1.00  0.00     0.081 A 
HETATM    4  C3  UNL     1      30.210  20.690   7.504  1.00  0.00     0.070 A 
HETATM    5  N2  UNL     1      30.565  22.046   7.350  1.00  0.00    -0.101 NA
HETATM    6  C4  UNL     1      31.159  19.726   7.338  1.00  0.00     0.065 A 
HETATM    7  C5  UNL     1      30.774  18.421   7.495  1.00  0.00     0.121 A 
HETATM    8  C6  UNL     1      29.472  18.099   7.806  1.00  0.00     0.099 A 
HETATM    9  N3  UNL     1      29.467  16.757   7.886  1.00  0.00    -0.236 N 
ATOM     10  H3  UNL     1      28.649  16.188   8.104  1.00  0.00     0.197 HD
HETATM   11  O1  UNL     1      30.665  16.283   7.642  1.00  0.00    -0.128 OA
HETATM   12  N4  UNL     1      31.480  17.262   7.402  1.00  0.00    -0.100 N 
HETATM   13  C7  UNL     1      28.476  19.078   7.980  1.00  0.00     0.038 A 
ENDROOT
BRANCH  13  14
HETATM   14  C8  UNL     1      27.080  18.647   8.290  1.00  0.00     0.272 C 
BRANCH  14  15
HETATM   15  N5  UNL     1      26.534  18.094   7.181  1.00  0.00    -0.410 NA
BRANCH  15  16
HETATM   16  C9  UNL     1      26.062  17.611   6.214  1.00  0.00     0.204 C 
BRANCH  16  17
HETATM   17  N6  UNL     1      25.531  16.256   6.351  1.00  0.00    -0.280 N 
ATOM     18  H6  UNL     1      24.556  16.040   6.143  1.00  0.00     0.189 HD
BRANCH  17  19
HETATM   19  N7  UNL     1      26.420  15.278   6.780  1.00  0.00    -0.343 N 
ATOM     20  H72 UNL     1      27.384  15.268   6.448  1.00  0.00     0.176 HD
ATOM     21  H71 UNL     1      26.057  14.585   7.434  1.00  0.00     0.176 HD
ENDBRANCH  17  19
ENDBRANCH  16  17
BRANCH  16  22
HETATM   22  C10 UNL     1      25.931  18.199   4.882  1.00  0.00     0.099 A 
HETATM   23  C11 UNL     1      26.466  17.710   3.756  1.00  0.00     0.140 A 
HETATM   24  N8  UNL     1      27.269  16.503   3.694  1.00  0.00    -0.081 NA
HETATM   25  N9  UNL     1      26.270  18.344   2.612  1.00  0.00    -0.312 N 
HETATM   26  S1  UNL     1      25.318  19.674   3.036  1.00  0.00     0.005 SA
ATOM     27  H9  UNL     1      26.615  18.089   1.686  1.00  0.00     0.175 HD
HETATM   28  C12 UNL     1      25.194  19.366   4.730  1.00  0.00     0.103 A 
BRANCH  28  29
HETATM   29  N10 UNL     1      24.552  20.097   5.568  1.00  0.00    -0.392 N 
ATOM     30 2H10 UNL     1      24.884  20.352   6.498  1.00  0.00     0.156 HD
ATOM     31 1H10 UNL     1      23.644  20.560   5.520  1.00  0.00     0.156 HD
ENDBRANCH  28  29
ENDBRANCH  16  22
ENDBRANCH  15  16
ENDBRANCH  14  15
BRANCH  14  32
HETATM   32  C13 UNL     1      26.910  17.897   9.547  1.00  0.00     0.178 C 
HETATM   33  O3  UNL     1      26.522  16.717   9.480  1.00  0.00    -0.293 OA
BRANCH  32  34
HETATM   34  C14 UNL     1      27.164  18.452  10.867  1.00  0.00     0.137 C 
BRANCH  34  35
HETATM   35  C15 UNL     1      25.967  18.586  11.777  1.00  0.00     0.181 C 
BRANCH  35  36
HETATM   36  O4  UNL     1      25.009  17.632  11.668  1.00  0.00    -0.400 OA
ATOM     37  H4  UNL     1      24.758  17.185  12.468  1.00  0.00     0.209 HD
ENDBRANCH  35  36
ENDBRANCH  34  35
BRANCH  34  38
HETATM   38  C16 UNL     1      28.142  17.568  11.672  1.00  0.00     0.267 C 
BRANCH  38  39
HETATM   39  O5  UNL     1      29.263  17.227  10.970  1.00  0.00    -0.371 OA
ATOM     40  H5  UNL     1      29.650  16.408  11.257  1.00  0.00     0.212 HD
ENDBRANCH  38  39
BRANCH  38  41
HETATM   41  O6  UNL     1      27.401  16.442  12.074  1.00  0.00    -0.371 OA
ATOM     42  H6  UNL     1      28.033  15.830  12.434  1.00  0.00     0.212 HD
ENDBRANCH  38  41
ENDBRANCH  34  38
ENDBRANCH  32  34
ENDBRANCH  14  32
ENDBRANCH  13  14
BRANCH  12  43
HETATM   43  O2  UNL     1      32.834  17.218   7.097  1.00  0.00    -0.261 OA
ATOM     44  H2  UNL     1      33.242  17.793   6.461  1.00  0.00     0.247 HD
ENDBRANCH  12  43
TORSDOF 15
ENDMDL
MODEL 3
REMARK VINA RESULT: -6.435108788      3.292      6.160
REMARK  15 active torsions:
REMARK  status: ('A' for Active; 'I' for Inactive)
REMARK    1  A    between atoms: N4_12  and  O2_13 
REMARK    2  A    between atoms: C7_15  and  C8_16 
REMARK    3  A    between atoms: C8_16  and  N5_17 
REMARK    4  A    between atoms: C8_16  and  C13_34 
REMARK    5  A    between atoms: N5_17  and  C9_18 
REMARK    6  A    between atoms: C9_18  and  N6_19 
REMARK    7  A    between atoms: C9_18  and  C10_24 
REMARK    8  A    between atoms: N6_19  and  N7_21 
REMARK    9  A    between atoms: C12_30  and  N10_31 
REMARK   10  A    between atoms: C13_34  and  C14_36 
REMARK   11  A    between atoms: C14_36  and  C15_37 
REMARK   12  A    between atoms: C14_36  and  C16_40 
REMARK   13  A    between atoms: C15_37  and  O4_38 
REMARK   14  A    between atoms: C16_40  and  O5_41 
REMARK   15  A    between atoms: C16_40  and  O6_43 
ROOT
HETATM    1  N1  UNL     1      25.141  22.144   8.851  1.00  0.00    -0.191 NA
HETATM    2  C1  UNL     1      26.182  21.834   8.510  1.00  0.00     0.102 C 
HETATM    3  C2  UNL     1      27.505  21.475   8.113  1.00  0.00     0.081 A 
HETATM    4  C3  UNL     1      28.458  22.503   8.045  1.00  0.00     0.070 A 
HETATM    5  N2  UNL     1      28.059  23.831   8.300  1.00  0.00    -0.101 NA
HETATM    6  C4  UNL     1      29.759  22.241   7.737  1.00  0.00     0.065 A 
HETATM    7  C5  UNL     1      30.106  20.939   7.494  1.00  0.00     0.121 A 
HETATM    8  C6  UNL     1      29.168  19.932   7.559  1.00  0.00     0.099 A 
HETATM    9  N3  UNL     1      29.857  18.812   7.276  1.00  0.00    -0.236 N 
ATOM     10  H3  UNL     1      29.458  17.874   7.240  1.00  0.00     0.197 HD
HETATM   11  O1  UNL     1      31.117  19.098   7.051  1.00  0.00    -0.128 OA
HETATM   12  N4  UNL     1      31.302  20.375   7.174  1.00  0.00    -0.100 N 
HETATM   13  C7  UNL     1      27.820  20.180   7.875  1.00  0.00     0.038 A 
ENDROOT
BRANCH  13  14
HETATM   14  C8  UNL     1      26.858  19.037   7.899  1.00  0.00     0.272 C 
BRANCH  14  15
HETATM   15  N5  UNL     1      26.590  18.661   6.626  1.00  0.00    -0.410 NA
BRANCH  15  16
HETATM   16  C9  UNL     1      26.354  18.332   5.519  1.00  0.00     0.204 C 
BRANCH  16  17
HETATM   17  N6  UNL     1      26.648  16.943   5.171  1.00  0.00    -0.280 N 
ATOM     18  H6  UNL     1      25.913  16.293   4.894  1.00  0.00     0.189 HD
BRANCH  17  19
HETATM   19  N7  UNL     1      27.980  16.553   5.236  1.00  0.00    -0.343 N 
ATOM     20  H72 UNL     1      28.676  16.968   4.616  1.00  0.00     0.176 HD
ATOM     21  H71 UNL     1      28.215  15.842   5.928  1.00  0.00     0.176 HD
ENDBRANCH  17  19
ENDBRANCH  16  17
BRANCH  16  22
HETATM   22  C10 UNL     1      25.791  19.138   4.436  1.00  0.00     0.099 A 
HETATM   23  C11 UNL     1      26.079  19.009   3.135  1.00  0.00     0.140 A 
HETATM   24  N8  UNL     1      27.009  18.032   2.601  1.00  0.00    -0.081 NA
HETATM   25  N9  UNL     1      25.498  19.808   2.255  1.00  0.00    -0.312 N 
HETATM   26  S1  UNL     1      24.503  20.799   3.195  1.00  0.00     0.005 SA
ATOM     27  H9  UNL     1      25.622  19.823   1.243  1.00  0.00     0.175 HD
HETATM   28  C12 UNL     1      24.875  20.135   4.744  1.00  0.00     0.103 A 
BRANCH  28  29
HETATM   29  N10 UNL     1      24.373  20.532   5.858  1.00  0.00    -0.392 N 
ATOM     30 2H10 UNL     1      24.740  20.302   6.781  1.00  0.00     0.156 HD
ATOM     31 1H10 UNL     1      23.567  21.118   6.077  1.00  0.00     0.156 HD
ENDBRANCH  28  29
ENDBRANCH  16  22
ENDBRANCH  15  16
ENDBRANCH  14  15
BRANCH  14  32
HETATM   32  C13 UNL     1      27.178  17.956   8.847  1.00  0.00     0.178 C 
HETATM   33  O3  UNL     1      27.413  16.823   8.391  1.00  0.00    -0.293 OA
BRANCH  32  34
HETATM   34  C14 UNL     1      27.233  18.128  10.291  1.00  0.00     0.137 C 
BRANCH  34  35
HETATM   35  C15 UNL     1      26.357  17.209  11.107  1.00  0.00     0.181 C 
BRANCH  35  36
HETATM   36  O4  UNL     1      26.188  15.950  10.634  1.00  0.00    -0.400 OA
ATOM     37  H4  UNL     1      26.002  15.275  11.276  1.00  0.00     0.209 HD
ENDBRANCH  35  36
ENDBRANCH  34  35
BRANCH  34  38
HETATM   38  C16 UNL     1      28.654  17.863  10.836  1.00  0.00     0.267 C 
BRANCH  38  39
HETATM   39  O5  UNL     1      29.542  17.491   9.868  1.00  0.00    -0.371 OA
ATOM     40  H5  UNL     1      30.299  17.029  10.211  1.00  0.00     0.212 HD
ENDBRANCH  38  39
BRANCH  38  41
HETATM   41  O6  UNL     1      28.507  16.880  11.831  1.00  0.00    -0.371 OA
ATOM     42  H6  UNL     1      28.657  16.047  11.398  1.00  0.00     0.212 HD
ENDBRANCH  38  41
ENDBRANCH  34  38
ENDBRANCH  32  34
ENDBRANCH  14  32
ENDBRANCH  13  14
BRANCH  12  43
HETATM   43  O2  UNL     1      32.472  21.108   7.024  1.00  0.00    -0.261 OA
ATOM     44  H2  UNL     1      32.655  21.901   7.513  1.00  0.00     0.247 HD
ENDBRANCH  12  43
TORSDOF 15
ENDMDL
MODEL 4
REMARK VINA RESULT: -6.387248192      1.274      2.071
REMARK  15 active torsions:
REMARK  status: ('A' for Active; 'I' for Inactive)
REMARK    1  A    between atoms: N4_12  and  O2_13 
REMARK    2  A    between atoms: C7_15  and  C8_16 
REMARK    3  A    between atoms: C8_16  and  N5_17 
REMARK    4  A    between atoms: C8_16  and  C13_34 
REMARK    5  A    between atoms: N5_17  and  C9_18 
REMARK    6  A    between atoms: C9_18  and  N6_19 
REMARK    7  A    between atoms: C9_18  and  C10_24 
REMARK    8  A    between atoms: N6_19  and  N7_21 
REMARK    9  A    between atoms: C12_30  and  N10_31 
REMARK   10  A    between atoms: C13_34  and  C14_36 
REMARK   11  A    between atoms: C14_36  and  C15_37 
REMARK   12  A    between atoms: C14_36  and  C16_40 
REMARK   13  A    between atoms: C15_37  and  O4_38 
REMARK   14  A    between atoms: C16_40  and  O5_41 
REMARK   15  A    between atoms: C16_40  and  O6_43 
ROOT
HETATM    1  N1  UNL     1      27.478  22.157   6.175  1.00  0.00    -0.191 NA
HETATM    2  C1  UNL     1      27.156  21.074   6.315  1.00  0.00     0.102 C 
HETATM    3  C2  UNL     1      26.752  19.711   6.445  1.00  0.00     0.081 A 
HETATM    4  C3  UNL     1      25.796  19.235   5.536  1.00  0.00     0.070 A 
HETATM    5  N2  UNL     1      25.235  20.123   4.595  1.00  0.00    -0.101 NA
HETATM    6  C4  UNL     1      25.398  17.932   5.547  1.00  0.00     0.065 A 
HETATM    7  C5  UNL     1      25.964  17.101   6.477  1.00  0.00     0.121 A 
HETATM    8  C6  UNL     1      26.901  17.572   7.370  1.00  0.00     0.099 A 
HETATM    9  N3  UNL     1      27.231  16.498   8.109  1.00  0.00    -0.236 N 
ATOM     10  H3  UNL     1      27.911  16.500   8.870  1.00  0.00     0.197 HD
HETATM   11  O1  UNL     1      26.555  15.447   7.711  1.00  0.00    -0.128 OA
HETATM   12  N4  UNL     1      25.779  15.776   6.726  1.00  0.00    -0.100 N 
HETATM   13  C7  UNL     1      27.325  18.914   7.377  1.00  0.00     0.038 A 
ENDROOT
BRANCH  13  14
HETATM   14  C8  UNL     1      28.325  19.354   8.395  1.00  0.00     0.272 C 
BRANCH  14  15
HETATM   15  N5  UNL     1      27.724  19.411   9.607  1.00  0.00    -0.410 NA
BRANCH  15  16
HETATM   16  C9  UNL     1      27.202  19.462  10.663  1.00  0.00     0.204 C 
BRANCH  16  17
HETATM   17  N6  UNL     1      27.257  20.747  11.359  1.00  0.00    -0.280 N 
ATOM     18  H6  UNL     1      27.879  20.899  12.153  1.00  0.00     0.189 HD
BRANCH  17  19
HETATM   19  N7  UNL     1      26.421  21.749  10.884  1.00  0.00    -0.343 N 
ATOM     20  H72 UNL     1      25.411  21.610  10.842  1.00  0.00     0.176 HD
ATOM     21  H71 UNL     1      26.868  22.615  10.586  1.00  0.00     0.176 HD
ENDBRANCH  17  19
ENDBRANCH  16  17
BRANCH  16  22
HETATM   22  C10 UNL     1      26.493  18.399  11.375  1.00  0.00     0.099 A 
HETATM   23  C11 UNL     1      25.197  18.413  11.710  1.00  0.00     0.140 A 
HETATM   24  N8  UNL     1      24.291  19.506  11.410  1.00  0.00    -0.081 NA
HETATM   25  N9  UNL     1      24.680  17.382  12.358  1.00  0.00    -0.312 N 
HETATM   26  S1  UNL     1      25.979  16.318  12.541  1.00  0.00     0.005 SA
ATOM     27  H9  UNL     1      23.718  17.259  12.674  1.00  0.00     0.175 HD
HETATM   28  C12 UNL     1      27.191  17.260  11.753  1.00  0.00     0.103 A 
BRANCH  28  29
HETATM   29  N10 UNL     1      28.417  16.908  11.601  1.00  0.00    -0.392 N 
ATOM     30 2H10 UNL     1      28.977  17.080  10.765  1.00  0.00     0.156 HD
ATOM     31 1H10 UNL     1      29.072  16.419  12.212  1.00  0.00     0.156 HD
ENDBRANCH  28  29
ENDBRANCH  16  22
ENDBRANCH  15  16
ENDBRANCH  14  15
BRANCH  14  32
HETATM   32  C13 UNL     1      29.629  18.669   8.344  1.00  0.00     0.178 C 
HETATM   33  O3  UNL     1      29.933  17.910   9.281  1.00  0.00    -0.293 OA
BRANCH  32  34
HETATM   34  C14 UNL     1      30.591  18.829   7.263  1.00  0.00     0.137 C 
BRANCH  34  35
HETATM   35  C15 UNL     1      31.865  19.561   7.607  1.00  0.00     0.181 C 
BRANCH  35  36
HETATM   36  O4  UNL     1      32.088  19.813   8.921  1.00  0.00    -0.400 OA
ATOM     37  H4  UNL     1      32.153  20.726   9.175  1.00  0.00     0.209 HD
ENDBRANCH  35  36
ENDBRANCH  34  35
BRANCH  34  38
HETATM   38  C16 UNL     1      31.081  17.461   6.739  1.00  0.00     0.267 C 
BRANCH  38  39
HETATM   39  O5  UNL     1      30.145  16.473   6.850  1.00  0.00    -0.371 OA
ATOM     40  H5  UNL     1      29.632  16.531   7.649  1.00  0.00     0.212 HD
ENDBRANCH  38  39
BRANCH  38  41
HETATM   41  O6  UNL     1      32.252  17.170   7.461  1.00  0.00    -0.371 OA
ATOM     42  H6  UNL     1      31.993  17.138   8.375  1.00  0.00     0.212 HD
ENDBRANCH  38  41
ENDBRANCH  34  38
ENDBRANCH  32  34
ENDBRANCH  14  32
ENDBRANCH  13  14
BRANCH  12  43
HETATM   43  O2  UNL     1      24.895  14.984   6.006  1.00  0.00    -0.261 OA
ATOM     44  H2  UNL     1      25.142  14.510   5.221  1.00  0.00     0.247 HD
ENDBRANCH  12  43
TORSDOF 15
ENDMDL
MODEL 5
REMARK VINA RESULT: -6.350479496      1.034      1.179
REMARK  15 active torsions:
REMARK  status: ('A' for Active; 'I' for Inactive)
REMARK    1  A    between atoms: N4_12  and  O2_13 
REMARK    2  A    between atoms: C7_15  and  C8_16 
REMARK    3  A    between atoms: C8_16  and  N5_17 
REMARK    4  A    between atoms: C8_16  and  C13_34 
REMARK    5  A    between atoms: N5_17  and  C9_18 
REMARK    6  A    between atoms: C9_18  and  N6_19 
REMARK    7  A    between atoms: C9_18  and  C10_24 
REMARK    8  A    between atoms: N6_19  and  N7_21 
REMARK    9  A    between atoms: C12_30  and  N10_31 
REMARK   10  A    between atoms: C13_34  and  C14_36 
REMARK   11  A    between atoms: C14_36  and  C15_37 
REMARK   12  A    between atoms: C14_36  and  C16_40 
REMARK   13  A    between atoms: C15_37  and  O4_38 
REMARK   14  A    between atoms: C16_40  and  O5_41 
REMARK   15  A    between atoms: C16_40  and  O6_43 
ROOT
HETATM    1  N1  UNL     1      27.729  21.890   6.488  1.00  0.00    -0.191 NA
HETATM    2  C1  UNL     1      27.325  20.828   6.548  1.00  0.00     0.102 C 
HETATM    3  C2  UNL     1      26.820  19.493   6.577  1.00  0.00     0.081 A 
HETATM    4  C3  UNL     1      25.907  19.129   5.576  1.00  0.00     0.070 A 
HETATM    5  N2  UNL     1      25.482  20.098   4.644  1.00  0.00    -0.101 NA
HETATM    6  C4  UNL     1      25.422  17.859   5.490  1.00  0.00     0.065 A 
HETATM    7  C5  UNL     1      25.857  16.948   6.416  1.00  0.00     0.121 A 
HETATM    8  C6  UNL     1      26.752  17.308   7.398  1.00  0.00     0.099 A 
HETATM    9  N3  UNL     1      26.950  16.180   8.103  1.00  0.00    -0.236 N 
ATOM     10  H3  UNL     1      27.568  16.097   8.911  1.00  0.00     0.197 HD
HETATM   11  O1  UNL     1      26.237  15.200   7.602  1.00  0.00    -0.128 OA
HETATM   12  N4  UNL     1      25.564  15.629   6.581  1.00  0.00    -0.100 N 
HETATM   13  C7  UNL     1      27.264  18.614   7.506  1.00  0.00     0.038 A 
ENDROOT
BRANCH  13  14
HETATM   14  C8  UNL     1      28.211  18.933   8.616  1.00  0.00     0.272 C 
BRANCH  14  15
HETATM   15  N5  UNL     1      27.549  18.854   9.795  1.00  0.00    -0.410 NA
BRANCH  15  16
HETATM   16  C9  UNL     1      26.975  18.784  10.823  1.00  0.00     0.204 C 
BRANCH  16  17
HETATM   17  N6  UNL     1      27.726  18.248  11.957  1.00  0.00    -0.280 N 
ATOM     18  H6  UNL     1      27.930  18.815  12.780  1.00  0.00     0.189 HD
BRANCH  17  19
HETATM   19  N7  UNL     1      28.147  16.928  11.858  1.00  0.00    -0.343 N 
ATOM     20  H72 UNL     1      28.983  16.608  12.348  1.00  0.00     0.176 HD
ATOM     21  H71 UNL     1      27.581  16.310  11.276  1.00  0.00     0.176 HD
ENDBRANCH  17  19
ENDBRANCH  16  17
BRANCH  16  22
HETATM   22  C10 UNL     1      25.597  19.174  11.118  1.00  0.00     0.099 A 
HETATM   23  C11 UNL     1      24.739  18.491  11.887  1.00  0.00     0.140 A 
HETATM   24  N8  UNL     1      25.060  17.243  12.553  1.00  0.00    -0.081 NA
HETATM   25  N9  UNL     1      23.515  18.957  12.071  1.00  0.00    -0.312 N 
HETATM   26  S1  UNL     1      23.481  20.390  11.176  1.00  0.00     0.005 SA
ATOM     27  H9  UNL     1      22.764  18.546  12.626  1.00  0.00     0.175 HD
HETATM   28  C12 UNL     1      25.097  20.348  10.570  1.00  0.00     0.103 A 
BRANCH  28  29
HETATM   29  N10 UNL     1      25.621  21.236   9.805  1.00  0.00    -0.392 N 
ATOM     30 2H10 UNL     1      25.785  22.209  10.063  1.00  0.00     0.156 HD
ATOM     31 1H10 UNL     1      25.972  21.196   8.847  1.00  0.00     0.156 HD
ENDBRANCH  28  29
ENDBRANCH  16  22
ENDBRANCH  15  16
ENDBRANCH  14  15
BRANCH  14  32
HETATM   32  C13 UNL     1      29.517  18.256   8.553  1.00  0.00     0.178 C 
HETATM   33  O3  UNL     1      29.993  17.794   9.606  1.00  0.00    -0.293 OA
BRANCH  32  34
HETATM   34  C14 UNL     1      30.294  18.096   7.333  1.00  0.00     0.137 C 
BRANCH  34  35
HETATM   35  C15 UNL     1      31.549  18.927   7.227  1.00  0.00     0.181 C 
BRANCH  35  36
HETATM   36  O4  UNL     1      32.038  19.442   8.382  1.00  0.00    -0.400 OA
ATOM     37  H4  UNL     1      32.748  18.965   8.795  1.00  0.00     0.209 HD
ENDBRANCH  35  36
ENDBRANCH  34  35
BRANCH  34  38
HETATM   38  C16 UNL     1      30.797  16.645   7.172  1.00  0.00     0.267 C 
BRANCH  38  39
HETATM   39  O5  UNL     1      29.914  15.712   7.638  1.00  0.00    -0.371 OA
ATOM     40  H5  UNL     1      29.065  15.756   7.215  1.00  0.00     0.212 HD
ENDBRANCH  38  39
BRANCH  38  41
HETATM   41  O6  UNL     1      32.033  16.589   7.841  1.00  0.00    -0.371 OA
ATOM     42  H6  UNL     1      31.857  16.179   8.680  1.00  0.00     0.212 HD
ENDBRANCH  38  41
ENDBRANCH  34  38
ENDBRANCH  32  34
ENDBRANCH  14  32
ENDBRANCH  13  14
BRANCH  12  43
HETATM   43  O2  UNL     1      24.686  14.937   5.759  1.00  0.00    -0.261 OA
ATOM     44  H2  UNL     1      23.895  14.518   6.077  1.00  0.00     0.247 HD
ENDBRANCH  12  43
TORSDOF 15
ENDMDL
