MODEL 1
REMARK VINA RESULT: -8.771088186      0.000      0.000
REMARK  16 active torsions:
REMARK  status: ('A' for Active; 'I' for Inactive)
REMARK       I    between atoms: N1_2  and  C3_4 
REMARK    1  A    between atoms: C3_4  and  C4_6 
REMARK    2  A    between atoms: C4_6  and  C5_7 
REMARK    3  A    between atoms: C5_7  and  C6_8 
REMARK    4  A    between atoms: C6_8  and  C7_9 
REMARK    5  A    between atoms: C7_9  and  C8_10 
REMARK    6  A    between atoms: C8_10  and  C9_11 
REMARK    7  A    between atoms: C9_11  and  C10_12 
REMARK    8  A    between atoms: C10_12  and  C11_13 
REMARK    9  A    between atoms: C11_13  and  C12_14 
REMARK   10  A    between atoms: C12_14  and  N2_15 
REMARK   11  A    between atoms: N2_15  and  C13_17 
REMARK   12  A    between atoms: C13_17  and  O2_18 
REMARK   13  A    between atoms: C13_17  and  O3_20 
REMARK   14  A    between atoms: O3_20  and  C14_21 
REMARK   15  A    between atoms: C14_21  and  C17_24 
REMARK   16  A    between atoms: C18_27  and  O4_28 
ROOT
HETATM    1  C14 UNL     1      22.577   9.174  21.061  1.00  0.00     0.093 C 
HETATM    2  C15 UNL     1      21.218   9.716  21.442  1.00  0.00     0.049 C 
HETATM    3  C16 UNL     1      22.917   8.110  22.024  1.00  0.00     0.049 C 
ENDROOT
BRANCH   1   4
HETATM    4  O3  UNL     1      23.448  10.309  21.066  1.00  0.00    -0.304 OA
BRANCH   4   5
HETATM    5  C13 UNL     1      22.981  11.573  21.160  1.00  0.00     0.258 C 
BRANCH   5   6
HETATM    6  N2  UNL     1      23.022  12.427  22.273  1.00  0.00    -0.350 N 
ATOM      7  H2  UNL     1      22.275  13.116  22.357  1.00  0.00     0.163 HD
BRANCH   6   8
HETATM    8  C12 UNL     1      24.025  12.420  23.307  1.00  0.00     0.123 C 
BRANCH   8   9
HETATM    9  C11 UNL     1      23.416  11.969  24.588  1.00  0.00     0.020 C 
BRANCH   9  10
HETATM   10  C10 UNL     1      23.223  12.979  25.658  1.00  0.00     0.002 C 
BRANCH  10  11
HETATM   11  C9  UNL     1      22.709  14.310  25.296  1.00  0.00     0.000 C 
BRANCH  11  12
HETATM   12  C8  UNL     1      21.582  14.862  26.062  1.00  0.00     0.000 C 
BRANCH  12  13
HETATM   13  C7  UNL     1      20.274  14.165  25.640  1.00  0.00     0.000 C 
BRANCH  13  14
HETATM   14  C6  UNL     1      20.191  13.903  24.188  1.00  0.00     0.000 C 
BRANCH  14  15
HETATM   15  C5  UNL     1      19.753  12.442  23.936  1.00  0.00     0.009 C 
BRANCH  15  16
HETATM   16  C4  UNL     1      19.530  11.737  25.232  1.00  0.00     0.103 C 
BRANCH  16  17
HETATM   17  C3  UNL     1      18.846  10.445  24.968  1.00  0.00     0.218 C 
HETATM   18  N1  UNL     1      18.454   9.649  26.072  1.00  0.00    -0.361 N 
HETATM   19  C1  UNL     1      17.763   8.401  25.794  1.00  0.00     0.152 C 
HETATM   20  C2  UNL     1      18.737  10.050  27.434  1.00  0.00     0.152 C 
HETATM   21  O1  UNL     1      18.622  10.082  23.770  1.00  0.00    -0.273 OA
ENDBRANCH  16  17
ENDBRANCH  15  16
ENDBRANCH  14  15
ENDBRANCH  13  14
ENDBRANCH  12  13
ENDBRANCH  11  12
ENDBRANCH  10  11
ENDBRANCH   9  10
ENDBRANCH   8   9
ENDBRANCH   6   8
ENDBRANCH   5   6
BRANCH   5  22
HETATM   22  O2  UNL     1      22.431  12.027  20.068  1.00  0.00    -0.327 OA
ATOM     23  H2  UNL     1      21.502  12.229  20.093  1.00  0.00     0.221 HD
ENDBRANCH   5  22
ENDBRANCH   4   5
ENDBRANCH   1   4
BRANCH   1  24
HETATM   24  C17 UNL     1      22.432   8.655  19.625  1.00  0.00     0.211 C 
HETATM   25  N3  UNL     1      21.528   7.567  19.647  1.00  0.00    -0.340 N 
HETATM   26  C18 UNL     1      20.201   7.445  19.176  1.00  0.00     0.220 C 
ATOM     27  H3  UNL     1      21.900   6.721  20.079  1.00  0.00     0.164 HD
HETATM   28  N4  UNL     1      19.628   7.921  17.984  1.00  0.00    -0.293 N 
HETATM   29  C19 UNL     1      20.032   7.748  16.648  1.00  0.00     0.224 C 
ATOM     30  H4  UNL     1      18.784   8.481  18.108  1.00  0.00     0.172 HD
HETATM   31  O5  UNL     1      19.402   8.310  15.682  1.00  0.00    -0.273 OA
HETATM   32  C20 UNL     1      21.180   6.935  16.231  1.00  0.00     0.103 C 
HETATM   33  C21 UNL     1      20.931   5.497  15.955  1.00  0.00     0.009 C 
HETATM   34  C22 UNL     1      21.585   4.519  16.847  1.00  0.00     0.000 C 
HETATM   35  C23 UNL     1      22.999   4.182  16.696  1.00  0.00     0.000 C 
HETATM   36  C24 UNL     1      23.990   5.175  16.256  1.00  0.00     0.002 C 
HETATM   37  C25 UNL     1      24.997   5.610  17.311  1.00  0.00     0.020 C 
HETATM   38  C26 UNL     1      24.391   5.980  18.632  1.00  0.00     0.122 C 
HETATM   39  N5  UNL     1      24.594   7.344  19.028  1.00  0.00    -0.359 N 
HETATM   40  C27 UNL     1      23.748   8.444  19.007  1.00  0.00     0.243 C 
ATOM     41  H5  UNL     1      25.527   7.540  19.390  1.00  0.00     0.162 HD
HETATM   42  O6  UNL     1      24.192   9.453  18.329  1.00  0.00    -0.271 OA
BRANCH  26  43
HETATM   43  O4  UNL     1      19.436   6.783  20.013  1.00  0.00    -0.332 OA
ATOM     44  H4  UNL     1      19.209   7.298  20.778  1.00  0.00     0.220 HD
ENDBRANCH  26  43
ENDBRANCH   1  24
TORSDOF 16
ENDMDL
MODEL 2
REMARK VINA RESULT: -8.628177681      1.318      1.962
REMARK  16 active torsions:
REMARK  status: ('A' for Active; 'I' for Inactive)
REMARK       I    between atoms: N1_2  and  C3_4 
REMARK    1  A    between atoms: C3_4  and  C4_6 
REMARK    2  A    between atoms: C4_6  and  C5_7 
REMARK    3  A    between atoms: C5_7  and  C6_8 
REMARK    4  A    between atoms: C6_8  and  C7_9 
REMARK    5  A    between atoms: C7_9  and  C8_10 
REMARK    6  A    between atoms: C8_10  and  C9_11 
REMARK    7  A    between atoms: C9_11  and  C10_12 
REMARK    8  A    between atoms: C10_12  and  C11_13 
REMARK    9  A    between atoms: C11_13  and  C12_14 
REMARK   10  A    between atoms: C12_14  and  N2_15 
REMARK   11  A    between atoms: N2_15  and  C13_17 
REMARK   12  A    between atoms: C13_17  and  O2_18 
REMARK   13  A    between atoms: C13_17  and  O3_20 
REMARK   14  A    between atoms: O3_20  and  C14_21 
REMARK   15  A    between atoms: C14_21  and  C17_24 
REMARK   16  A    between atoms: C18_27  and  O4_28 
ROOT
HETATM    1  C14 UNL     1      21.815   9.021  21.415  1.00  0.00     0.093 C 
HETATM    2  C15 UNL     1      20.508   8.434  21.899  1.00  0.00     0.049 C 
HETATM    3  C16 UNL     1      22.885   8.501  22.286  1.00  0.00     0.049 C 
ENDROOT
BRANCH   1   4
HETATM    4  O3  UNL     1      21.626  10.439  21.452  1.00  0.00    -0.304 OA
BRANCH   4   5
HETATM    5  C13 UNL     1      22.569  11.301  21.016  1.00  0.00     0.258 C 
BRANCH   5   6
HETATM    6  N2  UNL     1      23.851  11.519  21.548  1.00  0.00    -0.350 N 
ATOM      7  H2  UNL     1      24.623  11.006  21.122  1.00  0.00     0.163 HD
BRANCH   6   8
HETATM    8  C12 UNL     1      24.174  12.400  22.640  1.00  0.00     0.123 C 
BRANCH   8   9
HETATM    9  C11 UNL     1      24.320  11.609  23.892  1.00  0.00     0.020 C 
BRANCH   9  10
HETATM   10  C10 UNL     1      25.547  11.814  24.703  1.00  0.00     0.002 C 
BRANCH  10  11
HETATM   11  C9  UNL     1      25.453  11.735  26.169  1.00  0.00     0.000 C 
BRANCH  11  12
HETATM   12  C8  UNL     1      24.488  12.603  26.861  1.00  0.00     0.000 C 
BRANCH  12  13
HETATM   13  C7  UNL     1      23.452  11.740  27.606  1.00  0.00     0.000 C 
BRANCH  13  14
HETATM   14  C6  UNL     1      22.058  12.015  27.197  1.00  0.00     0.000 C 
BRANCH  14  15
HETATM   15  C5  UNL     1      22.002  13.294  26.330  1.00  0.00     0.009 C 
BRANCH  15  16
HETATM   16  C4  UNL     1      20.593  13.600  25.947  1.00  0.00     0.103 C 
BRANCH  16  17
HETATM   17  C3  UNL     1      20.198  12.722  24.815  1.00  0.00     0.218 C 
HETATM   18  N1  UNL     1      19.128  11.815  25.005  1.00  0.00    -0.361 N 
HETATM   19  C1  UNL     1      18.739  10.983  23.878  1.00  0.00     0.152 C 
HETATM   20  C2  UNL     1      18.444  11.704  26.276  1.00  0.00     0.152 C 
HETATM   21  O1  UNL     1      20.818  12.803  23.708  1.00  0.00    -0.273 OA
ENDBRANCH  16  17
ENDBRANCH  15  16
ENDBRANCH  14  15
ENDBRANCH  13  14
ENDBRANCH  12  13
ENDBRANCH  11  12
ENDBRANCH  10  11
ENDBRANCH   9  10
ENDBRANCH   8   9
ENDBRANCH   6   8
ENDBRANCH   5   6
BRANCH   5  22
HETATM   22  O2  UNL     1      22.219  12.002  19.974  1.00  0.00    -0.327 OA
ATOM     23  H2  UNL     1      22.171  12.945  20.072  1.00  0.00     0.221 HD
ENDBRANCH   5  22
ENDBRANCH   4   5
ENDBRANCH   1   4
BRANCH   1  24
HETATM   24  C17 UNL     1      21.960   8.570  19.957  1.00  0.00     0.211 C 
HETATM   25  N3  UNL     1      21.172   7.408  19.783  1.00  0.00    -0.340 N 
HETATM   26  C18 UNL     1      19.958   7.196  19.089  1.00  0.00     0.220 C 
ATOM     27  H3  UNL     1      21.545   6.575  20.239  1.00  0.00     0.164 HD
HETATM   28  N4  UNL     1      19.548   7.685  17.836  1.00  0.00    -0.293 N 
HETATM   29  C19 UNL     1      20.183   7.619  16.583  1.00  0.00     0.224 C 
ATOM     30  H4  UNL     1      18.647   8.162  17.836  1.00  0.00     0.172 HD
HETATM   31  O5  UNL     1      19.671   8.175  15.546  1.00  0.00    -0.273 OA
HETATM   32  C20 UNL     1      21.455   6.932  16.336  1.00  0.00     0.103 C 
HETATM   33  C21 UNL     1      21.393   5.495  15.967  1.00  0.00     0.009 C 
HETATM   34  C22 UNL     1      21.978   4.531  16.919  1.00  0.00     0.000 C 
HETATM   35  C23 UNL     1      23.423   4.325  16.997  1.00  0.00     0.000 C 
HETATM   36  C24 UNL     1      24.376   5.422  16.771  1.00  0.00     0.002 C 
HETATM   37  C25 UNL     1      25.149   5.886  17.998  1.00  0.00     0.020 C 
HETATM   38  C26 UNL     1      24.300   6.131  19.210  1.00  0.00     0.122 C 
HETATM   39  N5  UNL     1      24.305   7.484  19.686  1.00  0.00    -0.359 N 
HETATM   40  C27 UNL     1      23.374   8.506  19.563  1.00  0.00     0.243 C 
ATOM     41  H5  UNL     1      25.142   7.740  20.209  1.00  0.00     0.162 HD
HETATM   42  O6  UNL     1      23.827   9.585  19.010  1.00  0.00    -0.271 OA
BRANCH  26  43
HETATM   43  O4  UNL     1      19.131   6.427  19.757  1.00  0.00    -0.332 OA
ATOM     44  H4  UNL     1      18.443   6.072  19.205  1.00  0.00     0.220 HD
ENDBRANCH  26  43
ENDBRANCH   1  24
TORSDOF 16
ENDMDL
MODEL 3
REMARK VINA RESULT: -8.625846926      1.054      1.230
REMARK  16 active torsions:
REMARK  status: ('A' for Active; 'I' for Inactive)
REMARK       I    between atoms: N1_2  and  C3_4 
REMARK    1  A    between atoms: C3_4  and  C4_6 
REMARK    2  A    between atoms: C4_6  and  C5_7 
REMARK    3  A    between atoms: C5_7  and  C6_8 
REMARK    4  A    between atoms: C6_8  and  C7_9 
REMARK    5  A    between atoms: C7_9  and  C8_10 
REMARK    6  A    between atoms: C8_10  and  C9_11 
REMARK    7  A    between atoms: C9_11  and  C10_12 
REMARK    8  A    between atoms: C10_12  and  C11_13 
REMARK    9  A    between atoms: C11_13  and  C12_14 
REMARK   10  A    between atoms: C12_14  and  N2_15 
REMARK   11  A    between atoms: N2_15  and  C13_17 
REMARK   12  A    between atoms: C13_17  and  O2_18 
REMARK   13  A    between atoms: C13_17  and  O3_20 
REMARK   14  A    between atoms: O3_20  and  C14_21 
REMARK   15  A    between atoms: C14_21  and  C17_24 
REMARK   16  A    between atoms: C18_27  and  O4_28 
ROOT
HETATM    1  C14 UNL     1      21.791   9.042  21.467  1.00  0.00     0.093 C 
HETATM    2  C15 UNL     1      20.480   8.479  21.966  1.00  0.00     0.049 C 
HETATM    3  C16 UNL     1      22.863   8.496  22.320  1.00  0.00     0.049 C 
ENDROOT
BRANCH   1   4
HETATM    4  O3  UNL     1      21.631  10.463  21.514  1.00  0.00    -0.304 OA
BRANCH   4   5
HETATM    5  C13 UNL     1      22.584  11.308  21.064  1.00  0.00     0.258 C 
BRANCH   5   6
HETATM    6  N2  UNL     1      23.883  11.489  21.565  1.00  0.00    -0.350 N 
ATOM      7  H2  UNL     1      24.626  10.937  21.136  1.00  0.00     0.163 HD
BRANCH   6   8
HETATM    8  C12 UNL     1      24.263  12.382  22.628  1.00  0.00     0.123 C 
BRANCH   8   9
HETATM    9  C11 UNL     1      23.838  11.810  23.935  1.00  0.00     0.020 C 
BRANCH   9  10
HETATM   10  C10 UNL     1      23.941  12.675  25.137  1.00  0.00     0.002 C 
BRANCH  10  11
HETATM   11  C9  UNL     1      22.709  13.228  25.724  1.00  0.00     0.000 C 
BRANCH  11  12
HETATM   12  C8  UNL     1      21.986  14.275  24.988  1.00  0.00     0.000 C 
BRANCH  12  13
HETATM   13  C7  UNL     1      20.499  13.892  24.861  1.00  0.00     0.000 C 
BRANCH  13  14
HETATM   14  C6  UNL     1      20.256  12.802  23.893  1.00  0.00     0.000 C 
BRANCH  14  15
HETATM   15  C5  UNL     1      19.471  11.655  24.571  1.00  0.00     0.009 C 
BRANCH  15  16
HETATM   16  C4  UNL     1      19.013  12.072  25.929  1.00  0.00     0.103 C 
BRANCH  16  17
HETATM   17  C3  UNL     1      18.743  10.858  26.741  1.00  0.00     0.218 C 
HETATM   18  N1  UNL     1      19.460  10.680  27.949  1.00  0.00    -0.361 N 
HETATM   19  C1  UNL     1      19.163   9.500  28.743  1.00  0.00     0.152 C 
HETATM   20  C2  UNL     1      20.464  11.628  28.382  1.00  0.00     0.152 C 
HETATM   21  O1  UNL     1      17.879  10.013  26.346  1.00  0.00    -0.273 OA
ENDBRANCH  16  17
ENDBRANCH  15  16
ENDBRANCH  14  15
ENDBRANCH  13  14
ENDBRANCH  12  13
ENDBRANCH  11  12
ENDBRANCH  10  11
ENDBRANCH   9  10
ENDBRANCH   8   9
ENDBRANCH   6   8
ENDBRANCH   5   6
BRANCH   5  22
HETATM   22  O2  UNL     1      22.223  12.030  20.040  1.00  0.00    -0.327 OA
ATOM     23  H2  UNL     1      21.594  12.726  20.190  1.00  0.00     0.221 HD
ENDBRANCH   5  22
ENDBRANCH   4   5
ENDBRANCH   1   4
BRANCH   1  24
HETATM   24  C17 UNL     1      21.907   8.596  20.004  1.00  0.00     0.211 C 
HETATM   25  N3  UNL     1      21.115   7.435  19.842  1.00  0.00    -0.340 N 
HETATM   26  C18 UNL     1      19.888   7.226  19.172  1.00  0.00     0.220 C 
ATOM     27  H3  UNL     1      21.497   6.600  20.288  1.00  0.00     0.164 HD
HETATM   28  N4  UNL     1      19.454   7.719  17.928  1.00  0.00    -0.293 N 
HETATM   29  C19 UNL     1      20.064   7.657  16.663  1.00  0.00     0.224 C 
ATOM     30  H4  UNL     1      18.553   8.197  17.948  1.00  0.00     0.172 HD
HETATM   31  O5  UNL     1      19.533   8.217  15.638  1.00  0.00    -0.273 OA
HETATM   32  C20 UNL     1      21.331   6.971  16.389  1.00  0.00     0.103 C 
HETATM   33  C21 UNL     1      21.260   5.535  16.016  1.00  0.00     0.009 C 
HETATM   34  C22 UNL     1      21.864   4.567  16.953  1.00  0.00     0.000 C 
HETATM   35  C23 UNL     1      23.310   4.360  17.002  1.00  0.00     0.000 C 
HETATM   36  C24 UNL     1      24.259   5.458  16.761  1.00  0.00     0.002 C 
HETATM   37  C25 UNL     1      25.056   5.917  17.974  1.00  0.00     0.020 C 
HETATM   38  C26 UNL     1      24.231   6.158  19.203  1.00  0.00     0.122 C 
HETATM   39  N5  UNL     1      24.246   7.510  19.684  1.00  0.00    -0.359 N 
HETATM   40  C27 UNL     1      23.313   8.533  19.583  1.00  0.00     0.243 C 
ATOM     41  H5  UNL     1      25.093   7.764  20.191  1.00  0.00     0.162 HD
HETATM   42  O6  UNL     1      23.756   9.613  19.025  1.00  0.00    -0.271 OA
BRANCH  26  43
HETATM   43  O4  UNL     1      19.074   6.455  19.853  1.00  0.00    -0.332 OA
ATOM     44  H4  UNL     1      19.174   5.537  19.627  1.00  0.00     0.220 HD
ENDBRANCH  26  43
ENDBRANCH   1  24
TORSDOF 16
ENDMDL
MODEL 4
REMARK VINA RESULT: -8.579632667      1.115      1.452
REMARK  16 active torsions:
REMARK  status: ('A' for Active; 'I' for Inactive)
REMARK       I    between atoms: N1_2  and  C3_4 
REMARK    1  A    between atoms: C3_4  and  C4_6 
REMARK    2  A    between atoms: C4_6  and  C5_7 
REMARK    3  A    between atoms: C5_7  and  C6_8 
REMARK    4  A    between atoms: C6_8  and  C7_9 
REMARK    5  A    between atoms: C7_9  and  C8_10 
REMARK    6  A    between atoms: C8_10  and  C9_11 
REMARK    7  A    between atoms: C9_11  and  C10_12 
REMARK    8  A    between atoms: C10_12  and  C11_13 
REMARK    9  A    between atoms: C11_13  and  C12_14 
REMARK   10  A    between atoms: C12_14  and  N2_15 
REMARK   11  A    between atoms: N2_15  and  C13_17 
REMARK   12  A    between atoms: C13_17  and  O2_18 
REMARK   13  A    between atoms: C13_17  and  O3_20 
REMARK   14  A    between atoms: O3_20  and  C14_21 
REMARK   15  A    between atoms: C14_21  and  C17_24 
REMARK   16  A    between atoms: C18_27  and  O4_28 
ROOT
HETATM    1  C14 UNL     1      21.853   9.059  21.450  1.00  0.00     0.093 C 
HETATM    2  C15 UNL     1      20.569   8.456  21.973  1.00  0.00     0.049 C 
HETATM    3  C16 UNL     1      22.956   8.548  22.284  1.00  0.00     0.049 C 
ENDROOT
BRANCH   1   4
HETATM    4  O3  UNL     1      21.649  10.474  21.499  1.00  0.00    -0.304 OA
BRANCH   4   5
HETATM    5  C13 UNL     1      22.572  11.349  21.043  1.00  0.00     0.258 C 
BRANCH   5   6
HETATM    6  N2  UNL     1      23.850  11.605  21.564  1.00  0.00    -0.350 N 
ATOM      7  H2  UNL     1      24.648  11.321  20.996  1.00  0.00     0.163 HD
BRANCH   6   8
HETATM    8  C12 UNL     1      24.138  12.231  22.829  1.00  0.00     0.123 C 
BRANCH   8   9
HETATM    9  C11 UNL     1      22.874  12.732  23.436  1.00  0.00     0.020 C 
BRANCH   9  10
HETATM   10  C10 UNL     1      22.888  14.083  24.050  1.00  0.00     0.002 C 
BRANCH  10  11
HETATM   11  C9  UNL     1      22.535  14.222  25.472  1.00  0.00     0.000 C 
BRANCH  11  12
HETATM   12  C8  UNL     1      21.214  14.765  25.820  1.00  0.00     0.000 C 
BRANCH  12  13
HETATM   13  C7  UNL     1      20.325  13.647  26.397  1.00  0.00     0.000 C 
BRANCH  13  14
HETATM   14  C6  UNL     1      21.096  12.530  26.983  1.00  0.00     0.000 C 
BRANCH  14  15
HETATM   15  C5  UNL     1      20.141  11.534  27.681  1.00  0.00     0.009 C 
BRANCH  15  16
HETATM   16  C4  UNL     1      18.808  11.537  27.010  1.00  0.00     0.103 C 
BRANCH  16  17
HETATM   17  C3  UNL     1      18.489  10.156  26.565  1.00  0.00     0.218 C 
HETATM   18  N1  UNL     1      18.521   9.867  25.179  1.00  0.00    -0.361 N 
HETATM   19  C1  UNL     1      18.231   8.505  24.765  1.00  0.00     0.152 C 
HETATM   20  C2  UNL     1      18.820  10.890  24.198  1.00  0.00     0.152 C 
HETATM   21  O1  UNL     1      18.200   9.265  27.425  1.00  0.00    -0.273 OA
ENDBRANCH  16  17
ENDBRANCH  15  16
ENDBRANCH  14  15
ENDBRANCH  13  14
ENDBRANCH  12  13
ENDBRANCH  11  12
ENDBRANCH  10  11
ENDBRANCH   9  10
ENDBRANCH   8   9
ENDBRANCH   6   8
ENDBRANCH   5   6
BRANCH   5  22
HETATM   22  O2  UNL     1      22.202  12.023  19.989  1.00  0.00    -0.327 OA
ATOM     23  H2  UNL     1      21.884  11.531  19.241  1.00  0.00     0.221 HD
ENDBRANCH   5  22
ENDBRANCH   4   5
ENDBRANCH   1   4
BRANCH   1  24
HETATM   24  C17 UNL     1      21.956   8.615  19.986  1.00  0.00     0.211 C 
HETATM   25  N3  UNL     1      21.157   7.459  19.827  1.00  0.00    -0.340 N 
HETATM   26  C18 UNL     1      19.924   7.258  19.165  1.00  0.00     0.220 C 
ATOM     27  H3  UNL     1      21.537   6.622  20.269  1.00  0.00     0.164 HD
HETATM   28  N4  UNL     1      19.483   7.756  17.926  1.00  0.00    -0.293 N 
HETATM   29  C19 UNL     1      20.084   7.693  16.656  1.00  0.00     0.224 C 
ATOM     30  H4  UNL     1      18.585   8.238  17.953  1.00  0.00     0.172 HD
HETATM   31  O5  UNL     1      19.548   8.258  15.636  1.00  0.00    -0.273 OA
HETATM   32  C20 UNL     1      21.345   7.001  16.371  1.00  0.00     0.103 C 
HETATM   33  C21 UNL     1      21.264   5.566  15.996  1.00  0.00     0.009 C 
HETATM   34  C22 UNL     1      21.869   4.593  16.927  1.00  0.00     0.000 C 
HETATM   35  C23 UNL     1      23.315   4.379  16.965  1.00  0.00     0.000 C 
HETATM   36  C24 UNL     1      24.267   5.472  16.719  1.00  0.00     0.002 C 
HETATM   37  C25 UNL     1      25.075   5.924  17.927  1.00  0.00     0.020 C 
HETATM   38  C26 UNL     1      24.261   6.167  19.163  1.00  0.00     0.122 C 
HETATM   39  N5  UNL     1      24.286   7.517  19.646  1.00  0.00    -0.359 N 
HETATM   40  C27 UNL     1      23.358   8.546  19.554  1.00  0.00     0.243 C 
ATOM     41  H5  UNL     1      25.139   7.766  20.148  1.00  0.00     0.162 HD
HETATM   42  O6  UNL     1      23.803   9.625  18.995  1.00  0.00    -0.271 OA
BRANCH  26  43
HETATM   43  O4  UNL     1      19.110   6.489  19.851  1.00  0.00    -0.332 OA
ATOM     44  H4  UNL     1      19.387   5.580  19.849  1.00  0.00     0.220 HD
ENDBRANCH  26  43
ENDBRANCH   1  24
TORSDOF 16
ENDMDL
MODEL 5
REMARK VINA RESULT: -8.575345776      1.207      1.526
REMARK  16 active torsions:
REMARK  status: ('A' for Active; 'I' for Inactive)
REMARK       I    between atoms: N1_2  and  C3_4 
REMARK    1  A    between atoms: C3_4  and  C4_6 
REMARK    2  A    between atoms: C4_6  and  C5_7 
REMARK    3  A    between atoms: C5_7  and  C6_8 
REMARK    4  A    between atoms: C6_8  and  C7_9 
REMARK    5  A    between atoms: C7_9  and  C8_10 
REMARK    6  A    between atoms: C8_10  and  C9_11 
REMARK    7  A    between atoms: C9_11  and  C10_12 
REMARK    8  A    between atoms: C10_12  and  C11_13 
REMARK    9  A    between atoms: C11_13  and  C12_14 
REMARK   10  A    between atoms: C12_14  and  N2_15 
REMARK   11  A    between atoms: N2_15  and  C13_17 
REMARK   12  A    between atoms: C13_17  and  O2_18 
REMARK   13  A    between atoms: C13_17  and  O3_20 
REMARK   14  A    between atoms: O3_20  and  C14_21 
REMARK   15  A    between atoms: C14_21  and  C17_24 
REMARK   16  A    between atoms: C18_27  and  O4_28 
ROOT
HETATM    1  C14 UNL     1      21.739   9.364  21.511  1.00  0.00     0.093 C 
HETATM    2  C15 UNL     1      20.315   9.043  21.903  1.00  0.00     0.049 C 
HETATM    3  C16 UNL     1      22.628   8.707  22.487  1.00  0.00     0.049 C 
ENDROOT
BRANCH   1   4
HETATM    4  O3  UNL     1      21.807  10.793  21.483  1.00  0.00    -0.304 OA
BRANCH   4   5
HETATM    5  C13 UNL     1      22.826  11.476  22.048  1.00  0.00     0.258 C 
BRANCH   5   6
HETATM    6  N2  UNL     1      23.068  11.689  23.415  1.00  0.00    -0.350 N 
ATOM      7  H2  UNL     1      22.358  11.359  24.069  1.00  0.00     0.163 HD
BRANCH   6   8
HETATM    8  C12 UNL     1      24.227  12.333  23.978  1.00  0.00     0.123 C 
BRANCH   8   9
HETATM    9  C11 UNL     1      23.803  13.262  25.062  1.00  0.00     0.020 C 
BRANCH   9  10
HETATM   10  C10 UNL     1      22.809  14.312  24.725  1.00  0.00     0.002 C 
BRANCH  10  11
HETATM   11  C9  UNL     1      21.793  14.677  25.726  1.00  0.00     0.000 C 
BRANCH  11  12
HETATM   12  C8  UNL     1      20.413  14.213  25.529  1.00  0.00     0.000 C 
BRANCH  12  13
HETATM   13  C7  UNL     1      20.241  13.678  24.095  1.00  0.00     0.000 C 
BRANCH  13  14
HETATM   14  C6  UNL     1      19.541  12.378  24.034  1.00  0.00     0.000 C 
BRANCH  14  15
HETATM   15  C5  UNL     1      19.899  11.524  25.273  1.00  0.00     0.009 C 
BRANCH  15  16
HETATM   16  C4  UNL     1      18.660  11.122  26.002  1.00  0.00     0.103 C 
BRANCH  16  17
HETATM   17  C3  UNL     1      19.020  10.738  27.391  1.00  0.00     0.218 C 
HETATM   18  N1  UNL     1      18.559   9.496  27.890  1.00  0.00    -0.361 N 
HETATM   19  C1  UNL     1      18.943   9.126  29.242  1.00  0.00     0.152 C 
HETATM   20  C2  UNL     1      17.725   8.621  27.093  1.00  0.00     0.152 C 
HETATM   21  O1  UNL     1      19.730  11.520  28.098  1.00  0.00    -0.273 OA
ENDBRANCH  16  17
ENDBRANCH  15  16
ENDBRANCH  14  15
ENDBRANCH  13  14
ENDBRANCH  12  13
ENDBRANCH  11  12
ENDBRANCH  10  11
ENDBRANCH   9  10
ENDBRANCH   8   9
ENDBRANCH   6   8
ENDBRANCH   5   6
BRANCH   5  22
HETATM   22  O2  UNL     1      23.671  11.986  21.197  1.00  0.00    -0.327 OA
ATOM     23  H2  UNL     1      24.172  11.384  20.657  1.00  0.00     0.221 HD
ENDBRANCH   5  22
ENDBRANCH   4   5
ENDBRANCH   1   4
BRANCH   1  24
HETATM   24  C17 UNL     1      21.912   8.823  20.087  1.00  0.00     0.211 C 
HETATM   25  N3  UNL     1      21.196   7.606  19.997  1.00  0.00    -0.340 N 
HETATM   26  C18 UNL     1      19.998   7.274  19.323  1.00  0.00     0.220 C 
ATOM     27  H3  UNL     1      21.619   6.831  20.508  1.00  0.00     0.164 HD
HETATM   28  N4  UNL     1      19.560   7.649  18.041  1.00  0.00    -0.293 N 
HETATM   29  C19 UNL     1      20.199   7.535  16.793  1.00  0.00     0.224 C 
ATOM     30  H4  UNL     1      18.632   8.070  18.011  1.00  0.00     0.172 HD
HETATM   31  O5  UNL     1      19.655   7.987  15.722  1.00  0.00    -0.273 OA
HETATM   32  C20 UNL     1      21.511   6.912  16.589  1.00  0.00     0.103 C 
HETATM   33  C21 UNL     1      21.536   5.452  16.320  1.00  0.00     0.009 C 
HETATM   34  C22 UNL     1      22.179   4.593  17.334  1.00  0.00     0.000 C 
HETATM   35  C23 UNL     1      23.633   4.481  17.422  1.00  0.00     0.000 C 
HETATM   36  C24 UNL     1      24.517   5.616  17.117  1.00  0.00     0.002 C 
HETATM   37  C25 UNL     1      25.260   6.209  18.306  1.00  0.00     0.020 C 
HETATM   38  C26 UNL     1      24.397   6.486  19.501  1.00  0.00     0.122 C 
HETATM   39  N5  UNL     1      24.319   7.866  19.883  1.00  0.00    -0.359 N 
HETATM   40  C27 UNL     1      23.328   8.819  19.694  1.00  0.00     0.243 C 
ATOM     41  H5  UNL     1      25.139   8.208  20.384  1.00  0.00     0.162 HD
HETATM   42  O6  UNL     1      23.715   9.882  19.066  1.00  0.00    -0.271 OA
BRANCH  26  43
HETATM   43  O4  UNL     1      19.219   6.503  20.046  1.00  0.00    -0.332 OA
ATOM     44  H4  UNL     1      18.577   6.044  19.517  1.00  0.00     0.220 HD
ENDBRANCH  26  43
ENDBRANCH   1  24
TORSDOF 16
ENDMDL
