MODEL 1
REMARK VINA RESULT: -9.258254194      0.000      0.000
REMARK  15 active torsions:
REMARK  status: ('A' for Active; 'I' for Inactive)
REMARK    1  A    between atoms: C2_2  and  C3_3 
REMARK    2  A    between atoms: C3_3  and  C4_4 
REMARK    3  A    between atoms: C4_4  and  O2_6 
REMARK    4  A    between atoms: O2_6  and  C5_7 
REMARK    5  A    between atoms: C5_7  and  C6_8 
REMARK    6  A    between atoms: C8_10  and  C9_11 
REMARK    7  A    between atoms: C9_11  and  O3_12 
REMARK    8  A    between atoms: C9_11  and  C10_14 
REMARK    9  A    between atoms: C10_14  and  N1_17 
REMARK       I    between atoms: N1_17  and  C13_19 
REMARK   10  A    between atoms: C13_19  and  C14_21 
REMARK   11  A    between atoms: C18_25  and  O5_26 
REMARK   12  A    between atoms: O5_26  and  C19_27 
REMARK   13  A    between atoms: C19_27  and  C20_28 
REMARK   14  A    between atoms: C30_38  and  O6_39 
REMARK   15  A    between atoms: C31_41  and  O7_42 
ROOT
HETATM    1  C10 UNL     1      22.423   9.664  21.133  1.00  0.00     0.052 C 
HETATM    2  C11 UNL     1      22.624   8.574  22.174  1.00  0.00     0.041 C 
HETATM    3  C12 UNL     1      23.567   9.651  20.211  1.00  0.00     0.041 C 
ENDROOT
BRANCH   1   4
HETATM    4  C9  UNL     1      22.136  10.952  21.867  1.00  0.00     0.152 C 
BRANCH   4   5
HETATM    5  C8  UNL     1      22.971  11.277  23.049  1.00  0.00     0.049 C 
HETATM    6  C7  UNL     1      21.982  11.610  24.186  1.00  0.00     0.019 C 
HETATM    7  C6  UNL     1      22.257  12.982  24.656  1.00  0.00     0.042 C 
HETATM    8  C31 UNL     1      23.236  13.617  23.743  1.00  0.00     0.153 C 
HETATM    9  C30 UNL     1      23.744  12.531  22.845  1.00  0.00     0.154 C 
BRANCH   7  10
HETATM   10  C5  UNL     1      22.825  13.055  26.068  1.00  0.00     0.185 C 
BRANCH  10  11
HETATM   11  O2  UNL     1      22.724  11.819  26.740  1.00  0.00    -0.321 OA
BRANCH  11  12
HETATM   12  C4  UNL     1      21.774  11.696  27.740  1.00  0.00     0.258 C 
HETATM   13  O1  UNL     1      22.036  10.965  28.732  1.00  0.00    -0.265 OA
BRANCH  12  14
HETATM   14  C3  UNL     1      20.466  12.379  27.702  1.00  0.00     0.111 C 
BRANCH  14  15
HETATM   15  C2  UNL     1      19.403  11.322  27.386  1.00  0.00     0.005 C 
HETATM   16  C1  UNL     1      18.720  11.762  26.095  1.00  0.00     0.005 C 
ENDBRANCH  14  15
ENDBRANCH  12  14
ENDBRANCH  11  12
ENDBRANCH  10  11
ENDBRANCH   7  10
BRANCH   8  17
HETATM   17  O7  UNL     1      22.650  14.682  23.054  1.00  0.00    -0.393 OA
ATOM     18  H7  UNL     1      23.156  15.477  23.172  1.00  0.00     0.210 HD
ENDBRANCH   8  17
BRANCH   9  19
HETATM   19  O6  UNL     1      25.118  12.349  23.148  1.00  0.00    -0.393 OA
ATOM     20  H6  UNL     1      25.263  11.549  23.641  1.00  0.00     0.210 HD
ENDBRANCH   9  19
ENDBRANCH   4   5
BRANCH   4  21
HETATM   21  O3  UNL     1      20.802  10.695  22.373  1.00  0.00    -0.393 OA
ATOM     22  H3  UNL     1      20.258  11.407  22.057  1.00  0.00     0.210 HD
ENDBRANCH   4  21
ENDBRANCH   1   4
BRANCH   1  23
HETATM   23  N1  UNL     1      21.203   9.373  20.372  1.00  0.00    -0.350 N 
HETATM   24  C13 UNL     1      20.143   8.563  20.761  1.00  0.00     0.225 C 
HETATM   25  O4  UNL     1      20.144   7.983  21.869  1.00  0.00    -0.273 OA
ATOM     26  H1  UNL     1      21.125   9.814  19.455  1.00  0.00     0.163 HD
BRANCH  24  27
HETATM   27  C14 UNL     1      18.942   8.322  19.910  1.00  0.00     0.107 C 
HETATM   28  C15 UNL     1      17.759   7.811  20.688  1.00  0.00     0.017 C 
HETATM   29  C16 UNL     1      17.765   6.331  20.513  1.00  0.00     0.004 C 
HETATM   30  C17 UNL     1      18.787   5.990  19.466  1.00  0.00     0.033 C 
HETATM   31  C18 UNL     1      19.135   7.290  18.846  1.00  0.00     0.134 C 
BRANCH  31  32
HETATM   32  O5  UNL     1      20.416   7.319  18.297  1.00  0.00    -0.384 OA
BRANCH  32  33
HETATM   33  C19 UNL     1      20.538   6.221  17.451  1.00  0.00     0.177 C 
BRANCH  33  34
HETATM   34  C20 UNL     1      21.917   5.606  17.527  1.00  0.00    -0.018 C 
HETATM   35  C21 UNL     1      22.532   5.550  16.167  1.00  0.00     0.016 C 
HETATM   36  C22 UNL     1      23.956   5.012  16.309  1.00  0.00    -0.013 C 
HETATM   37  C23 UNL     1      24.770   5.933  17.185  1.00  0.00     0.009 C 
HETATM   38  C27 UNL     1      23.961   3.643  16.933  1.00  0.00     0.009 C 
HETATM   39  C24 UNL     1      24.138   5.985  18.566  1.00  0.00    -0.013 C 
HETATM   40  C25 UNL     1      24.115   4.607  19.157  1.00  0.00     0.009 C 
HETATM   41  C29 UNL     1      22.743   6.539  18.399  1.00  0.00     0.016 C 
HETATM   42  C26 UNL     1      23.287   3.711  18.275  1.00  0.00    -0.013 C 
HETATM   43  C28 UNL     1      21.877   4.214  18.090  1.00  0.00     0.016 C 
ENDBRANCH  33  34
ENDBRANCH  32  33
ENDBRANCH  31  32
ENDBRANCH  24  27
ENDBRANCH   1  23
TORSDOF 15
ENDMDL
MODEL 2
REMARK VINA RESULT: -9.216616852      0.946      1.115
REMARK  15 active torsions:
REMARK  status: ('A' for Active; 'I' for Inactive)
REMARK    1  A    between atoms: C2_2  and  C3_3 
REMARK    2  A    between atoms: C3_3  and  C4_4 
REMARK    3  A    between atoms: C4_4  and  O2_6 
REMARK    4  A    between atoms: O2_6  and  C5_7 
REMARK    5  A    between atoms: C5_7  and  C6_8 
REMARK    6  A    between atoms: C8_10  and  C9_11 
REMARK    7  A    between atoms: C9_11  and  O3_12 
REMARK    8  A    between atoms: C9_11  and  C10_14 
REMARK    9  A    between atoms: C10_14  and  N1_17 
REMARK       I    between atoms: N1_17  and  C13_19 
REMARK   10  A    between atoms: C13_19  and  C14_21 
REMARK   11  A    between atoms: C18_25  and  O5_26 
REMARK   12  A    between atoms: O5_26  and  C19_27 
REMARK   13  A    between atoms: C19_27  and  C20_28 
REMARK   14  A    between atoms: C30_38  and  O6_39 
REMARK   15  A    between atoms: C31_41  and  O7_42 
ROOT
HETATM    1  C10 UNL     1      22.920   9.457  20.979  1.00  0.00     0.052 C 
HETATM    2  C11 UNL     1      23.058   8.478  22.135  1.00  0.00     0.041 C 
HETATM    3  C12 UNL     1      23.975   9.173  19.995  1.00  0.00     0.041 C 
ENDROOT
BRANCH   1   4
HETATM    4  C9  UNL     1      22.869  10.848  21.560  1.00  0.00     0.152 C 
BRANCH   4   5
HETATM    5  C8  UNL     1      22.520  10.989  22.995  1.00  0.00     0.049 C 
HETATM    6  C7  UNL     1      21.112  11.618  23.029  1.00  0.00     0.019 C 
HETATM    7  C6  UNL     1      21.185  12.886  23.781  1.00  0.00     0.042 C 
HETATM    8  C31 UNL     1      22.607  13.201  24.056  1.00  0.00     0.153 C 
HETATM    9  C30 UNL     1      23.392  11.983  23.676  1.00  0.00     0.154 C 
BRANCH   7  10
HETATM   10  C5  UNL     1      20.449  12.863  25.115  1.00  0.00     0.185 C 
BRANCH  10  11
HETATM   11  O2  UNL     1      20.737  11.698  25.855  1.00  0.00    -0.321 OA
BRANCH  11  12
HETATM   12  C4  UNL     1      21.193  11.846  27.154  1.00  0.00     0.258 C 
HETATM   13  O1  UNL     1      22.424  12.036  27.342  1.00  0.00    -0.265 OA
BRANCH  12  14
HETATM   14  C3  UNL     1      20.307  11.790  28.332  1.00  0.00     0.111 C 
BRANCH  14  15
HETATM   15  C2  UNL     1      19.135  10.867  27.985  1.00  0.00     0.005 C 
HETATM   16  C1  UNL     1      19.146   9.741  29.014  1.00  0.00     0.005 C 
ENDBRANCH  14  15
ENDBRANCH  12  14
ENDBRANCH  11  12
ENDBRANCH  10  11
ENDBRANCH   7  10
BRANCH   8  17
HETATM   17  O7  UNL     1      22.999  14.355  23.371  1.00  0.00    -0.393 OA
ATOM     18  H7  UNL     1      23.192  15.057  23.981  1.00  0.00     0.210 HD
ENDBRANCH   8  17
BRANCH   9  19
HETATM   19  O6  UNL     1      23.949  11.456  24.869  1.00  0.00    -0.393 OA
ATOM     20  H6  UNL     1      23.584  11.878  25.639  1.00  0.00     0.210 HD
ENDBRANCH   9  19
ENDBRANCH   4   5
BRANCH   4  21
HETATM   21  O3  UNL     1      21.762  11.421  20.819  1.00  0.00    -0.393 OA
ATOM     22  H3  UNL     1      21.068  10.772  20.839  1.00  0.00     0.210 HD
ENDBRANCH   4  21
ENDBRANCH   1   4
BRANCH   1  23
HETATM   23  N1  UNL     1      21.616   9.255  20.340  1.00  0.00    -0.350 N 
HETATM   24  C13 UNL     1      20.507   8.612  20.879  1.00  0.00     0.225 C 
HETATM   25  O4  UNL     1      20.536   8.127  22.030  1.00  0.00    -0.273 OA
ATOM     26  H1  UNL     1      21.510   9.629  19.397  1.00  0.00     0.163 HD
BRANCH  24  27
HETATM   27  C14 UNL     1      19.218   8.451  20.145  1.00  0.00     0.107 C 
HETATM   28  C15 UNL     1      18.077   8.038  21.037  1.00  0.00     0.017 C 
HETATM   29  C16 UNL     1      17.960   6.560  20.888  1.00  0.00     0.004 C 
HETATM   30  C17 UNL     1      18.854   6.133  19.759  1.00  0.00     0.033 C 
HETATM   31  C18 UNL     1      19.237   7.396  19.087  1.00  0.00     0.134 C 
BRANCH  31  32
HETATM   32  O5  UNL     1      20.460   7.324  18.423  1.00  0.00    -0.384 OA
BRANCH  32  33
HETATM   33  C19 UNL     1      20.450   6.173  17.640  1.00  0.00     0.177 C 
BRANCH  33  34
HETATM   34  C20 UNL     1      21.810   5.514  17.594  1.00  0.00    -0.018 C 
HETATM   35  C21 UNL     1      22.352   5.550  16.204  1.00  0.00     0.016 C 
HETATM   36  C22 UNL     1      23.763   4.962  16.227  1.00  0.00    -0.013 C 
HETATM   37  C23 UNL     1      24.650   5.785  17.128  1.00  0.00     0.009 C 
HETATM   38  C27 UNL     1      23.755   3.546  16.740  1.00  0.00     0.009 C 
HETATM   39  C24 UNL     1      24.092   5.744  18.540  1.00  0.00    -0.013 C 
HETATM   40  C25 UNL     1      24.053   4.325  19.022  1.00  0.00     0.009 C 
HETATM   41  C29 UNL     1      22.709   6.350  18.491  1.00  0.00     0.016 C 
HETATM   42  C26 UNL     1      23.152   3.527  18.117  1.00  0.00    -0.013 C 
HETATM   43  C28 UNL     1      21.751   4.084  18.048  1.00  0.00     0.016 C 
ENDBRANCH  33  34
ENDBRANCH  32  33
ENDBRANCH  31  32
ENDBRANCH  24  27
ENDBRANCH   1  23
TORSDOF 15
ENDMDL
MODEL 3
REMARK VINA RESULT: -9.087293027      0.077      1.178
REMARK  15 active torsions:
REMARK  status: ('A' for Active; 'I' for Inactive)
REMARK    1  A    between atoms: C2_2  and  C3_3 
REMARK    2  A    between atoms: C3_3  and  C4_4 
REMARK    3  A    between atoms: C4_4  and  O2_6 
REMARK    4  A    between atoms: O2_6  and  C5_7 
REMARK    5  A    between atoms: C5_7  and  C6_8 
REMARK    6  A    between atoms: C8_10  and  C9_11 
REMARK    7  A    between atoms: C9_11  and  O3_12 
REMARK    8  A    between atoms: C9_11  and  C10_14 
REMARK    9  A    between atoms: C10_14  and  N1_17 
REMARK       I    between atoms: N1_17  and  C13_19 
REMARK   10  A    between atoms: C13_19  and  C14_21 
REMARK   11  A    between atoms: C18_25  and  O5_26 
REMARK   12  A    between atoms: O5_26  and  C19_27 
REMARK   13  A    between atoms: C19_27  and  C20_28 
REMARK   14  A    between atoms: C30_38  and  O6_39 
REMARK   15  A    between atoms: C31_41  and  O7_42 
ROOT
HETATM    1  C10 UNL     1      22.407   9.672  21.098  1.00  0.00     0.052 C 
HETATM    2  C11 UNL     1      22.629   8.570  22.121  1.00  0.00     0.041 C 
HETATM    3  C12 UNL     1      23.538   9.678  20.159  1.00  0.00     0.041 C 
ENDROOT
BRANCH   1   4
HETATM    4  C9  UNL     1      22.123  10.948  21.852  1.00  0.00     0.152 C 
BRANCH   4   5
HETATM    5  C8  UNL     1      22.975  11.265  23.024  1.00  0.00     0.049 C 
HETATM    6  C7  UNL     1      22.003  11.589  24.178  1.00  0.00     0.019 C 
HETATM    7  C6  UNL     1      22.283  12.957  24.655  1.00  0.00     0.042 C 
HETATM    8  C31 UNL     1      23.248  13.600  23.732  1.00  0.00     0.153 C 
HETATM    9  C30 UNL     1      23.744  12.521  22.818  1.00  0.00     0.154 C 
BRANCH   7  10
HETATM   10  C5  UNL     1      22.872  13.019  26.059  1.00  0.00     0.185 C 
BRANCH  10  11
HETATM   11  O2  UNL     1      22.721  11.799  26.747  1.00  0.00    -0.321 OA
BRANCH  11  12
HETATM   12  C4  UNL     1      21.741  11.716  27.722  1.00  0.00     0.258 C 
HETATM   13  O1  UNL     1      21.966  11.014  28.744  1.00  0.00    -0.265 OA
BRANCH  12  14
HETATM   14  C3  UNL     1      20.443  12.410  27.624  1.00  0.00     0.111 C 
BRANCH  14  15
HETATM   15  C2  UNL     1      19.371  11.348  27.361  1.00  0.00     0.005 C 
HETATM   16  C1  UNL     1      18.588  11.811  26.136  1.00  0.00     0.005 C 
ENDBRANCH  14  15
ENDBRANCH  12  14
ENDBRANCH  11  12
ENDBRANCH  10  11
ENDBRANCH   7  10
BRANCH   8  17
HETATM   17  O7  UNL     1      22.650  14.670  23.060  1.00  0.00    -0.393 OA
ATOM     18  H7  UNL     1      22.289  15.294  23.678  1.00  0.00     0.210 HD
ENDBRANCH   8  17
BRANCH   9  19
HETATM   19  O6  UNL     1      25.123  12.339  23.099  1.00  0.00    -0.393 OA
ATOM     20  H6  UNL     1      25.444  11.517  22.745  1.00  0.00     0.210 HD
ENDBRANCH   9  19
ENDBRANCH   4   5
BRANCH   4  21
HETATM   21  O3  UNL     1      20.800  10.675  22.377  1.00  0.00    -0.393 OA
ATOM     22  H3  UNL     1      20.327  11.499  22.344  1.00  0.00     0.210 HD
ENDBRANCH   4  21
ENDBRANCH   1   4
BRANCH   1  23
HETATM   23  N1  UNL     1      21.178   9.384  20.349  1.00  0.00    -0.350 N 
HETATM   24  C13 UNL     1      20.124   8.569  20.747  1.00  0.00     0.225 C 
HETATM   25  O4  UNL     1      20.140   7.983  21.851  1.00  0.00    -0.273 OA
ATOM     26  H1  UNL     1      21.087   9.830  19.437  1.00  0.00     0.163 HD
BRANCH  24  27
HETATM   27  C14 UNL     1      18.913   8.331  19.910  1.00  0.00     0.107 C 
HETATM   28  C15 UNL     1      17.745   7.800  20.697  1.00  0.00     0.017 C 
HETATM   29  C16 UNL     1      17.760   6.324  20.500  1.00  0.00     0.004 C 
HETATM   30  C17 UNL     1      18.769   6.005  19.435  1.00  0.00     0.033 C 
HETATM   31  C18 UNL     1      19.099   7.316  18.828  1.00  0.00     0.134 C 
BRANCH  31  32
HETATM   32  O5  UNL     1      20.371   7.362  18.262  1.00  0.00    -0.384 OA
BRANCH  32  33
HETATM   33  C19 UNL     1      20.528   6.222  17.480  1.00  0.00     0.177 C 
BRANCH  33  34
HETATM   34  C20 UNL     1      21.913   5.632  17.619  1.00  0.00    -0.018 C 
HETATM   35  C21 UNL     1      21.830   4.251  18.177  1.00  0.00     0.016 C 
HETATM   36  C22 UNL     1      23.241   3.663  18.208  1.00  0.00    -0.013 C 
HETATM   37  C23 UNL     1      23.805   3.601  16.810  1.00  0.00     0.009 C 
HETATM   38  C27 UNL     1      24.163   4.504  19.050  1.00  0.00     0.009 C 
HETATM   39  C24 UNL     1      23.885   5.011  16.248  1.00  0.00    -0.013 C 
HETATM   40  C25 UNL     1      24.775   5.846  17.119  1.00  0.00     0.009 C 
HETATM   41  C29 UNL     1      22.477   5.557  16.208  1.00  0.00     0.016 C 
HETATM   42  C26 UNL     1      24.186   5.905  18.504  1.00  0.00    -0.013 C 
HETATM   43  C28 UNL     1      22.784   6.460  18.519  1.00  0.00     0.016 C 
ENDBRANCH  33  34
ENDBRANCH  32  33
ENDBRANCH  31  32
ENDBRANCH  24  27
ENDBRANCH   1  23
TORSDOF 15
ENDMDL
MODEL 4
REMARK VINA RESULT: -9.064296500      1.177      1.677
REMARK  15 active torsions:
REMARK  status: ('A' for Active; 'I' for Inactive)
REMARK    1  A    between atoms: C2_2  and  C3_3 
REMARK    2  A    between atoms: C3_3  and  C4_4 
REMARK    3  A    between atoms: C4_4  and  O2_6 
REMARK    4  A    between atoms: O2_6  and  C5_7 
REMARK    5  A    between atoms: C5_7  and  C6_8 
REMARK    6  A    between atoms: C8_10  and  C9_11 
REMARK    7  A    between atoms: C9_11  and  O3_12 
REMARK    8  A    between atoms: C9_11  and  C10_14 
REMARK    9  A    between atoms: C10_14  and  N1_17 
REMARK       I    between atoms: N1_17  and  C13_19 
REMARK   10  A    between atoms: C13_19  and  C14_21 
REMARK   11  A    between atoms: C18_25  and  O5_26 
REMARK   12  A    between atoms: O5_26  and  C19_27 
REMARK   13  A    between atoms: C19_27  and  C20_28 
REMARK   14  A    between atoms: C30_38  and  O6_39 
REMARK   15  A    between atoms: C31_41  and  O7_42 
ROOT
HETATM    1  C10 UNL     1      22.357   9.707  21.254  1.00  0.00     0.052 C 
HETATM    2  C11 UNL     1      22.556   8.646  22.324  1.00  0.00     0.041 C 
HETATM    3  C12 UNL     1      23.520   9.692  20.355  1.00  0.00     0.041 C 
ENDROOT
BRANCH   1   4
HETATM    4  C9  UNL     1      22.035  11.007  21.950  1.00  0.00     0.152 C 
BRANCH   4   5
HETATM    5  C8  UNL     1      22.768  11.325  23.199  1.00  0.00     0.049 C 
HETATM    6  C7  UNL     1      21.693  11.722  24.232  1.00  0.00     0.019 C 
HETATM    7  C6  UNL     1      21.979  13.092  24.701  1.00  0.00     0.042 C 
HETATM    8  C31 UNL     1      23.065  13.668  23.872  1.00  0.00     0.153 C 
HETATM    9  C30 UNL     1      23.609  12.542  23.046  1.00  0.00     0.154 C 
BRANCH   7  10
HETATM   10  C5  UNL     1      22.417  13.174  26.158  1.00  0.00     0.185 C 
BRANCH  10  11
HETATM   11  O2  UNL     1      23.803  12.965  26.303  1.00  0.00    -0.321 OA
BRANCH  11  12
HETATM   12  C4  UNL     1      24.227  11.800  26.919  1.00  0.00     0.258 C 
HETATM   13  O1  UNL     1      25.137  11.124  26.370  1.00  0.00    -0.265 OA
BRANCH  12  14
HETATM   14  C3  UNL     1      23.663  11.307  28.191  1.00  0.00     0.111 C 
BRANCH  14  15
HETATM   15  C2  UNL     1      24.577  10.187  28.698  1.00  0.00     0.005 C 
HETATM   16  C1  UNL     1      23.688   9.205  29.454  1.00  0.00     0.005 C 
ENDBRANCH  14  15
ENDBRANCH  12  14
ENDBRANCH  11  12
ENDBRANCH  10  11
ENDBRANCH   7  10
BRANCH   8  17
HETATM   17  O7  UNL     1      22.590  14.740  23.111  1.00  0.00    -0.393 OA
ATOM     18  H7  UNL     1      22.944  15.561  23.431  1.00  0.00     0.210 HD
ENDBRANCH   8  17
BRANCH   9  19
HETATM   19  O6  UNL     1      24.940  12.313  23.479  1.00  0.00    -0.393 OA
ATOM     20  H6  UNL     1      25.572  12.597  22.828  1.00  0.00     0.210 HD
ENDBRANCH   9  19
ENDBRANCH   4   5
BRANCH   4  21
HETATM   21  O3  UNL     1      20.656  10.782  22.339  1.00  0.00    -0.393 OA
ATOM     22  H3  UNL     1      20.455   9.886  22.093  1.00  0.00     0.210 HD
ENDBRANCH   4  21
ENDBRANCH   1   4
BRANCH   1  23
HETATM   23  N1  UNL     1      21.159   9.377  20.475  1.00  0.00    -0.350 N 
HETATM   24  C13 UNL     1      20.085   8.591  20.879  1.00  0.00     0.225 C 
HETATM   25  O4  UNL     1      20.053   8.074  22.016  1.00  0.00    -0.273 OA
ATOM     26  H1  UNL     1      21.107   9.768  19.535  1.00  0.00     0.163 HD
BRANCH  24  27
HETATM   27  C14 UNL     1      18.907   8.306  20.009  1.00  0.00     0.107 C 
HETATM   28  C15 UNL     1      17.731   7.754  20.769  1.00  0.00     0.017 C 
HETATM   29  C16 UNL     1      17.793   6.275  20.596  1.00  0.00     0.004 C 
HETATM   30  C17 UNL     1      18.843   5.970  19.566  1.00  0.00     0.033 C 
HETATM   31  C18 UNL     1      19.154   7.281  18.950  1.00  0.00     0.134 C 
BRANCH  31  32
HETATM   32  O5  UNL     1      20.441   7.356  18.422  1.00  0.00    -0.384 OA
BRANCH  32  33
HETATM   33  C19 UNL     1      20.582   6.321  17.502  1.00  0.00     0.177 C 
BRANCH  33  34
HETATM   34  C20 UNL     1      21.952   5.686  17.576  1.00  0.00    -0.018 C 
HETATM   35  C21 UNL     1      22.623   5.752  16.245  1.00  0.00     0.016 C 
HETATM   36  C22 UNL     1      24.036   5.188  16.394  1.00  0.00    -0.013 C 
HETATM   37  C23 UNL     1      24.819   6.012  17.387  1.00  0.00     0.009 C 
HETATM   38  C27 UNL     1      24.005   3.765  16.885  1.00  0.00     0.009 C 
HETATM   39  C24 UNL     1      24.129   5.940  18.739  1.00  0.00    -0.013 C 
HETATM   40  C25 UNL     1      24.070   4.513  19.195  1.00  0.00     0.009 C 
HETATM   41  C29 UNL     1      22.746   6.524  18.567  1.00  0.00     0.016 C 
HETATM   42  C26 UNL     1      23.275   3.714  18.198  1.00  0.00    -0.013 C 
HETATM   43  C28 UNL     1      21.877   4.248  18.003  1.00  0.00     0.016 C 
ENDBRANCH  33  34
ENDBRANCH  32  33
ENDBRANCH  31  32
ENDBRANCH  24  27
ENDBRANCH   1  23
TORSDOF 15
ENDMDL
MODEL 5
REMARK VINA RESULT: -9.049403516      2.055      7.934
REMARK  15 active torsions:
REMARK  status: ('A' for Active; 'I' for Inactive)
REMARK    1  A    between atoms: C2_2  and  C3_3 
REMARK    2  A    between atoms: C3_3  and  C4_4 
REMARK    3  A    between atoms: C4_4  and  O2_6 
REMARK    4  A    between atoms: O2_6  and  C5_7 
REMARK    5  A    between atoms: C5_7  and  C6_8 
REMARK    6  A    between atoms: C8_10  and  C9_11 
REMARK    7  A    between atoms: C9_11  and  O3_12 
REMARK    8  A    between atoms: C9_11  and  C10_14 
REMARK    9  A    between atoms: C10_14  and  N1_17 
REMARK       I    between atoms: N1_17  and  C13_19 
REMARK   10  A    between atoms: C13_19  and  C14_21 
REMARK   11  A    between atoms: C18_25  and  O5_26 
REMARK   12  A    between atoms: O5_26  and  C19_27 
REMARK   13  A    between atoms: C19_27  and  C20_28 
REMARK   14  A    between atoms: C30_38  and  O6_39 
REMARK   15  A    between atoms: C31_41  and  O7_42 
ROOT
HETATM    1  C10 UNL     1      22.800  11.344  22.057  1.00  0.00     0.052 C 
HETATM    2  C11 UNL     1      23.468  12.663  21.701  1.00  0.00     0.041 C 
HETATM    3  C12 UNL     1      23.554  10.715  23.152  1.00  0.00     0.041 C 
ENDROOT
BRANCH   1   4
HETATM    4  C9  UNL     1      22.637  10.554  20.782  1.00  0.00     0.152 C 
BRANCH   4   5
HETATM    5  C8  UNL     1      23.508   9.369  20.584  1.00  0.00     0.049 C 
HETATM    6  C7  UNL     1      24.038   9.471  19.139  1.00  0.00     0.019 C 
HETATM    7  C6  UNL     1      23.632   8.256  18.406  1.00  0.00     0.042 C 
HETATM    8  C31 UNL     1      22.697   7.474  19.250  1.00  0.00     0.153 C 
HETATM    9  C30 UNL     1      22.726   8.105  20.609  1.00  0.00     0.154 C 
BRANCH   7  10
HETATM   10  C5  UNL     1      24.790   7.341  18.027  1.00  0.00     0.185 C 
BRANCH  10  11
HETATM   11  O2  UNL     1      24.430   5.979  18.103  1.00  0.00    -0.321 OA
BRANCH  11  12
HETATM   12  C4  UNL     1      24.226   5.291  16.919  1.00  0.00     0.258 C 
HETATM   13  O1  UNL     1      24.880   5.638  15.899  1.00  0.00    -0.265 OA
BRANCH  12  14
HETATM   14  C3  UNL     1      23.277   4.169  16.790  1.00  0.00     0.111 C 
BRANCH  14  15
HETATM   15  C2  UNL     1      23.172   3.493  18.161  1.00  0.00     0.005 C 
HETATM   16  C1  UNL     1      24.095   2.279  18.122  1.00  0.00     0.005 C 
ENDBRANCH  14  15
ENDBRANCH  12  14
ENDBRANCH  11  12
ENDBRANCH  10  11
ENDBRANCH   7  10
BRANCH   8  17
HETATM   17  O7  UNL     1      21.423   7.442  18.675  1.00  0.00    -0.393 OA
ATOM     18  H7  UNL     1      20.780   7.140  19.305  1.00  0.00     0.210 HD
ENDBRANCH   8  17
BRANCH   9  19
HETATM   19  O6  UNL     1      23.298   7.157  21.496  1.00  0.00    -0.393 OA
ATOM     20  H6  UNL     1      22.832   7.128  22.323  1.00  0.00     0.210 HD
ENDBRANCH   9  19
ENDBRANCH   4   5
BRANCH   4  21
HETATM   21  O3  UNL     1      23.052  11.529  19.793  1.00  0.00    -0.393 OA
ATOM     22  H3  UNL     1      23.001  11.089  18.952  1.00  0.00     0.210 HD
ENDBRANCH   4  21
ENDBRANCH   1   4
BRANCH   1  23
HETATM   23  N1  UNL     1      21.436  11.614  22.523  1.00  0.00    -0.350 N 
HETATM   24  C13 UNL     1      21.032  11.899  23.823  1.00  0.00     0.225 C 
HETATM   25  O4  UNL     1      21.858  11.956  24.759  1.00  0.00    -0.273 OA
ATOM     26  H1  UNL     1      20.702  11.591  21.815  1.00  0.00     0.163 HD
BRANCH  24  27
HETATM   27  C14 UNL     1      19.612  12.155  24.201  1.00  0.00     0.107 C 
HETATM   28  C15 UNL     1      19.446  12.539  25.647  1.00  0.00     0.017 C 
HETATM   29  C16 UNL     1      19.059  11.288  26.358  1.00  0.00     0.004 C 
HETATM   30  C17 UNL     1      18.772  10.235  25.326  1.00  0.00     0.033 C 
HETATM   31  C18 UNL     1      18.708  10.975  24.044  1.00  0.00     0.134 C 
BRANCH  31  32
HETATM   32  O5  UNL     1      19.031  10.196  22.935  1.00  0.00    -0.384 OA
BRANCH  32  33
HETATM   33  C19 UNL     1      18.962   8.861  23.321  1.00  0.00     0.177 C 
BRANCH  33  34
HETATM   34  C20 UNL     1      18.099   8.049  22.383  1.00  0.00    -0.018 C 
HETATM   35  C21 UNL     1      18.916   7.541  21.242  1.00  0.00     0.016 C 
HETATM   36  C22 UNL     1      18.025   6.649  20.376  1.00  0.00    -0.013 C 
HETATM   37  C23 UNL     1      17.522   5.480  21.187  1.00  0.00     0.009 C 
HETATM   38  C27 UNL     1      16.833   7.409  19.858  1.00  0.00     0.009 C 
HETATM   39  C24 UNL     1      16.692   6.005  22.347  1.00  0.00    -0.013 C 
HETATM   40  C25 UNL     1      15.532   6.793  21.816  1.00  0.00     0.009 C 
HETATM   41  C29 UNL     1      17.602   6.862  23.195  1.00  0.00     0.016 C 
HETATM   42  C26 UNL     1      16.057   7.960  21.022  1.00  0.00    -0.013 C 
HETATM   43  C28 UNL     1      16.960   8.858  21.832  1.00  0.00     0.016 C 
ENDBRANCH  33  34
ENDBRANCH  32  33
ENDBRANCH  31  32
ENDBRANCH  24  27
ENDBRANCH   1  23
TORSDOF 15
ENDMDL
