MODEL 1
REMARK VINA RESULT: -7.859721064      0.000      0.000
REMARK  16 active torsions:
REMARK  status: ('A' for Active; 'I' for Inactive)
REMARK    1  A    between atoms: C3_3  and  C4_4 
REMARK    2  A    between atoms: C4_4  and  C7_7 
REMARK    3  A    between atoms: C9_9  and  O1_10 
REMARK    4  A    between atoms: C10_12  and  N1_13 
REMARK    5  A    between atoms: C17_24  and  O4_25 
REMARK    6  A    between atoms: C18_27  and  C19_28 
REMARK    7  A    between atoms: C19_28  and  C20_29 
REMARK    8  A    between atoms: C20_29  and  C21_30 
REMARK       I    between atoms: C21_30  and  N3_32 
REMARK    9  A    between atoms: N3_32  and  C22_34 
REMARK   10  A    between atoms: C22_34  and  C23_35 
REMARK   11  A    between atoms: C23_35  and  N4_36 
REMARK   12  A    between atoms: N4_36  and  C24_37 
REMARK   13  A    between atoms: N4_36  and  C27_40 
REMARK   14  A    between atoms: C24_37  and  C25_38 
REMARK   15  A    between atoms: C27_40  and  C28_41 
REMARK   16  A    between atoms: C28_41  and  C29_42 
ROOT
HETATM    1  C1  UNL     1      12.682   6.425  23.557  1.00  0.00     0.112 C 
HETATM    2  C2  UNL     1      13.906   6.710  22.804  1.00  0.00    -0.110 C 
HETATM    3  C3  UNL     1      14.913   6.962  22.176  1.00  0.00    -0.097 C 
ENDROOT
BRANCH   3   4
HETATM    4  C4  UNL     1      16.127   7.299  21.371  1.00  0.00     0.026 C 
HETATM    5  C5  UNL     1      16.087   6.317  20.222  1.00  0.00     0.029 C 
HETATM    6  C6  UNL     1      15.753   8.629  20.751  1.00  0.00     0.029 C 
BRANCH   4   7
HETATM    7  C7  UNL     1      17.379   7.304  22.153  1.00  0.00     0.008 C 
HETATM    8  C8  UNL     1      17.278   6.048  23.068  1.00  0.00     0.020 C 
HETATM    9  C9  UNL     1      18.648   6.935  21.402  1.00  0.00     0.151 C 
HETATM   10  C10 UNL     1      19.360   8.133  20.849  1.00  0.00     0.126 C 
HETATM   11  C16 UNL     1      19.979   8.806  22.029  1.00  0.00     0.060 C 
HETATM   12  C17 UNL     1      18.932   9.143  23.013  1.00  0.00     0.125 C 
HETATM   13  C18 UNL     1      17.598   8.525  22.967  1.00  0.00     0.027 C 
BRANCH   9  14
HETATM   14  O1  UNL     1      18.552   5.856  20.577  1.00  0.00    -0.393 OA
ATOM     15  H1  UNL     1      18.510   6.050  19.648  1.00  0.00     0.210 HD
ENDBRANCH   9  14
BRANCH  10  16
HETATM   16  N1  UNL     1      20.241   7.803  19.755  1.00  0.00    -0.302 N 
HETATM   17  C11 UNL     1      21.563   7.785  20.087  1.00  0.00     0.108 A 
HETATM   18  C12 UNL     1      22.540   7.483  19.172  1.00  0.00     0.022 A 
HETATM   19  C13 UNL     1      24.002   7.455  19.527  1.00  0.00     0.056 C 
HETATM   20  C14 UNL     1      22.172   7.189  17.886  1.00  0.00     0.256 A 
HETATM   21  O2  UNL     1      23.030   6.901  17.000  1.00  0.00    -0.267 OA
HETATM   22  N2  UNL     1      20.848   7.218  17.594  1.00  0.00    -0.275 N 
HETATM   23  C15 UNL     1      19.912   7.519  18.510  1.00  0.00     0.329 A 
ATOM     24  H2  UNL     1      20.551   7.003  16.642  1.00  0.00     0.173 HD
HETATM   25  O3  UNL     1      18.738   7.520  18.158  1.00  0.00    -0.246 OA
ENDBRANCH  10  16
BRANCH  12  26
HETATM   26  O4  UNL     1      18.863  10.562  23.078  1.00  0.00    -0.395 OA
ATOM     27  H4  UNL     1      19.086  10.892  22.215  1.00  0.00     0.210 HD
ENDBRANCH  12  26
BRANCH  13  28
HETATM   28  C19 UNL     1      17.031   8.333  24.360  1.00  0.00     0.017 C 
BRANCH  28  29
HETATM   29  C20 UNL     1      18.113   8.157  25.424  1.00  0.00     0.103 C 
BRANCH  29  30
HETATM   30  C21 UNL     1      18.104   9.334  26.322  1.00  0.00     0.217 C 
HETATM   31  O5  UNL     1      17.500  10.361  25.955  1.00  0.00    -0.274 OA
HETATM   32  N3  UNL     1      18.769   9.270  27.554  1.00  0.00    -0.359 N 
ATOM     33  H3  UNL     1      19.225   8.389  27.792  1.00  0.00     0.162 HD
BRANCH  32  34
HETATM   34  C22 UNL     1      18.864  10.351  28.523  1.00  0.00     0.152 C 
BRANCH  34  35
HETATM   35  C23 UNL     1      20.291  10.687  28.684  1.00  0.00     0.292 C 
BRANCH  35  36
HETATM   36  N4  UNL     1      20.879  11.517  27.612  1.00  0.00     0.090 N 
BRANCH  36  37
HETATM   37  C24 UNL     1      22.261  11.595  27.966  1.00  0.00     0.272 C 
BRANCH  37  38
HETATM   38  C25 UNL     1      23.181  12.038  26.848  1.00  0.00     0.026 C 
HETATM   39  C26 UNL     1      24.602  11.676  27.224  1.00  0.00     0.007 C 
ENDBRANCH  37  38
ENDBRANCH  36  37
BRANCH  36  40
HETATM   40  C27 UNL     1      20.259  12.761  27.488  1.00  0.00     0.272 C 
BRANCH  40  41
HETATM   41  C28 UNL     1      19.842  13.298  26.165  1.00  0.00     0.030 C 
BRANCH  41  42
HETATM   42  C29 UNL     1      20.562  14.431  25.552  1.00  0.00    -0.003 C 
HETATM   43  C30 UNL     1      21.377  13.994  24.335  1.00  0.00     0.005 C 
ENDBRANCH  41  42
ENDBRANCH  40  41
ENDBRANCH  36  40
ENDBRANCH  35  36
ENDBRANCH  34  35
ENDBRANCH  32  34
ENDBRANCH  29  30
ENDBRANCH  28  29
ENDBRANCH  13  28
ENDBRANCH   4   7
ENDBRANCH   3   4
TORSDOF 16
ENDMDL
MODEL 2
REMARK VINA RESULT: -7.812767440      4.434      9.156
REMARK  16 active torsions:
REMARK  status: ('A' for Active; 'I' for Inactive)
REMARK    1  A    between atoms: C3_3  and  C4_4 
REMARK    2  A    between atoms: C4_4  and  C7_7 
REMARK    3  A    between atoms: C9_9  and  O1_10 
REMARK    4  A    between atoms: C10_12  and  N1_13 
REMARK    5  A    between atoms: C17_24  and  O4_25 
REMARK    6  A    between atoms: C18_27  and  C19_28 
REMARK    7  A    between atoms: C19_28  and  C20_29 
REMARK    8  A    between atoms: C20_29  and  C21_30 
REMARK       I    between atoms: C21_30  and  N3_32 
REMARK    9  A    between atoms: N3_32  and  C22_34 
REMARK   10  A    between atoms: C22_34  and  C23_35 
REMARK   11  A    between atoms: C23_35  and  N4_36 
REMARK   12  A    between atoms: N4_36  and  C24_37 
REMARK   13  A    between atoms: N4_36  and  C27_40 
REMARK   14  A    between atoms: C24_37  and  C25_38 
REMARK   15  A    between atoms: C27_40  and  C28_41 
REMARK   16  A    between atoms: C28_41  and  C29_42 
ROOT
HETATM    1  C1  UNL     1      18.854   7.782  19.948  1.00  0.00     0.112 C 
HETATM    2  C2  UNL     1      19.535   6.946  18.956  1.00  0.00    -0.110 C 
HETATM    3  C3  UNL     1      20.106   6.244  18.147  1.00  0.00    -0.097 C 
ENDROOT
BRANCH   3   4
HETATM    4  C4  UNL     1      20.846   5.373  17.184  1.00  0.00     0.026 C 
HETATM    5  C5  UNL     1      20.292   3.990  17.443  1.00  0.00     0.029 C 
HETATM    6  C6  UNL     1      20.254   5.778  15.850  1.00  0.00     0.029 C 
BRANCH   4   7
HETATM    7  C7  UNL     1      22.314   5.493  17.278  1.00  0.00     0.008 C 
HETATM    8  C8  UNL     1      22.805   5.497  15.801  1.00  0.00     0.020 C 
HETATM    9  C9  UNL     1      22.857   6.848  17.701  1.00  0.00     0.151 C 
HETATM   10  C10 UNL     1      23.071   6.947  19.183  1.00  0.00     0.126 C 
HETATM   11  C16 UNL     1      24.279   6.117  19.465  1.00  0.00     0.060 C 
HETATM   12  C17 UNL     1      24.055   4.737  18.992  1.00  0.00     0.125 C 
HETATM   13  C18 UNL     1      22.978   4.409  18.044  1.00  0.00     0.027 C 
BRANCH   9  14
HETATM   14  O1  UNL     1      22.283   7.927  17.101  1.00  0.00    -0.393 OA
ATOM     15  H1  UNL     1      21.790   8.503  17.674  1.00  0.00     0.210 HD
ENDBRANCH   9  14
BRANCH  10  16
HETATM   16  N1  UNL     1      23.096   8.310  19.653  1.00  0.00    -0.302 N 
HETATM   17  C11 UNL     1      22.344   8.531  20.768  1.00  0.00     0.108 A 
HETATM   18  C12 UNL     1      22.259   9.767  21.358  1.00  0.00     0.022 A 
HETATM   19  C13 UNL     1      21.435  10.022  22.591  1.00  0.00     0.056 C 
HETATM   20  C14 UNL     1      22.954  10.811  20.806  1.00  0.00     0.256 A 
HETATM   21  O2  UNL     1      22.914  11.973  21.307  1.00  0.00    -0.267 OA
HETATM   22  N2  UNL     1      23.690  10.552  19.697  1.00  0.00    -0.275 N 
HETATM   23  C15 UNL     1      23.754   9.331  19.140  1.00  0.00     0.329 A 
ATOM     24  H2  UNL     1      24.215  11.315  19.269  1.00  0.00     0.173 HD
HETATM   25  O3  UNL     1      24.446   9.188  18.138  1.00  0.00    -0.246 OA
ENDBRANCH  10  16
BRANCH  12  26
HETATM   26  O4  UNL     1      24.028   3.901  20.142  1.00  0.00    -0.395 OA
ATOM     27  H4  UNL     1      23.557   3.112  19.902  1.00  0.00     0.210 HD
ENDBRANCH  12  26
BRANCH  13  28
HETATM   28  C19 UNL     1      23.387   3.285  17.113  1.00  0.00     0.017 C 
BRANCH  28  29
HETATM   29  C20 UNL     1      23.705   1.986  17.851  1.00  0.00     0.103 C 
BRANCH  29  30
HETATM   30  C21 UNL     1      22.438   1.305  18.199  1.00  0.00     0.217 C 
HETATM   31  O5  UNL     1      21.948   0.500  17.383  1.00  0.00    -0.274 OA
HETATM   32  N3  UNL     1      21.821   1.578  19.428  1.00  0.00    -0.359 N 
ATOM     33  H3  UNL     1      22.292   2.235  20.051  1.00  0.00     0.162 HD
BRANCH  32  34
HETATM   34  C22 UNL     1      20.567   1.005  19.892  1.00  0.00     0.152 C 
BRANCH  34  35
HETATM   35  C23 UNL     1      20.010   1.907  20.916  1.00  0.00     0.292 C 
BRANCH  35  36
HETATM   36  N4  UNL     1      18.595   2.292  20.730  1.00  0.00     0.090 N 
BRANCH  36  37
HETATM   37  C24 UNL     1      18.139   1.411  19.700  1.00  0.00     0.272 C 
BRANCH  37  38
HETATM   38  C25 UNL     1      16.820   0.726  19.986  1.00  0.00     0.026 C 
HETATM   39  C26 UNL     1      15.827   1.134  18.917  1.00  0.00     0.007 C 
ENDBRANCH  37  38
ENDBRANCH  36  37
BRANCH  36  40
HETATM   40  C27 UNL     1      18.436   3.644  20.423  1.00  0.00     0.272 C 
BRANCH  40  41
HETATM   41  C28 UNL     1      17.245   4.412  20.872  1.00  0.00     0.030 C 
BRANCH  41  42
HETATM   42  C29 UNL     1      16.297   4.972  19.888  1.00  0.00    -0.003 C 
HETATM   43  C30 UNL     1      16.723   4.668  18.452  1.00  0.00     0.005 C 
ENDBRANCH  41  42
ENDBRANCH  40  41
ENDBRANCH  36  40
ENDBRANCH  35  36
ENDBRANCH  34  35
ENDBRANCH  32  34
ENDBRANCH  29  30
ENDBRANCH  28  29
ENDBRANCH  13  28
ENDBRANCH   4   7
ENDBRANCH   3   4
TORSDOF 16
ENDMDL
MODEL 3
REMARK VINA RESULT: -7.762366919      2.644      8.409
REMARK  16 active torsions:
REMARK  status: ('A' for Active; 'I' for Inactive)
REMARK    1  A    between atoms: C3_3  and  C4_4 
REMARK    2  A    between atoms: C4_4  and  C7_7 
REMARK    3  A    between atoms: C9_9  and  O1_10 
REMARK    4  A    between atoms: C10_12  and  N1_13 
REMARK    5  A    between atoms: C17_24  and  O4_25 
REMARK    6  A    between atoms: C18_27  and  C19_28 
REMARK    7  A    between atoms: C19_28  and  C20_29 
REMARK    8  A    between atoms: C20_29  and  C21_30 
REMARK       I    between atoms: C21_30  and  N3_32 
REMARK    9  A    between atoms: N3_32  and  C22_34 
REMARK   10  A    between atoms: C22_34  and  C23_35 
REMARK   11  A    between atoms: C23_35  and  N4_36 
REMARK   12  A    between atoms: N4_36  and  C24_37 
REMARK   13  A    between atoms: N4_36  and  C27_40 
REMARK   14  A    between atoms: C24_37  and  C25_38 
REMARK   15  A    between atoms: C27_40  and  C28_41 
REMARK   16  A    between atoms: C28_41  and  C29_42 
ROOT
HETATM    1  C1  UNL     1      13.517   3.883  19.147  1.00  0.00     0.112 C 
HETATM    2  C2  UNL     1      14.350   4.422  20.225  1.00  0.00    -0.110 C 
HETATM    3  C3  UNL     1      15.054   4.862  21.110  1.00  0.00    -0.097 C 
ENDROOT
BRANCH   3   4
HETATM    4  C4  UNL     1      15.950   5.363  22.197  1.00  0.00     0.026 C 
HETATM    5  C5  UNL     1      15.190   5.056  23.467  1.00  0.00     0.029 C 
HETATM    6  C6  UNL     1      17.085   4.360  22.178  1.00  0.00     0.029 C 
BRANCH   4   7
HETATM    7  C7  UNL     1      16.359   6.772  22.031  1.00  0.00     0.008 C 
HETATM    8  C8  UNL     1      15.122   7.469  21.394  1.00  0.00     0.020 C 
HETATM    9  C9  UNL     1      16.457   7.602  23.300  1.00  0.00     0.151 C 
HETATM   10  C10 UNL     1      17.839   7.600  23.885  1.00  0.00     0.126 C 
HETATM   11  C16 UNL     1      18.653   8.466  22.981  1.00  0.00     0.060 C 
HETATM   12  C17 UNL     1      18.594   7.937  21.604  1.00  0.00     0.125 C 
HETATM   13  C18 UNL     1      17.562   6.974  21.187  1.00  0.00     0.027 C 
BRANCH   9  14
HETATM   14  O1  UNL     1      15.429   7.457  24.181  1.00  0.00    -0.393 OA
ATOM     15  H1  UNL     1      15.456   8.026  24.942  1.00  0.00     0.210 HD
ENDBRANCH   9  14
BRANCH  10  16
HETATM   16  N1  UNL     1      17.851   7.935  25.288  1.00  0.00    -0.302 N 
HETATM   17  C11 UNL     1      18.160   9.238  25.549  1.00  0.00     0.108 A 
HETATM   18  C12 UNL     1      18.209   9.733  26.828  1.00  0.00     0.022 A 
HETATM   19  C13 UNL     1      18.544  11.168  27.129  1.00  0.00     0.056 C 
HETATM   20  C14 UNL     1      17.939   8.890  27.873  1.00  0.00     0.256 A 
HETATM   21  O2  UNL     1      17.967   9.291  29.073  1.00  0.00    -0.267 OA
HETATM   22  N2  UNL     1      17.637   7.602  27.574  1.00  0.00    -0.275 N 
HETATM   23  C15 UNL     1      17.596   7.144  26.311  1.00  0.00     0.329 A 
ATOM     24  H2  UNL     1      17.432   6.956  28.337  1.00  0.00     0.173 HD
HETATM   25  O3  UNL     1      17.314   5.964  26.133  1.00  0.00    -0.246 OA
ENDBRANCH  10  16
BRANCH  12  26
HETATM   26  O4  UNL     1      19.904   7.497  21.270  1.00  0.00    -0.395 OA
ATOM     27  H4  UNL     1      19.936   6.563  21.442  1.00  0.00     0.210 HD
ENDBRANCH  12  26
BRANCH  13  28
HETATM   28  C19 UNL     1      17.158   7.190  19.743  1.00  0.00     0.017 C 
BRANCH  28  29
HETATM   29  C20 UNL     1      17.701   6.112  18.805  1.00  0.00     0.103 C 
BRANCH  29  30
HETATM   30  C21 UNL     1      18.887   6.643  18.095  1.00  0.00     0.217 C 
HETATM   31  O5  UNL     1      19.176   7.848  18.233  1.00  0.00    -0.274 OA
HETATM   32  N3  UNL     1      19.653   5.788  17.291  1.00  0.00    -0.359 N 
ATOM     33  H3  UNL     1      19.364   4.810  17.242  1.00  0.00     0.162 HD
BRANCH  32  34
HETATM   34  C22 UNL     1      20.824   6.173  16.519  1.00  0.00     0.152 C 
BRANCH  34  35
HETATM   35  C23 UNL     1      21.665   4.974  16.347  1.00  0.00     0.292 C 
BRANCH  35  36
HETATM   36  N4  UNL     1      22.865   4.905  17.208  1.00  0.00     0.090 N 
BRANCH  36  37
HETATM   37  C24 UNL     1      22.533   3.903  18.171  1.00  0.00     0.272 C 
BRANCH  37  38
HETATM   38  C25 UNL     1      23.716   3.156  18.748  1.00  0.00     0.026 C 
HETATM   39  C26 UNL     1      24.154   2.105  17.750  1.00  0.00     0.007 C 
ENDBRANCH  37  38
ENDBRANCH  36  37
BRANCH  36  40
HETATM   40  C27 UNL     1      23.199   6.137  17.772  1.00  0.00     0.272 C 
BRANCH  40  41
HETATM   41  C28 UNL     1      24.612   6.514  18.045  1.00  0.00     0.030 C 
BRANCH  41  42
HETATM   42  C29 UNL     1      25.056   6.823  19.418  1.00  0.00    -0.003 C 
HETATM   43  C30 UNL     1      23.941   7.463  20.245  1.00  0.00     0.005 C 
ENDBRANCH  41  42
ENDBRANCH  40  41
ENDBRANCH  36  40
ENDBRANCH  35  36
ENDBRANCH  34  35
ENDBRANCH  32  34
ENDBRANCH  29  30
ENDBRANCH  28  29
ENDBRANCH  13  28
ENDBRANCH   4   7
ENDBRANCH   3   4
TORSDOF 16
ENDMDL
MODEL 4
REMARK VINA RESULT: -7.726244769      2.578      8.305
REMARK  16 active torsions:
REMARK  status: ('A' for Active; 'I' for Inactive)
REMARK    1  A    between atoms: C3_3  and  C4_4 
REMARK    2  A    between atoms: C4_4  and  C7_7 
REMARK    3  A    between atoms: C9_9  and  O1_10 
REMARK    4  A    between atoms: C10_12  and  N1_13 
REMARK    5  A    between atoms: C17_24  and  O4_25 
REMARK    6  A    between atoms: C18_27  and  C19_28 
REMARK    7  A    between atoms: C19_28  and  C20_29 
REMARK    8  A    between atoms: C20_29  and  C21_30 
REMARK       I    between atoms: C21_30  and  N3_32 
REMARK    9  A    between atoms: N3_32  and  C22_34 
REMARK   10  A    between atoms: C22_34  and  C23_35 
REMARK   11  A    between atoms: C23_35  and  N4_36 
REMARK   12  A    between atoms: N4_36  and  C24_37 
REMARK   13  A    between atoms: N4_36  and  C27_40 
REMARK   14  A    between atoms: C24_37  and  C25_38 
REMARK   15  A    between atoms: C27_40  and  C28_41 
REMARK   16  A    between atoms: C28_41  and  C29_42 
ROOT
HETATM    1  C1  UNL     1      19.007   2.164  21.311  1.00  0.00     0.112 C 
HETATM    2  C2  UNL     1      18.034   3.246  21.479  1.00  0.00    -0.110 C 
HETATM    3  C3  UNL     1      17.220   4.137  21.604  1.00  0.00    -0.097 C 
ENDROOT
BRANCH   3   4
HETATM    4  C4  UNL     1      16.211   5.235  21.708  1.00  0.00     0.026 C 
HETATM    5  C5  UNL     1      14.943   4.620  21.159  1.00  0.00     0.029 C 
HETATM    6  C6  UNL     1      15.976   5.327  23.202  1.00  0.00     0.029 C 
BRANCH   4   7
HETATM    7  C7  UNL     1      16.631   6.495  21.063  1.00  0.00     0.008 C 
HETATM    8  C8  UNL     1      15.368   6.986  20.298  1.00  0.00     0.020 C 
HETATM    9  C9  UNL     1      16.822   7.693  21.977  1.00  0.00     0.151 C 
HETATM   10  C10 UNL     1      18.238   7.835  22.454  1.00  0.00     0.126 C 
HETATM   11  C16 UNL     1      19.007   8.323  21.273  1.00  0.00     0.060 C 
HETATM   12  C17 UNL     1      18.854   7.372  20.154  1.00  0.00     0.125 C 
HETATM   13  C18 UNL     1      17.783   6.363  20.137  1.00  0.00     0.027 C 
BRANCH   9  14
HETATM   14  O1  UNL     1      15.850   7.884  22.911  1.00  0.00    -0.393 OA
ATOM     15  H1  UNL     1      16.143   8.224  23.748  1.00  0.00     0.210 HD
ENDBRANCH   9  14
BRANCH  10  16
HETATM   16  N1  UNL     1      18.343   8.613  23.664  1.00  0.00    -0.302 N 
HETATM   17  C11 UNL     1      18.733   9.905  23.466  1.00  0.00     0.108 A 
HETATM   18  C12 UNL     1      18.877  10.791  24.504  1.00  0.00     0.022 A 
HETATM   19  C13 UNL     1      19.302  12.219  24.297  1.00  0.00     0.056 C 
HETATM   20  C14 UNL     1      18.620  10.361  25.779  1.00  0.00     0.256 A 
HETATM   21  O2  UNL     1      18.734  11.135  26.775  1.00  0.00    -0.267 OA
HETATM   22  N2  UNL     1      18.236   9.070  25.936  1.00  0.00    -0.275 N 
HETATM   23  C15 UNL     1      18.103   8.224  24.901  1.00  0.00     0.329 A 
ATOM     24  H2  UNL     1      18.039   8.729  26.877  1.00  0.00     0.173 HD
HETATM   25  O3  UNL     1      17.750   7.074  25.136  1.00  0.00    -0.246 OA
ENDBRANCH  10  16
BRANCH  12  26
HETATM   26  O4  UNL     1      20.133   6.799  19.915  1.00  0.00    -0.395 OA
ATOM     27  H4  UNL     1      20.005   5.862  19.819  1.00  0.00     0.210 HD
ENDBRANCH  12  26
BRANCH  13  28
HETATM   28  C19 UNL     1      17.292   6.104  18.726  1.00  0.00     0.017 C 
BRANCH  28  29
HETATM   29  C20 UNL     1      17.672   4.718  18.209  1.00  0.00     0.103 C 
BRANCH  29  30
HETATM   30  C21 UNL     1      19.041   4.768  17.649  1.00  0.00     0.217 C 
HETATM   31  O5  UNL     1      19.927   4.067  18.175  1.00  0.00    -0.274 OA
HETATM   32  N3  UNL     1      19.310   5.597  16.551  1.00  0.00    -0.359 N 
ATOM     33  H3  UNL     1      18.528   6.127  16.165  1.00  0.00     0.162 HD
BRANCH  32  34
HETATM   34  C22 UNL     1      20.607   5.765  15.914  1.00  0.00     0.152 C 
BRANCH  34  35
HETATM   35  C23 UNL     1      21.392   6.707  16.733  1.00  0.00     0.292 C 
BRANCH  35  36
HETATM   36  N4  UNL     1      22.576   6.135  17.409  1.00  0.00     0.090 N 
BRANCH  36  37
HETATM   37  C24 UNL     1      23.254   7.281  17.929  1.00  0.00     0.272 C 
BRANCH  37  38
HETATM   38  C25 UNL     1      23.597   7.205  19.401  1.00  0.00     0.026 C 
HETATM   39  C26 UNL     1      25.068   6.867  19.534  1.00  0.00     0.007 C 
ENDBRANCH  37  38
ENDBRANCH  36  37
BRANCH  36  40
HETATM   40  C27 UNL     1      23.362   5.356  16.559  1.00  0.00     0.272 C 
BRANCH  40  41
HETATM   41  C28 UNL     1      24.025   4.111  17.030  1.00  0.00     0.030 C 
BRANCH  41  42
HETATM   42  C29 UNL     1      23.323   3.182  17.938  1.00  0.00    -0.003 C 
HETATM   43  C30 UNL     1      23.949   3.169  19.332  1.00  0.00     0.005 C 
ENDBRANCH  41  42
ENDBRANCH  40  41
ENDBRANCH  36  40
ENDBRANCH  35  36
ENDBRANCH  34  35
ENDBRANCH  32  34
ENDBRANCH  29  30
ENDBRANCH  28  29
ENDBRANCH  13  28
ENDBRANCH   4   7
ENDBRANCH   3   4
TORSDOF 16
ENDMDL
MODEL 5
REMARK VINA RESULT: -7.663790148      4.011      7.028
REMARK  16 active torsions:
REMARK  status: ('A' for Active; 'I' for Inactive)
REMARK    1  A    between atoms: C3_3  and  C4_4 
REMARK    2  A    between atoms: C4_4  and  C7_7 
REMARK    3  A    between atoms: C9_9  and  O1_10 
REMARK    4  A    between atoms: C10_12  and  N1_13 
REMARK    5  A    between atoms: C17_24  and  O4_25 
REMARK    6  A    between atoms: C18_27  and  C19_28 
REMARK    7  A    between atoms: C19_28  and  C20_29 
REMARK    8  A    between atoms: C20_29  and  C21_30 
REMARK       I    between atoms: C21_30  and  N3_32 
REMARK    9  A    between atoms: N3_32  and  C22_34 
REMARK   10  A    between atoms: C22_34  and  C23_35 
REMARK   11  A    between atoms: C23_35  and  N4_36 
REMARK   12  A    between atoms: N4_36  and  C24_37 
REMARK   13  A    between atoms: N4_36  and  C27_40 
REMARK   14  A    between atoms: C24_37  and  C25_38 
REMARK   15  A    between atoms: C27_40  and  C28_41 
REMARK   16  A    between atoms: C28_41  and  C29_42 
ROOT
HETATM    1  C1  UNL     1      23.731   9.416  20.023  1.00  0.00     0.112 C 
HETATM    2  C2  UNL     1      23.519   8.154  19.311  1.00  0.00    -0.110 C 
HETATM    3  C3  UNL     1      23.347   7.099  18.737  1.00  0.00    -0.097 C 
ENDROOT
BRANCH   3   4
HETATM    4  C4  UNL     1      23.167   5.778  18.060  1.00  0.00     0.026 C 
HETATM    5  C5  UNL     1      24.248   5.760  17.002  1.00  0.00     0.029 C 
HETATM    6  C6  UNL     1      23.645   4.799  19.112  1.00  0.00     0.029 C 
BRANCH   4   7
HETATM    7  C7  UNL     1      21.796   5.544  17.564  1.00  0.00     0.008 C 
HETATM    8  C8  UNL     1      21.666   6.463  16.315  1.00  0.00     0.020 C 
HETATM    9  C9  UNL     1      21.540   4.207  16.889  1.00  0.00     0.151 C 
HETATM   10  C10 UNL     1      21.034   3.166  17.843  1.00  0.00     0.126 C 
HETATM   11  C16 UNL     1      19.621   3.549  18.135  1.00  0.00     0.060 C 
HETATM   12  C17 UNL     1      19.583   4.920  18.682  1.00  0.00     0.125 C 
HETATM   13  C18 UNL     1      20.723   5.841  18.544  1.00  0.00     0.027 C 
BRANCH   9  14
HETATM   14  O1  UNL     1      22.492   3.801  16.003  1.00  0.00    -0.393 OA
ATOM     15  H1  UNL     1      22.334   4.031  15.094  1.00  0.00     0.210 HD
ENDBRANCH   9  14
BRANCH  10  16
HETATM   16  N1  UNL     1      21.256   1.821  17.371  1.00  0.00    -0.302 N 
HETATM   17  C11 UNL     1      20.198   1.281  16.702  1.00  0.00     0.108 A 
HETATM   18  C12 UNL     1      20.237   0.014  16.177  1.00  0.00     0.022 A 
HETATM   19  C13 UNL     1      19.078  -0.592  15.434  1.00  0.00     0.056 C 
HETATM   20  C14 UNL     1      21.378  -0.730  16.330  1.00  0.00     0.256 A 
HETATM   21  O2  UNL     1      21.471  -1.903  15.864  1.00  0.00    -0.267 OA
HETATM   22  N2  UNL     1      22.408  -0.158  17.001  1.00  0.00    -0.275 N 
HETATM   23  C15 UNL     1      22.342   1.085  17.506  1.00  0.00     0.329 A 
ATOM     24  H2  UNL     1      23.268  -0.694  17.127  1.00  0.00     0.173 HD
HETATM   25  O3  UNL     1      23.323   1.522  18.098  1.00  0.00    -0.246 OA
ENDBRANCH  10  16
BRANCH  12  26
HETATM   26  O4  UNL     1      19.136   4.820  20.028  1.00  0.00    -0.395 OA
ATOM     27  H4  UNL     1      18.451   4.161  20.045  1.00  0.00     0.210 HD
ENDBRANCH  12  26
BRANCH  13  28
HETATM   28  C19 UNL     1      20.257   7.275  18.390  1.00  0.00     0.017 C 
BRANCH  28  29
HETATM   29  C20 UNL     1      19.156   7.653  19.380  1.00  0.00     0.103 C 
BRANCH  29  30
HETATM   30  C21 UNL     1      19.754   8.414  20.500  1.00  0.00     0.217 C 
HETATM   31  O5  UNL     1      20.525   9.358  20.236  1.00  0.00    -0.274 OA
HETATM   32  N3  UNL     1      19.444   8.061  21.821  1.00  0.00    -0.359 N 
ATOM     33  H3  UNL     1      18.791   7.289  21.956  1.00  0.00     0.162 HD
BRANCH  32  34
HETATM   34  C22 UNL     1      19.973   8.701  23.015  1.00  0.00     0.152 C 
BRANCH  34  35
HETATM   35  C23 UNL     1      19.098   9.843  23.340  1.00  0.00     0.292 C 
BRANCH  35  36
HETATM   36  N4  UNL     1      19.626  10.788  24.347  1.00  0.00     0.090 N 
BRANCH  36  37
HETATM   37  C24 UNL     1      18.450  11.298  24.980  1.00  0.00     0.272 C 
BRANCH  37  38
HETATM   38  C25 UNL     1      18.400  11.103  26.480  1.00  0.00     0.026 C 
HETATM   39  C26 UNL     1      16.960  11.229  26.933  1.00  0.00     0.007 C 
ENDBRANCH  37  38
ENDBRANCH  36  37
BRANCH  36  40
HETATM   40  C27 UNL     1      20.437  11.778  23.788  1.00  0.00     0.272 C 
BRANCH  40  41
HETATM   41  C28 UNL     1      20.149  13.224  23.980  1.00  0.00     0.030 C 
BRANCH  41  42
HETATM   42  C29 UNL     1      21.007  14.053  24.848  1.00  0.00    -0.003 C 
HETATM   43  C30 UNL     1      20.395  14.246  26.235  1.00  0.00     0.005 C 
ENDBRANCH  41  42
ENDBRANCH  40  41
ENDBRANCH  36  40
ENDBRANCH  35  36
ENDBRANCH  34  35
ENDBRANCH  32  34
ENDBRANCH  29  30
ENDBRANCH  28  29
ENDBRANCH  13  28
ENDBRANCH   4   7
ENDBRANCH   3   4
TORSDOF 16
ENDMDL
