MODEL 1
REMARK VINA RESULT: -9.658043086      0.000      0.000
REMARK  15 active torsions:
REMARK  status: ('A' for Active; 'I' for Inactive)
REMARK    1  A    between atoms: C1_2  and  C2_3 
REMARK       I    between atoms: C1_2  and  N1_10 
REMARK    2  A    between atoms: C2_3  and  C3_4 
REMARK    3  A    between atoms: N1_10  and  C9_12 
REMARK    4  A    between atoms: C9_12  and  C10_13 
REMARK    5  A    between atoms: C9_12  and  C17_20 
REMARK    6  A    between atoms: C10_13  and  C11_14 
REMARK    7  A    between atoms: C17_20  and  C18_22 
REMARK    8  A    between atoms: C18_22  and  C19_23 
REMARK    9  A    between atoms: C19_23  and  O3_24 
REMARK   10  A    between atoms: C19_23  and  C20_26 
REMARK   11  A    between atoms: C20_26  and  C21_28 
REMARK   12  A    between atoms: C21_28  and  N2_29 
REMARK   13  A    between atoms: C26_35  and  C27_36 
REMARK   14  A    between atoms: C27_36  and  O5_37 
REMARK   15  A    between atoms: N3_39  and  O6_41 
ROOT
HETATM    1  C17 UNL     1      22.948  10.538  21.124  1.00  0.00     0.152 C 
HETATM    2  O2  UNL     1      22.846  11.544  20.463  1.00  0.00    -0.296 OA
ENDROOT
BRANCH   1   3
HETATM    3  C9  UNL     1      22.988  10.622  22.625  1.00  0.00     0.154 C 
BRANCH   3   4
HETATM    4  N1  UNL     1      21.740  11.249  23.052  1.00  0.00    -0.350 N 
HETATM    5  C1  UNL     1      20.630  10.472  23.481  1.00  0.00     0.218 C 
HETATM    6  O1  UNL     1      20.770   9.218  23.477  1.00  0.00    -0.274 OA
ATOM      7  H1  UNL     1      21.664  12.266  23.042  1.00  0.00     0.163 HD
BRANCH   5   8
HETATM    8  C2  UNL     1      19.394  11.145  23.902  1.00  0.00     0.107 C 
BRANCH   8   9
HETATM    9  C3  UNL     1      19.573  12.266  24.868  1.00  0.00    -0.006 C 
HETATM   10  C4  UNL     1      20.195  13.506  24.308  1.00  0.00     0.005 C 
HETATM   11  C5  UNL     1      20.018  14.602  25.368  1.00  0.00     0.000 C 
HETATM   12  C6  UNL     1      20.732  14.257  26.636  1.00  0.00     0.000 C 
HETATM   13  C7  UNL     1      20.437  12.871  27.132  1.00  0.00     0.000 C 
HETATM   14  C8  UNL     1      20.381  11.836  26.066  1.00  0.00     0.005 C 
ENDBRANCH   8   9
ENDBRANCH   5   8
ENDBRANCH   3   4
BRANCH   3  15
HETATM   15  C10 UNL     1      24.182  11.446  22.980  1.00  0.00     0.037 C 
BRANCH  15  16
HETATM   16  C11 UNL     1      24.354  11.691  24.458  1.00  0.00    -0.012 C 
HETATM   17  C12 UNL     1      23.841  13.090  24.745  1.00  0.00     0.005 C 
HETATM   18  C13 UNL     1      24.605  13.685  25.880  1.00  0.00     0.000 C 
HETATM   19  C14 UNL     1      26.059  13.901  25.637  1.00  0.00     0.000 C 
HETATM   20  C15 UNL     1      26.558  12.868  24.654  1.00  0.00     0.000 C 
HETATM   21  C16 UNL     1      25.771  11.603  24.915  1.00  0.00     0.005 C 
ENDBRANCH  15  16
ENDBRANCH   3  15
ENDBRANCH   1   3
BRANCH   1  22
HETATM   22  C18 UNL     1      23.033   9.250  20.412  1.00  0.00     0.120 C 
BRANCH  22  23
HETATM   23  C19 UNL     1      24.281   9.156  19.525  1.00  0.00     0.196 C 
BRANCH  23  24
HETATM   24  O3  UNL     1      23.932   9.875  18.361  1.00  0.00    -0.388 OA
ATOM     25  H3  UNL     1      24.734  10.321  18.115  1.00  0.00     0.210 HD
ENDBRANCH  23  24
BRANCH  23  26
HETATM   26  C20 UNL     1      24.440   7.719  19.220  1.00  0.00     0.183 C 
HETATM   27  O4  UNL     1      25.171   7.051  19.919  1.00  0.00    -0.293 OA
BRANCH  26  28
HETATM   28  C21 UNL     1      23.732   7.105  18.087  1.00  0.00     0.354 C 
BRANCH  28  29
HETATM   29  N2  UNL     1      23.265   5.786  18.480  1.00  0.00     0.112 N 
HETATM   30  C22 UNL     1      21.839   5.638  18.145  1.00  0.00     0.320 C 
HETATM   31  C23 UNL     1      21.667   5.996  16.720  1.00  0.00     0.015 C 
HETATM   32  S1  UNL     1      20.760   7.021  16.359  1.00  0.00    -0.088 SA
HETATM   33  C24 UNL     1      22.484   5.227  15.737  1.00  0.00     0.050 C 
HETATM   34  C25 UNL     1      23.870   4.971  16.217  1.00  0.00     0.050 C 
HETATM   35  C26 UNL     1      24.014   4.783  17.702  1.00  0.00     0.299 C 
BRANCH  35  36
HETATM   36  C27 UNL     1      23.672   3.405  18.129  1.00  0.00     0.169 C 
HETATM   37  N3  UNL     1      23.546   2.428  17.306  1.00  0.00    -0.249 N 
ATOM     38  H3  UNL     1      23.684   2.585  16.307  1.00  0.00     0.196 HD
BRANCH  36  39
HETATM   39  O5  UNL     1      23.480   3.163  19.478  1.00  0.00    -0.346 OA
ATOM     40  H5  UNL     1      24.126   3.494  20.090  1.00  0.00     0.219 HD
ENDBRANCH  36  39
BRANCH  37  41
HETATM   41  O6  UNL     1      23.233   1.192  17.755  1.00  0.00    -0.288 OA
ATOM     42  H6  UNL     1      22.339   0.876  17.704  1.00  0.00     0.244 HD
ENDBRANCH  37  41
ENDBRANCH  35  36
ENDBRANCH  28  29
ENDBRANCH  26  28
ENDBRANCH  23  26
ENDBRANCH  22  23
ENDBRANCH   1  22
TORSDOF 15
ENDMDL
MODEL 2
REMARK VINA RESULT: -9.485397021      1.910      2.662
REMARK  15 active torsions:
REMARK  status: ('A' for Active; 'I' for Inactive)
REMARK    1  A    between atoms: C1_2  and  C2_3 
REMARK       I    between atoms: C1_2  and  N1_10 
REMARK    2  A    between atoms: C2_3  and  C3_4 
REMARK    3  A    between atoms: N1_10  and  C9_12 
REMARK    4  A    between atoms: C9_12  and  C10_13 
REMARK    5  A    between atoms: C9_12  and  C17_20 
REMARK    6  A    between atoms: C10_13  and  C11_14 
REMARK    7  A    between atoms: C17_20  and  C18_22 
REMARK    8  A    between atoms: C18_22  and  C19_23 
REMARK    9  A    between atoms: C19_23  and  O3_24 
REMARK   10  A    between atoms: C19_23  and  C20_26 
REMARK   11  A    between atoms: C20_26  and  C21_28 
REMARK   12  A    between atoms: C21_28  and  N2_29 
REMARK   13  A    between atoms: C26_35  and  C27_36 
REMARK   14  A    between atoms: C27_36  and  O5_37 
REMARK   15  A    between atoms: N3_39  and  O6_41 
ROOT
HETATM    1  C17 UNL     1      23.016  10.638  21.077  1.00  0.00     0.152 C 
HETATM    2  O2  UNL     1      22.419  11.474  20.443  1.00  0.00    -0.296 OA
ENDROOT
BRANCH   1   3
HETATM    3  C9  UNL     1      23.032  10.698  22.580  1.00  0.00     0.154 C 
BRANCH   3   4
HETATM    4  N1  UNL     1      21.778  11.319  22.997  1.00  0.00    -0.350 N 
HETATM    5  C1  UNL     1      20.688  10.539  23.474  1.00  0.00     0.218 C 
HETATM    6  O1  UNL     1      20.854   9.289  23.521  1.00  0.00    -0.274 OA
ATOM      7  H1  UNL     1      21.681  12.333  22.945  1.00  0.00     0.163 HD
BRANCH   5   8
HETATM    8  C2  UNL     1      19.445  11.205  23.883  1.00  0.00     0.107 C 
BRANCH   8   9
HETATM    9  C3  UNL     1      19.603  12.292  24.892  1.00  0.00    -0.006 C 
HETATM   10  C4  UNL     1      20.231  13.552  24.387  1.00  0.00     0.005 C 
HETATM   11  C5  UNL     1      20.031  14.610  25.482  1.00  0.00     0.000 C 
HETATM   12  C6  UNL     1      20.723  14.222  26.750  1.00  0.00     0.000 C 
HETATM   13  C7  UNL     1      20.424  12.818  27.190  1.00  0.00     0.000 C 
HETATM   14  C8  UNL     1      20.391  11.822  26.087  1.00  0.00     0.005 C 
ENDBRANCH   8   9
ENDBRANCH   5   8
ENDBRANCH   3   4
BRANCH   3  15
HETATM   15  C10 UNL     1      24.220  11.517  22.965  1.00  0.00     0.037 C 
BRANCH  15  16
HETATM   16  C11 UNL     1      24.365  11.746  24.449  1.00  0.00    -0.012 C 
HETATM   17  C12 UNL     1      23.859  13.147  24.740  1.00  0.00     0.005 C 
HETATM   18  C13 UNL     1      24.607  13.724  25.896  1.00  0.00     0.000 C 
HETATM   19  C14 UNL     1      26.067  13.929  25.683  1.00  0.00     0.000 C 
HETATM   20  C15 UNL     1      26.576  12.901  24.700  1.00  0.00     0.000 C 
HETATM   21  C16 UNL     1      25.772  11.640  24.933  1.00  0.00     0.005 C 
ENDBRANCH  15  16
ENDBRANCH   3  15
ENDBRANCH   1   3
BRANCH   1  22
HETATM   22  C18 UNL     1      23.715   9.575  20.331  1.00  0.00     0.120 C 
BRANCH  22  23
HETATM   23  C19 UNL     1      22.864   8.307  20.190  1.00  0.00     0.196 C 
BRANCH  23  24
HETATM   24  O3  UNL     1      22.544   7.957  21.520  1.00  0.00    -0.388 OA
ATOM     25  H3  UNL     1      22.320   8.785  21.930  1.00  0.00     0.210 HD
ENDBRANCH  23  24
BRANCH  23  26
HETATM   26  C20 UNL     1      23.760   7.297  19.590  1.00  0.00     0.183 C 
HETATM   27  O4  UNL     1      24.958   7.426  19.723  1.00  0.00    -0.293 OA
BRANCH  26  28
HETATM   28  C21 UNL     1      23.216   6.157  18.836  1.00  0.00     0.354 C 
BRANCH  28  29
HETATM   29  N2  UNL     1      22.502   6.656  17.673  1.00  0.00     0.112 N 
HETATM   30  C22 UNL     1      23.022   6.017  16.453  1.00  0.00     0.320 C 
HETATM   31  C23 UNL     1      22.994   4.552  16.660  1.00  0.00     0.015 C 
HETATM   32  S1  UNL     1      24.187   3.802  16.526  1.00  0.00    -0.088 SA
HETATM   33  C24 UNL     1      21.672   3.953  17.003  1.00  0.00     0.050 C 
HETATM   34  C25 UNL     1      20.888   4.794  17.948  1.00  0.00     0.050 C 
HETATM   35  C26 UNL     1      21.084   6.278  17.808  1.00  0.00     0.299 C 
BRANCH  35  36
HETATM   36  C27 UNL     1      20.268   6.850  16.710  1.00  0.00     0.169 C 
HETATM   37  N3  UNL     1      20.097   8.112  16.549  1.00  0.00    -0.249 N 
ATOM     38  H3  UNL     1      20.534   8.770  17.194  1.00  0.00     0.196 HD
BRANCH  36  39
HETATM   39  O5  UNL     1      19.664   5.981  15.819  1.00  0.00    -0.346 OA
ATOM     40  H5  UNL     1      18.726   5.847  15.886  1.00  0.00     0.219 HD
ENDBRANCH  36  39
BRANCH  37  41
HETATM   41  O6  UNL     1      19.341   8.574  15.528  1.00  0.00    -0.288 OA
ATOM     42  H6  UNL     1      19.687   8.589  14.643  1.00  0.00     0.244 HD
ENDBRANCH  37  41
ENDBRANCH  35  36
ENDBRANCH  28  29
ENDBRANCH  26  28
ENDBRANCH  23  26
ENDBRANCH  22  23
ENDBRANCH   1  22
TORSDOF 15
ENDMDL
MODEL 3
REMARK VINA RESULT: -9.481026093      0.739      1.067
REMARK  15 active torsions:
REMARK  status: ('A' for Active; 'I' for Inactive)
REMARK    1  A    between atoms: C1_2  and  C2_3 
REMARK       I    between atoms: C1_2  and  N1_10 
REMARK    2  A    between atoms: C2_3  and  C3_4 
REMARK    3  A    between atoms: N1_10  and  C9_12 
REMARK    4  A    between atoms: C9_12  and  C10_13 
REMARK    5  A    between atoms: C9_12  and  C17_20 
REMARK    6  A    between atoms: C10_13  and  C11_14 
REMARK    7  A    between atoms: C17_20  and  C18_22 
REMARK    8  A    between atoms: C18_22  and  C19_23 
REMARK    9  A    between atoms: C19_23  and  O3_24 
REMARK   10  A    between atoms: C19_23  and  C20_26 
REMARK   11  A    between atoms: C20_26  and  C21_28 
REMARK   12  A    between atoms: C21_28  and  N2_29 
REMARK   13  A    between atoms: C26_35  and  C27_36 
REMARK   14  A    between atoms: C27_36  and  O5_37 
REMARK   15  A    between atoms: N3_39  and  O6_41 
ROOT
HETATM    1  C17 UNL     1      22.563  10.485  21.128  1.00  0.00     0.152 C 
HETATM    2  O2  UNL     1      22.291  11.474  20.490  1.00  0.00    -0.296 OA
ENDROOT
BRANCH   1   3
HETATM    3  C9  UNL     1      22.673  10.558  22.626  1.00  0.00     0.154 C 
BRANCH   3   4
HETATM    4  N1  UNL     1      21.442  11.174  23.115  1.00  0.00    -0.350 N 
HETATM    5  C1  UNL     1      20.325  10.387  23.508  1.00  0.00     0.218 C 
HETATM    6  O1  UNL     1      20.444   9.135  23.416  1.00  0.00    -0.274 OA
ATOM      7  H1  UNL     1      21.383  12.190  23.176  1.00  0.00     0.163 HD
BRANCH   5   8
HETATM    8  C2  UNL     1      19.108  11.049  23.994  1.00  0.00     0.107 C 
BRANCH   8   9
HETATM    9  C3  UNL     1      19.127  11.447  25.431  1.00  0.00    -0.006 C 
HETATM   10  C4  UNL     1      20.450  11.908  25.955  1.00  0.00     0.005 C 
HETATM   11  C5  UNL     1      20.183  12.532  27.331  1.00  0.00     0.000 C 
HETATM   12  C6  UNL     1      19.629  11.527  28.290  1.00  0.00     0.000 C 
HETATM   13  C7  UNL     1      18.474  10.745  27.736  1.00  0.00     0.000 C 
HETATM   14  C8  UNL     1      18.634  10.333  26.317  1.00  0.00     0.005 C 
ENDBRANCH   8   9
ENDBRANCH   5   8
ENDBRANCH   3   4
BRANCH   3  15
HETATM   15  C10 UNL     1      23.877  11.388  22.929  1.00  0.00     0.037 C 
BRANCH  15  16
HETATM   16  C11 UNL     1      24.054  11.718  24.390  1.00  0.00    -0.012 C 
HETATM   17  C12 UNL     1      23.773  13.200  24.555  1.00  0.00     0.005 C 
HETATM   18  C13 UNL     1      24.600  13.751  25.668  1.00  0.00     0.000 C 
HETATM   19  C14 UNL     1      26.074  13.707  25.461  1.00  0.00     0.000 C 
HETATM   20  C15 UNL     1      26.418  12.532  24.576  1.00  0.00     0.000 C 
HETATM   21  C16 UNL     1      25.426  11.437  24.902  1.00  0.00     0.005 C 
ENDBRANCH  15  16
ENDBRANCH   3  15
ENDBRANCH   1   3
BRANCH   1  22
HETATM   22  C18 UNL     1      22.781   9.227  20.390  1.00  0.00     0.120 C 
BRANCH  22  23
HETATM   23  C19 UNL     1      24.132   9.205  19.662  1.00  0.00     0.196 C 
BRANCH  23  24
HETATM   24  O3  UNL     1      23.912   9.984  18.505  1.00  0.00    -0.388 OA
ATOM     25  H3  UNL     1      24.711   9.884  18.003  1.00  0.00     0.210 HD
ENDBRANCH  23  24
BRANCH  23  26
HETATM   26  C20 UNL     1      24.361   7.792  19.301  1.00  0.00     0.183 C 
HETATM   27  O4  UNL     1      25.133   7.136  19.968  1.00  0.00    -0.293 OA
BRANCH  26  28
HETATM   28  C21 UNL     1      23.676   7.185  18.150  1.00  0.00     0.354 C 
BRANCH  28  29
HETATM   29  N2  UNL     1      23.216   5.857  18.519  1.00  0.00     0.112 N 
HETATM   30  C22 UNL     1      21.808   5.685  18.125  1.00  0.00     0.320 C 
HETATM   31  C23 UNL     1      21.689   6.046  16.696  1.00  0.00     0.015 C 
HETATM   32  S1  UNL     1      20.779   7.056  16.300  1.00  0.00    -0.088 SA
HETATM   33  C24 UNL     1      22.559   5.295  15.745  1.00  0.00     0.050 C 
HETATM   34  C25 UNL     1      23.927   5.061  16.281  1.00  0.00     0.050 C 
HETATM   35  C26 UNL     1      24.014   4.870  17.770  1.00  0.00     0.299 C 
BRANCH  35  36
HETATM   36  C27 UNL     1      23.678   3.484  18.178  1.00  0.00     0.169 C 
HETATM   37  N3  UNL     1      23.590   2.512  17.345  1.00  0.00    -0.249 N 
ATOM     38  H3  UNL     1      23.755   2.677  16.352  1.00  0.00     0.196 HD
BRANCH  36  39
HETATM   39  O5  UNL     1      23.451   3.232  19.519  1.00  0.00    -0.346 OA
ATOM     40  H5  UNL     1      23.883   2.485  19.916  1.00  0.00     0.219 HD
ENDBRANCH  36  39
BRANCH  37  41
HETATM   41  O6  UNL     1      23.281   1.269  17.778  1.00  0.00    -0.288 OA
ATOM     42  H6  UNL     1      23.885   0.549  17.641  1.00  0.00     0.244 HD
ENDBRANCH  37  41
ENDBRANCH  35  36
ENDBRANCH  28  29
ENDBRANCH  26  28
ENDBRANCH  23  26
ENDBRANCH  22  23
ENDBRANCH   1  22
TORSDOF 15
ENDMDL
MODEL 4
REMARK VINA RESULT: -9.191118227      1.381      2.082
REMARK  15 active torsions:
REMARK  status: ('A' for Active; 'I' for Inactive)
REMARK    1  A    between atoms: C1_2  and  C2_3 
REMARK       I    between atoms: C1_2  and  N1_10 
REMARK    2  A    between atoms: C2_3  and  C3_4 
REMARK    3  A    between atoms: N1_10  and  C9_12 
REMARK    4  A    between atoms: C9_12  and  C10_13 
REMARK    5  A    between atoms: C9_12  and  C17_20 
REMARK    6  A    between atoms: C10_13  and  C11_14 
REMARK    7  A    between atoms: C17_20  and  C18_22 
REMARK    8  A    between atoms: C18_22  and  C19_23 
REMARK    9  A    between atoms: C19_23  and  O3_24 
REMARK   10  A    between atoms: C19_23  and  C20_26 
REMARK   11  A    between atoms: C20_26  and  C21_28 
REMARK   12  A    between atoms: C21_28  and  N2_29 
REMARK   13  A    between atoms: C26_35  and  C27_36 
REMARK   14  A    between atoms: C27_36  and  O5_37 
REMARK   15  A    between atoms: N3_39  and  O6_41 
ROOT
HETATM    1  C17 UNL     1      22.964  11.036  21.098  1.00  0.00     0.152 C 
HETATM    2  O2  UNL     1      22.398  11.707  20.268  1.00  0.00    -0.296 OA
ENDROOT
BRANCH   1   3
HETATM    3  C9  UNL     1      22.808  11.352  22.560  1.00  0.00     0.154 C 
BRANCH   3   4
HETATM    4  N1  UNL     1      21.396  11.174  22.887  1.00  0.00    -0.350 N 
HETATM    5  C1  UNL     1      20.849   9.885  23.134  1.00  0.00     0.218 C 
HETATM    6  O1  UNL     1      21.637   8.903  23.058  1.00  0.00    -0.274 OA
ATOM      7  H1  UNL     1      20.789  11.992  22.940  1.00  0.00     0.163 HD
BRANCH   5   8
HETATM    8  C2  UNL     1      19.424   9.753  23.460  1.00  0.00     0.107 C 
BRANCH   8   9
HETATM    9  C3  UNL     1      19.063  10.033  24.880  1.00  0.00    -0.006 C 
HETATM   10  C4  UNL     1      18.064   9.101  25.487  1.00  0.00     0.005 C 
HETATM   11  C5  UNL     1      18.062   9.382  26.996  1.00  0.00     0.000 C 
HETATM   12  C6  UNL     1      17.629  10.782  27.291  1.00  0.00     0.000 C 
HETATM   13  C7  UNL     1      18.348  11.816  26.475  1.00  0.00     0.000 C 
HETATM   14  C8  UNL     1      18.555  11.441  25.051  1.00  0.00     0.005 C 
ENDBRANCH   8   9
ENDBRANCH   5   8
ENDBRANCH   3   4
BRANCH   3  15
HETATM   15  C10 UNL     1      23.255  12.765  22.745  1.00  0.00     0.037 C 
BRANCH  15  16
HETATM   16  C11 UNL     1      24.215  12.970  23.890  1.00  0.00    -0.012 C 
HETATM   17  C12 UNL     1      24.596  11.596  24.410  1.00  0.00     0.005 C 
HETATM   18  C13 UNL     1      24.869  11.668  25.876  1.00  0.00     0.000 C 
HETATM   19  C14 UNL     1      23.708  12.044  26.731  1.00  0.00     0.000 C 
HETATM   20  C15 UNL     1      22.774  12.929  25.941  1.00  0.00     0.000 C 
HETATM   21  C16 UNL     1      23.637  13.759  25.016  1.00  0.00     0.005 C 
ENDBRANCH  15  16
ENDBRANCH   3  15
ENDBRANCH   1   3
BRANCH   1  22
HETATM   22  C18 UNL     1      23.799   9.916  20.626  1.00  0.00     0.120 C 
BRANCH  22  23
HETATM   23  C19 UNL     1      23.134   9.135  19.485  1.00  0.00     0.196 C 
BRANCH  23  24
HETATM   24  O3  UNL     1      21.899   8.717  20.027  1.00  0.00    -0.388 OA
ATOM     25  H3  UNL     1      21.259   8.987  19.380  1.00  0.00     0.210 HD
ENDBRANCH  23  24
BRANCH  23  26
HETATM   26  C20 UNL     1      24.013   7.973  19.240  1.00  0.00     0.183 C 
HETATM   27  O4  UNL     1      24.895   7.730  20.035  1.00  0.00    -0.293 OA
BRANCH  26  28
HETATM   28  C21 UNL     1      23.832   7.127  18.051  1.00  0.00     0.354 C 
BRANCH  28  29
HETATM   29  N2  UNL     1      23.353   5.820  18.469  1.00  0.00     0.112 N 
HETATM   30  C22 UNL     1      21.915   5.697  18.184  1.00  0.00     0.320 C 
HETATM   31  C23 UNL     1      21.702   6.048  16.762  1.00  0.00     0.015 C 
HETATM   32  S1  UNL     1      20.803   7.087  16.423  1.00  0.00    -0.088 SA
HETATM   33  C24 UNL     1      22.471   5.257  15.759  1.00  0.00     0.050 C 
HETATM   34  C25 UNL     1      23.867   4.977  16.195  1.00  0.00     0.050 C 
HETATM   35  C26 UNL     1      24.057   4.798  17.675  1.00  0.00     0.299 C 
BRANCH  35  36
HETATM   36  C27 UNL     1      23.703   3.429  18.124  1.00  0.00     0.169 C 
HETATM   37  N3  UNL     1      23.566   2.441  17.316  1.00  0.00    -0.249 N 
ATOM     38  H3  UNL     1      23.701   2.581  16.315  1.00  0.00     0.196 HD
BRANCH  36  39
HETATM   39  O5  UNL     1      23.513   3.210  19.477  1.00  0.00    -0.346 OA
ATOM     40  H5  UNL     1      22.633   3.031  19.785  1.00  0.00     0.219 HD
ENDBRANCH  36  39
BRANCH  37  41
HETATM   41  O6  UNL     1      23.242   1.215  17.785  1.00  0.00    -0.288 OA
ATOM     42  H6  UNL     1      22.796   0.590  17.226  1.00  0.00     0.244 HD
ENDBRANCH  37  41
ENDBRANCH  35  36
ENDBRANCH  28  29
ENDBRANCH  26  28
ENDBRANCH  23  26
ENDBRANCH  22  23
ENDBRANCH   1  22
TORSDOF 15
ENDMDL
MODEL 5
REMARK VINA RESULT: -9.188863005      4.584      8.665
REMARK  15 active torsions:
REMARK  status: ('A' for Active; 'I' for Inactive)
REMARK    1  A    between atoms: C1_2  and  C2_3 
REMARK       I    between atoms: C1_2  and  N1_10 
REMARK    2  A    between atoms: C2_3  and  C3_4 
REMARK    3  A    between atoms: N1_10  and  C9_12 
REMARK    4  A    between atoms: C9_12  and  C10_13 
REMARK    5  A    between atoms: C9_12  and  C17_20 
REMARK    6  A    between atoms: C10_13  and  C11_14 
REMARK    7  A    between atoms: C17_20  and  C18_22 
REMARK    8  A    between atoms: C18_22  and  C19_23 
REMARK    9  A    between atoms: C19_23  and  O3_24 
REMARK   10  A    between atoms: C19_23  and  C20_26 
REMARK   11  A    between atoms: C20_26  and  C21_28 
REMARK   12  A    between atoms: C21_28  and  N2_29 
REMARK   13  A    between atoms: C26_35  and  C27_36 
REMARK   14  A    between atoms: C27_36  and  O5_37 
REMARK   15  A    between atoms: N3_39  and  O6_41 
ROOT
HETATM    1  C17 UNL     1      21.269   9.106  22.158  1.00  0.00     0.152 C 
HETATM    2  O2  UNL     1      21.878   8.267  22.777  1.00  0.00    -0.296 OA
ENDROOT
BRANCH   1   3
HETATM    3  C9  UNL     1      19.837   9.409  22.505  1.00  0.00     0.154 C 
BRANCH   3   4
HETATM    4  N1  UNL     1      19.822   9.877  23.888  1.00  0.00    -0.350 N 
HETATM    5  C1  UNL     1      19.086  11.031  24.272  1.00  0.00     0.218 C 
HETATM    6  O1  UNL     1      18.448  11.633  23.365  1.00  0.00    -0.274 OA
ATOM      7  H1  UNL     1      20.350   9.364  24.594  1.00  0.00     0.163 HD
BRANCH   5   8
HETATM    8  C2  UNL     1      19.099  11.465  25.675  1.00  0.00     0.107 C 
BRANCH   8   9
HETATM    9  C3  UNL     1      18.919  10.380  26.682  1.00  0.00    -0.006 C 
HETATM   10  C4  UNL     1      17.547   9.790  26.754  1.00  0.00     0.005 C 
HETATM   11  C5  UNL     1      17.658   8.528  27.620  1.00  0.00     0.000 C 
HETATM   12  C6  UNL     1      18.097   8.855  29.012  1.00  0.00     0.000 C 
HETATM   13  C7  UNL     1      19.305   9.745  29.065  1.00  0.00     0.000 C 
HETATM   14  C8  UNL     1      19.305  10.842  28.063  1.00  0.00     0.005 C 
ENDBRANCH   8   9
ENDBRANCH   5   8
ENDBRANCH   3   4
BRANCH   3  15
HETATM   15  C10 UNL     1      19.073   8.138  22.331  1.00  0.00     0.037 C 
BRANCH  15  16
HETATM   16  C11 UNL     1      17.576   8.294  22.419  1.00  0.00    -0.012 C 
HETATM   17  C12 UNL     1      17.120   7.576  23.675  1.00  0.00     0.005 C 
HETATM   18  C13 UNL     1      15.745   7.029  23.474  1.00  0.00     0.000 C 
HETATM   19  C14 UNL     1      15.613   5.985  22.420  1.00  0.00     0.000 C 
HETATM   20  C15 UNL     1      16.658   6.218  21.354  1.00  0.00     0.000 C 
HETATM   21  C16 UNL     1      16.848   7.716  21.252  1.00  0.00     0.005 C 
ENDBRANCH  15  16
ENDBRANCH   3  15
ENDBRANCH   1   3
BRANCH   1  22
HETATM   22  C18 UNL     1      21.974   9.805  21.068  1.00  0.00     0.120 C 
BRANCH  22  23
HETATM   23  C19 UNL     1      22.011  11.324  21.280  1.00  0.00     0.196 C 
BRANCH  23  24
HETATM   24  O3  UNL     1      22.266  11.846  19.993  1.00  0.00    -0.388 OA
ATOM     25  H3  UNL     1      22.225  12.787  20.112  1.00  0.00     0.210 HD
ENDBRANCH  23  24
BRANCH  23  26
HETATM   26  C20 UNL     1      23.160  11.568  22.176  1.00  0.00     0.183 C 
HETATM   27  O4  UNL     1      24.279  11.533  21.711  1.00  0.00    -0.293 OA
BRANCH  26  28
HETATM   28  C21 UNL     1      22.958  11.842  23.606  1.00  0.00     0.354 C 
BRANCH  28  29
HETATM   29  N2  UNL     1      23.896  12.868  24.029  1.00  0.00     0.112 N 
HETATM   30  C22 UNL     1      23.211  14.168  24.122  1.00  0.00     0.320 C 
HETATM   31  C23 UNL     1      22.011  13.989  24.968  1.00  0.00     0.015 C 
HETATM   32  S1  UNL     1      20.735  14.324  24.456  1.00  0.00    -0.088 SA
HETATM   33  C24 UNL     1      22.239  13.455  26.342  1.00  0.00     0.050 C 
HETATM   34  C25 UNL     1      23.269  12.381  26.378  1.00  0.00     0.050 C 
HETATM   35  C26 UNL     1      24.382  12.520  25.375  1.00  0.00     0.299 C 
BRANCH  35  36
HETATM   36  C27 UNL     1      25.431  13.464  25.831  1.00  0.00     0.169 C 
HETATM   37  N3  UNL     1      26.483  13.726  25.143  1.00  0.00    -0.249 N 
ATOM     38  H3  UNL     1      26.624  13.276  24.239  1.00  0.00     0.196 HD
BRANCH  36  39
HETATM   39  O5  UNL     1      25.266  14.090  27.054  1.00  0.00    -0.346 OA
ATOM     40  H5  UNL     1      25.900  14.747  27.313  1.00  0.00     0.219 HD
ENDBRANCH  36  39
BRANCH  37  41
HETATM   41  O6  UNL     1      27.405  14.597  25.611  1.00  0.00    -0.288 OA
ATOM     42  H6  UNL     1      27.383  15.509  25.346  1.00  0.00     0.244 HD
ENDBRANCH  37  41
ENDBRANCH  35  36
ENDBRANCH  28  29
ENDBRANCH  26  28
ENDBRANCH  23  26
ENDBRANCH  22  23
ENDBRANCH   1  22
TORSDOF 15
ENDMDL
