MODEL 1
REMARK VINA RESULT: -7.453380830      0.000      0.000
REMARK  14 active torsions:
REMARK  status: ('A' for Active; 'I' for Inactive)
REMARK    1  A    between atoms: C3_3  and  O1_4 
REMARK    2  A    between atoms: C4_6  and  C5_7 
REMARK    3  A    between atoms: C5_7  and  C6_8 
REMARK       I    between atoms: C6_8  and  N1_10 
REMARK    4  A    between atoms: N1_10  and  C7_12 
REMARK    5  A    between atoms: N2_22  and  C17_23 
REMARK    6  A    between atoms: C17_23  and  C18_24 
REMARK    7  A    between atoms: C18_24  and  C19_26 
REMARK    8  A    between atoms: C19_26  and  C20_27 
REMARK    9  A    between atoms: C19_26  and  N4_35 
REMARK   10  A    between atoms: C20_27  and  C21_28 
REMARK   11  A    between atoms: C21_28  and  C22_29 
REMARK   12  A    between atoms: C22_29  and  C23_30 
REMARK   13  A    between atoms: C23_30  and  N3_31 
REMARK       I    between atoms: N4_35  and  C24_36 
REMARK   14  A    between atoms: C24_36  and  C25_38 
ROOT
HETATM    1  C1  UNL     1      15.851   8.267  20.455  1.00  0.00     0.071 C 
HETATM    2  C2  UNL     1      16.846   7.147  20.499  1.00  0.00     0.041 C 
HETATM    3  C3  UNL     1      18.181   7.668  20.799  1.00  0.00     0.070 C 
HETATM    4  C4  UNL     1      18.410   8.689  21.864  1.00  0.00     0.053 C 
HETATM    5  C13 UNL     1      17.575   8.517  23.091  1.00  0.00     0.012 C 
HETATM    6  C14 UNL     1      17.711   7.218  23.814  1.00  0.00     0.006 C 
HETATM    7  C15 UNL     1      16.522   6.343  23.473  1.00  0.00     0.045 C 
HETATM    8  C16 UNL     1      16.946   5.491  22.281  1.00  0.00     0.069 C 
HETATM    9  N2  UNL     1      16.374   6.017  21.112  1.00  0.00    -0.334 N 
ENDROOT
BRANCH   9  10
HETATM   10  C17 UNL     1      15.060   5.610  20.815  1.00  0.00     0.149 C 
BRANCH  10  11
HETATM   11  C18 UNL     1      14.868   4.356  20.084  1.00  0.00     0.200 C 
HETATM   12  O3  UNL     1      14.382   3.377  20.633  1.00  0.00    -0.288 OA
BRANCH  11  13
HETATM   13  C19 UNL     1      15.262   4.187  18.606  1.00  0.00     0.241 C 
BRANCH  13  14
HETATM   14  C20 UNL     1      14.263   5.017  17.779  1.00  0.00     0.048 C 
BRANCH  14  15
HETATM   15  C21 UNL     1      13.105   4.141  17.373  1.00  0.00     0.005 C 
BRANCH  15  16
HETATM   16  C22 UNL     1      13.588   2.786  16.933  1.00  0.00     0.027 C 
BRANCH  16  17
HETATM   17  C23 UNL     1      12.775   1.664  17.516  1.00  0.00     0.229 C 
BRANCH  17  18
HETATM   18  N3  UNL     1      12.459   1.818  18.907  1.00  0.00    -0.079 N 
ATOM     19  H33 UNL     1      12.599   2.785  19.198  1.00  0.00     0.274 HD
ATOM     20  H32 UNL     1      11.454   1.734  19.054  1.00  0.00     0.274 HD
ATOM     21  H31 UNL     1      12.962   1.183  19.528  1.00  0.00     0.274 HD
ENDBRANCH  17  18
ENDBRANCH  16  17
ENDBRANCH  15  16
ENDBRANCH  14  15
ENDBRANCH  13  14
BRANCH  13  22
HETATM   22  N4  UNL     1      16.580   4.349  18.415  1.00  0.00    -0.400 NA
HETATM   23  C24 UNL     1      17.944   4.523  18.216  1.00  0.00     0.322 C 
HETATM   24  O4  UNL     1      18.499   5.621  17.998  1.00  0.00    -0.255 OA
BRANCH  23  25
HETATM   25  C25 UNL     1      18.888   3.368  18.241  1.00  0.00     0.338 C 
HETATM   26  C26 UNL     1      20.323   3.743  18.468  1.00  0.00     0.122 C 
HETATM   27  S1  UNL     1      20.958   2.076  18.953  1.00  0.00    -0.137 SA
HETATM   28  C27 UNL     1      19.322   1.235  19.014  1.00  0.00     0.347 C 
HETATM   29  N5  UNL     1      18.484   2.428  19.236  1.00  0.00     0.108 N 
HETATM   30  C28 UNL     1      18.884   2.878  20.582  1.00  0.00     0.312 C 
ENDBRANCH  23  25
ENDBRANCH  13  22
ENDBRANCH  11  13
ENDBRANCH  10  11
ENDBRANCH   9  10
BRANCH   3  31
HETATM   31  O1  UNL     1      19.196   6.670  20.794  1.00  0.00    -0.363 OA
ATOM     32  H1  UNL     1      19.881   6.828  20.154  1.00  0.00     0.217 HD
ENDBRANCH   3  31
BRANCH   4  33
HETATM   33  C5  UNL     1      19.876   8.515  22.251  1.00  0.00     0.114 C 
BRANCH  33  34
HETATM   34  C6  UNL     1      20.867   8.915  21.278  1.00  0.00     0.218 C 
HETATM   35  O2  UNL     1      21.096  10.088  20.860  1.00  0.00    -0.274 OA
HETATM   36  N1  UNL     1      21.692   7.903  20.701  1.00  0.00    -0.356 N 
ATOM     37  H1  UNL     1      21.566   6.937  21.000  1.00  0.00     0.162 HD
BRANCH  36  38
HETATM   38  C7  UNL     1      22.703   8.200  19.704  1.00  0.00     0.084 C 
HETATM   39  C8  UNL     1      22.559   7.247  18.520  1.00  0.00     0.025 C 
HETATM   40  C9  UNL     1      23.850   7.230  17.750  1.00  0.00     0.002 C 
HETATM   41  C10 UNL     1      24.878   6.452  18.555  1.00  0.00     0.000 C 
HETATM   42  C11 UNL     1      24.730   6.751  20.026  1.00  0.00     0.002 C 
HETATM   43  C12 UNL     1      24.091   8.120  20.229  1.00  0.00     0.025 C 
ENDBRANCH  36  38
ENDBRANCH  33  34
ENDBRANCH   4  33
TORSDOF 14
ENDMDL
MODEL 2
REMARK VINA RESULT: -7.442386033      3.443      7.073
REMARK  14 active torsions:
REMARK  status: ('A' for Active; 'I' for Inactive)
REMARK    1  A    between atoms: C3_3  and  O1_4 
REMARK    2  A    between atoms: C4_6  and  C5_7 
REMARK    3  A    between atoms: C5_7  and  C6_8 
REMARK       I    between atoms: C6_8  and  N1_10 
REMARK    4  A    between atoms: N1_10  and  C7_12 
REMARK    5  A    between atoms: N2_22  and  C17_23 
REMARK    6  A    between atoms: C17_23  and  C18_24 
REMARK    7  A    between atoms: C18_24  and  C19_26 
REMARK    8  A    between atoms: C19_26  and  C20_27 
REMARK    9  A    between atoms: C19_26  and  N4_35 
REMARK   10  A    between atoms: C20_27  and  C21_28 
REMARK   11  A    between atoms: C21_28  and  C22_29 
REMARK   12  A    between atoms: C22_29  and  C23_30 
REMARK   13  A    between atoms: C23_30  and  N3_31 
REMARK       I    between atoms: N4_35  and  C24_36 
REMARK   14  A    between atoms: C24_36  and  C25_38 
ROOT
HETATM    1  C1  UNL     1      24.766   6.542  20.354  1.00  0.00     0.071 C 
HETATM    2  C2  UNL     1      23.437   6.784  19.703  1.00  0.00     0.041 C 
HETATM    3  C3  UNL     1      22.688   7.799  20.445  1.00  0.00     0.070 C 
HETATM    4  C4  UNL     1      23.330   9.054  20.934  1.00  0.00     0.053 C 
HETATM    5  C13 UNL     1      24.334   9.652  20.004  1.00  0.00     0.012 C 
HETATM    6  C14 UNL     1      23.846  10.015  18.640  1.00  0.00     0.006 C 
HETATM    7  C15 UNL     1      24.296   8.949  17.661  1.00  0.00     0.045 C 
HETATM    8  C16 UNL     1      23.157   7.938  17.578  1.00  0.00     0.069 C 
HETATM    9  N2  UNL     1      23.491   6.804  18.335  1.00  0.00    -0.334 N 
ENDROOT
BRANCH   9  10
HETATM   10  C17 UNL     1      24.278   5.828  17.695  1.00  0.00     0.149 C 
BRANCH  10  11
HETATM   11  C18 UNL     1      23.675   5.048  16.613  1.00  0.00     0.200 C 
HETATM   12  O3  UNL     1      24.063   5.172  15.458  1.00  0.00    -0.288 OA
BRANCH  11  13
HETATM   13  C19 UNL     1      22.533   4.044  16.848  1.00  0.00     0.241 C 
BRANCH  13  14
HETATM   14  C20 UNL     1      23.061   2.991  17.840  1.00  0.00     0.048 C 
BRANCH  14  15
HETATM   15  C21 UNL     1      21.981   1.974  18.108  1.00  0.00     0.005 C 
BRANCH  15  16
HETATM   16  C22 UNL     1      21.922   0.953  17.005  1.00  0.00     0.027 C 
BRANCH  16  17
HETATM   17  C23 UNL     1      20.631   1.005  16.237  1.00  0.00     0.229 C 
BRANCH  17  18
HETATM   18  N3  UNL     1      20.631   1.923  15.134  1.00  0.00    -0.079 N 
ATOM     19  H33 UNL     1      21.043   1.487  14.309  1.00  0.00     0.274 HD
ATOM     20  H32 UNL     1      19.680   2.073  14.797  1.00  0.00     0.274 HD
ATOM     21  H31 UNL     1      21.084   2.817  15.327  1.00  0.00     0.274 HD
ENDBRANCH  17  18
ENDBRANCH  16  17
ENDBRANCH  15  16
ENDBRANCH  14  15
ENDBRANCH  13  14
BRANCH  13  22
HETATM   22  N4  UNL     1      21.365   4.658  17.088  1.00  0.00    -0.400 NA
HETATM   23  C24 UNL     1      20.155   5.295  17.331  1.00  0.00     0.322 C 
HETATM   24  O4  UNL     1      19.484   5.905  16.470  1.00  0.00    -0.255 OA
BRANCH  23  25
HETATM   25  C25 UNL     1      19.541   5.309  18.691  1.00  0.00     0.338 C 
HETATM   26  C26 UNL     1      18.672   6.500  18.968  1.00  0.00     0.122 C 
HETATM   27  S1  UNL     1      17.761   5.827  20.430  1.00  0.00    -0.137 SA
HETATM   28  C27 UNL     1      18.434   4.118  20.330  1.00  0.00     0.347 C 
HETATM   29  N5  UNL     1      18.786   4.116  18.898  1.00  0.00     0.108 N 
HETATM   30  C28 UNL     1      17.477   4.196  18.227  1.00  0.00     0.312 C 
ENDBRANCH  23  25
ENDBRANCH  13  22
ENDBRANCH  11  13
ENDBRANCH  10  11
ENDBRANCH   9  10
BRANCH   3  31
HETATM   31  O1  UNL     1      21.383   8.037  19.925  1.00  0.00    -0.363 OA
ATOM     32  H1  UNL     1      20.825   8.535  20.513  1.00  0.00     0.217 HD
ENDBRANCH   3  31
BRANCH   4  33
HETATM   33  C5  UNL     1      22.173  10.039  21.092  1.00  0.00     0.114 C 
BRANCH  33  34
HETATM   34  C6  UNL     1      21.747  10.346  22.439  1.00  0.00     0.218 C 
HETATM   35  O2  UNL     1      21.415   9.522  23.341  1.00  0.00    -0.274 OA
HETATM   36  N1  UNL     1      21.678  11.717  22.827  1.00  0.00    -0.356 N 
ATOM     37  H1  UNL     1      21.940  12.434  22.150  1.00  0.00     0.162 HD
BRANCH  36  38
HETATM   38  C7  UNL     1      21.246  12.129  24.149  1.00  0.00     0.084 C 
HETATM   39  C8  UNL     1      20.391  13.390  24.045  1.00  0.00     0.025 C 
HETATM   40  C9  UNL     1      20.357  14.066  25.388  1.00  0.00     0.002 C 
HETATM   41  C10 UNL     1      21.708  14.719  25.630  1.00  0.00     0.000 C 
HETATM   42  C11 UNL     1      22.817  13.838  25.111  1.00  0.00     0.002 C 
HETATM   43  C12 UNL     1      22.372  12.380  25.086  1.00  0.00     0.025 C 
ENDBRANCH  36  38
ENDBRANCH  33  34
ENDBRANCH   4  33
TORSDOF 14
ENDMDL
MODEL 3
REMARK VINA RESULT: -7.341433855      5.638      9.615
REMARK  14 active torsions:
REMARK  status: ('A' for Active; 'I' for Inactive)
REMARK    1  A    between atoms: C3_3  and  O1_4 
REMARK    2  A    between atoms: C4_6  and  C5_7 
REMARK    3  A    between atoms: C5_7  and  C6_8 
REMARK       I    between atoms: C6_8  and  N1_10 
REMARK    4  A    between atoms: N1_10  and  C7_12 
REMARK    5  A    between atoms: N2_22  and  C17_23 
REMARK    6  A    between atoms: C17_23  and  C18_24 
REMARK    7  A    between atoms: C18_24  and  C19_26 
REMARK    8  A    between atoms: C19_26  and  C20_27 
REMARK    9  A    between atoms: C19_26  and  N4_35 
REMARK   10  A    between atoms: C20_27  and  C21_28 
REMARK   11  A    between atoms: C21_28  and  C22_29 
REMARK   12  A    between atoms: C22_29  and  C23_30 
REMARK   13  A    between atoms: C23_30  and  N3_31 
REMARK       I    between atoms: N4_35  and  C24_36 
REMARK   14  A    between atoms: C24_36  and  C25_38 
ROOT
HETATM    1  C1  UNL     1      19.639   9.282  21.568  1.00  0.00     0.071 C 
HETATM    2  C2  UNL     1      20.757   8.996  22.525  1.00  0.00     0.041 C 
HETATM    3  C3  UNL     1      21.835   8.280  21.842  1.00  0.00     0.070 C 
HETATM    4  C4  UNL     1      22.319   8.683  20.489  1.00  0.00     0.053 C 
HETATM    5  C13 UNL     1      22.375  10.157  20.254  1.00  0.00     0.012 C 
HETATM    6  C14 UNL     1      23.233  10.949  21.185  1.00  0.00     0.006 C 
HETATM    7  C15 UNL     1      22.344  11.637  22.201  1.00  0.00     0.045 C 
HETATM    8  C16 UNL     1      22.261  10.698  23.401  1.00  0.00     0.069 C 
HETATM    9  N2  UNL     1      21.027  10.031  23.380  1.00  0.00    -0.334 N 
ENDROOT
BRANCH   9  10
HETATM   10  C17 UNL     1      19.935  10.709  23.955  1.00  0.00     0.149 C 
BRANCH  10  11
HETATM   11  C18 UNL     1      20.070  12.139  24.231  1.00  0.00     0.200 C 
HETATM   12  O3  UNL     1      19.683  12.974  23.424  1.00  0.00    -0.288 OA
BRANCH  11  13
HETATM   13  C19 UNL     1      20.700  12.680  25.527  1.00  0.00     0.241 C 
BRANCH  13  14
HETATM   14  C20 UNL     1      20.549  14.212  25.492  1.00  0.00     0.048 C 
BRANCH  14  15
HETATM   15  C21 UNL     1      21.901  14.850  25.687  1.00  0.00     0.005 C 
BRANCH  15  16
HETATM   16  C22 UNL     1      22.888  14.329  24.679  1.00  0.00     0.027 C 
BRANCH  16  17
HETATM   17  C23 UNL     1      24.073  13.662  25.319  1.00  0.00     0.229 C 
BRANCH  17  18
HETATM   18  N3  UNL     1      25.079  13.222  24.396  1.00  0.00    -0.079 N 
ATOM     19  H33 UNL     1      24.648  12.889  23.533  1.00  0.00     0.274 HD
ATOM     20  H32 UNL     1      25.602  14.018  24.034  1.00  0.00     0.274 HD
ATOM     21  H31 UNL     1      25.717  12.518  24.769  1.00  0.00     0.274 HD
ENDBRANCH  17  18
ENDBRANCH  16  17
ENDBRANCH  15  16
ENDBRANCH  14  15
ENDBRANCH  13  14
BRANCH  13  22
HETATM   22  N4  UNL     1      20.295  11.995  26.607  1.00  0.00    -0.400 NA
HETATM   23  C24 UNL     1      19.879  11.291  27.729  1.00  0.00     0.322 C 
HETATM   24  O4  UNL     1      19.988  11.695  28.907  1.00  0.00    -0.255 OA
BRANCH  23  25
HETATM   25  C25 UNL     1      19.250   9.942  27.613  1.00  0.00     0.338 C 
HETATM   26  C26 UNL     1      18.801   9.352  28.917  1.00  0.00     0.122 C 
HETATM   27  S1  UNL     1      17.668   8.057  28.244  1.00  0.00    -0.137 SA
HETATM   28  C27 UNL     1      17.756   8.590  26.485  1.00  0.00     0.347 C 
HETATM   29  N5  UNL     1      18.144   9.995  26.714  1.00  0.00     0.108 N 
HETATM   30  C28 UNL     1      16.957  10.572  27.369  1.00  0.00     0.312 C 
ENDBRANCH  23  25
ENDBRANCH  13  22
ENDBRANCH  11  13
ENDBRANCH  10  11
ENDBRANCH   9  10
BRANCH   3  31
HETATM   31  O1  UNL     1      22.909   7.912  22.703  1.00  0.00    -0.363 OA
ATOM     32  H1  UNL     1      23.559   8.597  22.812  1.00  0.00     0.217 HD
ENDBRANCH   3  31
BRANCH   4  33
HETATM   33  C5  UNL     1      23.740   8.128  20.410  1.00  0.00     0.114 C 
BRANCH  33  34
HETATM   34  C6  UNL     1      24.028   7.202  19.339  1.00  0.00     0.218 C 
HETATM   35  O2  UNL     1      24.643   7.449  18.260  1.00  0.00    -0.274 OA
HETATM   36  N1  UNL     1      23.580   5.854  19.476  1.00  0.00    -0.356 N 
ATOM     37  H1  UNL     1      23.085   5.584  20.326  1.00  0.00     0.162 HD
BRANCH  36  38
HETATM   38  C7  UNL     1      23.803   4.853  18.450  1.00  0.00     0.084 C 
HETATM   39  C8  UNL     1      22.591   4.780  17.525  1.00  0.00     0.025 C 
HETATM   40  C9  UNL     1      22.614   3.464  16.798  1.00  0.00     0.002 C 
HETATM   41  C10 UNL     1      22.227   2.368  17.777  1.00  0.00     0.000 C 
HETATM   42  C11 UNL     1      22.829   2.639  19.133  1.00  0.00     0.002 C 
HETATM   43  C12 UNL     1      24.081   3.499  18.998  1.00  0.00     0.025 C 
ENDBRANCH  36  38
ENDBRANCH  33  34
ENDBRANCH   4  33
TORSDOF 14
ENDMDL
MODEL 4
REMARK VINA RESULT: -7.340072295      3.551      6.784
REMARK  14 active torsions:
REMARK  status: ('A' for Active; 'I' for Inactive)
REMARK    1  A    between atoms: C3_3  and  O1_4 
REMARK    2  A    between atoms: C4_6  and  C5_7 
REMARK    3  A    between atoms: C5_7  and  C6_8 
REMARK       I    between atoms: C6_8  and  N1_10 
REMARK    4  A    between atoms: N1_10  and  C7_12 
REMARK    5  A    between atoms: N2_22  and  C17_23 
REMARK    6  A    between atoms: C17_23  and  C18_24 
REMARK    7  A    between atoms: C18_24  and  C19_26 
REMARK    8  A    between atoms: C19_26  and  C20_27 
REMARK    9  A    between atoms: C19_26  and  N4_35 
REMARK   10  A    between atoms: C20_27  and  C21_28 
REMARK   11  A    between atoms: C21_28  and  C22_29 
REMARK   12  A    between atoms: C22_29  and  C23_30 
REMARK   13  A    between atoms: C23_30  and  N3_31 
REMARK       I    between atoms: N4_35  and  C24_36 
REMARK   14  A    between atoms: C24_36  and  C25_38 
ROOT
HETATM    1  C1  UNL     1      15.652   8.096  20.998  1.00  0.00     0.071 C 
HETATM    2  C2  UNL     1      16.898   7.552  21.629  1.00  0.00     0.041 C 
HETATM    3  C3  UNL     1      16.835   7.705  23.084  1.00  0.00     0.070 C 
HETATM    4  C4  UNL     1      15.603   7.380  23.861  1.00  0.00     0.053 C 
HETATM    5  C13 UNL     1      14.855   6.180  23.380  1.00  0.00     0.012 C 
HETATM    6  C14 UNL     1      15.607   4.890  23.357  1.00  0.00     0.006 C 
HETATM    7  C15 UNL     1      16.025   4.595  21.931  1.00  0.00     0.045 C 
HETATM    8  C16 UNL     1      17.424   5.179  21.767  1.00  0.00     0.069 C 
HETATM    9  N2  UNL     1      17.340   6.388  21.059  1.00  0.00    -0.334 N 
ENDROOT
BRANCH   9  10
HETATM   10  C17 UNL     1      17.318   6.296  19.655  1.00  0.00     0.149 C 
BRANCH  10  11
HETATM   11  C18 UNL     1      18.513   6.697  18.912  1.00  0.00     0.200 C 
HETATM   12  O3  UNL     1      18.678   7.860  18.569  1.00  0.00    -0.288 OA
BRANCH  11  13
HETATM   13  C19 UNL     1      19.618   5.702  18.515  1.00  0.00     0.241 C 
BRANCH  13  14
HETATM   14  C20 UNL     1      19.020   4.775  17.440  1.00  0.00     0.048 C 
BRANCH  14  15
HETATM   15  C21 UNL     1      20.023   4.587  16.331  1.00  0.00     0.005 C 
BRANCH  15  16
HETATM   16  C22 UNL     1      20.608   3.202  16.369  1.00  0.00     0.027 C 
BRANCH  16  17
HETATM   17  C23 UNL     1      22.011   3.181  16.907  1.00  0.00     0.229 C 
BRANCH  17  18
HETATM   18  N3  UNL     1      22.963   3.910  16.118  1.00  0.00    -0.079 N 
ATOM     19  H33 UNL     1      22.503   4.343  15.318  1.00  0.00     0.274 HD
ATOM     20  H32 UNL     1      23.272   4.744  16.615  1.00  0.00     0.274 HD
ATOM     21  H31 UNL     1      23.767   3.361  15.811  1.00  0.00     0.274 HD
ENDBRANCH  17  18
ENDBRANCH  16  17
ENDBRANCH  15  16
ENDBRANCH  14  15
ENDBRANCH  13  14
BRANCH  13  22
HETATM   22  N4  UNL     1      20.789   6.316  18.287  1.00  0.00    -0.400 NA
HETATM   23  C24 UNL     1      22.003   6.947  18.047  1.00  0.00     0.322 C 
HETATM   24  O4  UNL     1      22.790   6.653  17.122  1.00  0.00    -0.255 OA
BRANCH  23  25
HETATM   25  C25 UNL     1      22.486   8.062  18.913  1.00  0.00     0.338 C 
HETATM   26  C26 UNL     1      21.791   8.165  20.239  1.00  0.00     0.122 C 
HETATM   27  S1  UNL     1      23.027   9.236  21.101  1.00  0.00    -0.137 SA
HETATM   28  C27 UNL     1      24.301   9.202  19.774  1.00  0.00     0.347 C 
HETATM   29  N5  UNL     1      23.892   7.942  19.125  1.00  0.00     0.108 N 
HETATM   30  C28 UNL     1      24.186   6.923  20.149  1.00  0.00     0.312 C 
ENDBRANCH  23  25
ENDBRANCH  13  22
ENDBRANCH  11  13
ENDBRANCH  10  11
ENDBRANCH   9  10
BRANCH   3  31
HETATM   31  O1  UNL     1      18.016   7.270  23.753  1.00  0.00    -0.363 OA
ATOM     32  H1  UNL     1      17.853   6.925  24.624  1.00  0.00     0.217 HD
ENDBRANCH   3  31
BRANCH   4  33
HETATM   33  C5  UNL     1      16.106   7.099  25.275  1.00  0.00     0.114 C 
BRANCH  33  34
HETATM   34  C6  UNL     1      16.204   8.226  26.175  1.00  0.00     0.218 C 
HETATM   35  O2  UNL     1      15.263   8.766  26.828  1.00  0.00    -0.274 OA
HETATM   36  N1  UNL     1      17.486   8.822  26.369  1.00  0.00    -0.356 N 
ATOM     37  H1  UNL     1      18.290   8.430  25.880  1.00  0.00     0.162 HD
BRANCH  36  38
HETATM   38  C7  UNL     1      17.687   9.967  27.238  1.00  0.00     0.084 C 
HETATM   39  C8  UNL     1      18.817  10.838  26.695  1.00  0.00     0.025 C 
HETATM   40  C9  UNL     1      19.331  11.713  27.804  1.00  0.00     0.002 C 
HETATM   41  C10 UNL     1      20.139  10.851  28.760  1.00  0.00     0.000 C 
HETATM   42  C11 UNL     1      19.486   9.502  28.930  1.00  0.00     0.002 C 
HETATM   43  C12 UNL     1      17.991   9.594  28.644  1.00  0.00     0.025 C 
ENDBRANCH  36  38
ENDBRANCH  33  34
ENDBRANCH   4  33
TORSDOF 14
ENDMDL
MODEL 5
REMARK VINA RESULT: -7.290635986      5.931      9.448
REMARK  14 active torsions:
REMARK  status: ('A' for Active; 'I' for Inactive)
REMARK    1  A    between atoms: C3_3  and  O1_4 
REMARK    2  A    between atoms: C4_6  and  C5_7 
REMARK    3  A    between atoms: C5_7  and  C6_8 
REMARK       I    between atoms: C6_8  and  N1_10 
REMARK    4  A    between atoms: N1_10  and  C7_12 
REMARK    5  A    between atoms: N2_22  and  C17_23 
REMARK    6  A    between atoms: C17_23  and  C18_24 
REMARK    7  A    between atoms: C18_24  and  C19_26 
REMARK    8  A    between atoms: C19_26  and  C20_27 
REMARK    9  A    between atoms: C19_26  and  N4_35 
REMARK   10  A    between atoms: C20_27  and  C21_28 
REMARK   11  A    between atoms: C21_28  and  C22_29 
REMARK   12  A    between atoms: C22_29  and  C23_30 
REMARK   13  A    between atoms: C23_30  and  N3_31 
REMARK       I    between atoms: N4_35  and  C24_36 
REMARK   14  A    between atoms: C24_36  and  C25_38 
ROOT
HETATM    1  C1  UNL     1      24.251  11.291  23.747  1.00  0.00     0.071 C 
HETATM    2  C2  UNL     1      23.152  11.929  22.952  1.00  0.00     0.041 C 
HETATM    3  C3  UNL     1      23.221  11.494  21.556  1.00  0.00     0.070 C 
HETATM    4  C4  UNL     1      23.454  10.068  21.183  1.00  0.00     0.053 C 
HETATM    5  C13 UNL     1      22.772   9.069  22.058  1.00  0.00     0.012 C 
HETATM    6  C14 UNL     1      21.285   9.170  22.152  1.00  0.00     0.006 C 
HETATM    7  C15 UNL     1      20.924   9.838  23.463  1.00  0.00     0.045 C 
HETATM    8  C16 UNL     1      20.802  11.329  23.162  1.00  0.00     0.069 C 
HETATM    9  N2  UNL     1      21.956  11.987  23.616  1.00  0.00    -0.334 N 
ENDROOT
BRANCH   9  10
HETATM   10  C17 UNL     1      21.976  12.359  24.973  1.00  0.00     0.149 C 
BRANCH  10  11
HETATM   11  C18 UNL     1      20.702  12.470  25.684  1.00  0.00     0.200 C 
HETATM   12  O3  UNL     1      19.927  13.386  25.445  1.00  0.00    -0.288 OA
BRANCH  11  13
HETATM   13  C19 UNL     1      20.262  11.465  26.763  1.00  0.00     0.241 C 
BRANCH  13  14
HETATM   14  C20 UNL     1      20.816  11.977  28.105  1.00  0.00     0.048 C 
BRANCH  14  15
HETATM   15  C21 UNL     1      21.672  10.906  28.731  1.00  0.00     0.005 C 
BRANCH  15  16
HETATM   16  C22 UNL     1      23.124  11.121  28.400  1.00  0.00     0.027 C 
BRANCH  16  17
HETATM   17  C23 UNL     1      24.016  10.071  28.999  1.00  0.00     0.229 C 
BRANCH  17  18
HETATM   18  N3  UNL     1      23.738   9.766  30.374  1.00  0.00    -0.079 N 
ATOM     19  H33 UNL     1      23.782  10.613  30.940  1.00  0.00     0.274 HD
ATOM     20  H32 UNL     1      22.754   9.527  30.492  1.00  0.00     0.274 HD
ATOM     21  H31 UNL     1      24.331   9.040  30.775  1.00  0.00     0.274 HD
ENDBRANCH  17  18
ENDBRANCH  16  17
ENDBRANCH  15  16
ENDBRANCH  14  15
ENDBRANCH  13  14
BRANCH  13  22
HETATM   22  N4  UNL     1      18.962  11.149  26.657  1.00  0.00    -0.400 NA
HETATM   23  C24 UNL     1      17.615  10.829  26.549  1.00  0.00     0.322 C 
HETATM   24  O4  UNL     1      16.674  11.570  26.904  1.00  0.00    -0.255 OA
BRANCH  23  25
HETATM   25  C25 UNL     1      17.168   9.520  25.987  1.00  0.00     0.338 C 
HETATM   26  C26 UNL     1      18.251   8.731  25.314  1.00  0.00     0.122 C 
HETATM   27  S1  UNL     1      17.408   7.085  25.299  1.00  0.00    -0.137 SA
HETATM   28  C27 UNL     1      15.958   7.581  26.318  1.00  0.00     0.347 C 
HETATM   29  N5  UNL     1      16.575   8.726  27.014  1.00  0.00     0.108 N 
HETATM   30  C28 UNL     1      17.606   8.094  27.856  1.00  0.00     0.312 C 
ENDBRANCH  23  25
ENDBRANCH  13  22
ENDBRANCH  11  13
ENDBRANCH  10  11
ENDBRANCH   9  10
BRANCH   3  31
HETATM   31  O1  UNL     1      22.247  12.110  20.719  1.00  0.00    -0.363 OA
ATOM     32  H1  UNL     1      22.463  12.074  19.794  1.00  0.00     0.217 HD
ENDBRANCH   3  31
BRANCH   4  33
HETATM   33  C5  UNL     1      22.882   9.944  19.772  1.00  0.00     0.114 C 
BRANCH  33  34
HETATM   34  C6  UNL     1      23.577   9.073  18.852  1.00  0.00     0.218 C 
HETATM   35  O2  UNL     1      24.585   9.361  18.143  1.00  0.00    -0.274 OA
HETATM   36  N1  UNL     1      23.099   7.737  18.699  1.00  0.00    -0.356 N 
ATOM     37  H1  UNL     1      22.295   7.436  19.248  1.00  0.00     0.162 HD
BRANCH  36  38
HETATM   38  C7  UNL     1      23.717   6.792  17.788  1.00  0.00     0.084 C 
HETATM   39  C8  UNL     1      22.641   6.078  16.974  1.00  0.00     0.025 C 
HETATM   40  C9  UNL     1      23.218   4.808  16.413  1.00  0.00     0.002 C 
HETATM   41  C10 UNL     1      23.360   3.804  17.545  1.00  0.00     0.000 C 
HETATM   42  C11 UNL     1      23.808   4.496  18.808  1.00  0.00     0.002 C 
HETATM   43  C12 UNL     1      24.562   5.778  18.474  1.00  0.00     0.025 C 
ENDBRANCH  36  38
ENDBRANCH  33  34
ENDBRANCH   4  33
TORSDOF 14
ENDMDL
