MODEL 1
REMARK VINA RESULT: -8.716754589      0.000      0.000
REMARK  10 active torsions:
REMARK  status: ('A' for Active; 'I' for Inactive)
REMARK    1  A    between atoms: C2_2  and  C3_3 
REMARK    2  A    between atoms: C6_6  and  C7_7 
REMARK    3  A    between atoms: C7_7  and  C8_8 
REMARK    4  A    between atoms: C8_8  and  O1_9 
REMARK    5  A    between atoms: C8_8  and  C9_11 
REMARK    6  A    between atoms: C9_11  and  C10_12 
REMARK    7  A    between atoms: C12_16  and  O4_17 
REMARK    8  A    between atoms: C15_21  and  O5_22 
REMARK    9  A    between atoms: C18_25  and  C19_26 
REMARK   10  A    between atoms: C24_33  and  O8_34 
ROOT
HETATM    1  C8  UNL     1      20.155   3.685  18.208  1.00  0.00     0.138 C 
ENDROOT
BRANCH   1   2
HETATM    2  C7  UNL     1      18.773   4.168  17.955  1.00  0.00     0.038 C 
BRANCH   2   3
HETATM    3  C6  UNL     1      17.951   4.490  19.155  1.00  0.00    -0.005 C 
HETATM    4  C5  UNL     1      17.510   5.928  19.189  1.00  0.00     0.014 C 
HETATM    5  C3  UNL     1      16.899   6.353  20.474  1.00  0.00    -0.038 C 
HETATM    6  C4  UNL     1      17.890   6.471  21.626  1.00  0.00     0.015 C 
HETATM    7  C26 UNL     1      15.786   5.379  20.851  1.00  0.00     0.025 C 
HETATM    8  C24 UNL     1      16.268   4.216  21.643  1.00  0.00     0.126 C 
HETATM    9  C27 UNL     1      14.985   5.039  19.645  1.00  0.00     0.039 C 
HETATM   10  C23 UNL     1      16.780   3.059  20.835  1.00  0.00     0.039 C 
HETATM   11  C22 UNL     1      16.887   3.482  19.363  1.00  0.00     0.020 C 
HETATM   12  C28 UNL     1      15.519   3.817  18.912  1.00  0.00     0.034 C 
HETATM   13  C29 UNL     1      15.337   3.919  17.414  1.00  0.00     0.036 C 
HETATM   14  N1  UNL     1      14.649   2.728  19.253  1.00  0.00    -0.393 N 
HETATM   15  C30 UNL     1      13.963   3.317  17.213  1.00  0.00     0.046 C 
HETATM   16  C31 UNL     1      13.813   2.435  18.378  1.00  0.00     0.056 C 
ATOM     17  H1  UNL     1      14.710   2.233  20.142  1.00  0.00     0.159 HD
BRANCH   5  18
HETATM   18  C2  UNL     1      16.260   7.714  20.314  1.00  0.00     0.005 C 
HETATM   19  C1  UNL     1      15.399   8.112  21.467  1.00  0.00     0.006 C 
ENDBRANCH   5  18
BRANCH   8  20
HETATM   20  O8  UNL     1      15.214   3.718  22.433  1.00  0.00    -0.390 OA
HETATM   21  C25 UNL     1      14.835   4.673  23.374  1.00  0.00     0.202 C 
ENDBRANCH   8  20
ENDBRANCH   2   3
ENDBRANCH   1   2
BRANCH   1  22
HETATM   22  O1  UNL     1      20.186   2.366  17.676  1.00  0.00    -0.394 OA
ATOM     23  H1  UNL     1      20.819   1.901  18.210  1.00  0.00     0.210 HD
ENDBRANCH   1  22
BRANCH   1  24
HETATM   24  C9  UNL     1      21.230   4.411  17.465  1.00  0.00     0.088 C 
HETATM   25  C11 UNL     1      21.428   5.847  17.714  1.00  0.00     0.042 C 
HETATM   26  C12 UNL     1      22.643   6.278  16.903  1.00  0.00     0.136 C 
HETATM   27  C20 UNL     1      22.111   5.980  19.078  1.00  0.00     0.010 C 
HETATM   28  C13 UNL     1      23.763   5.457  17.567  1.00  0.00     0.027 C 
HETATM   29  C14 UNL     1      25.074   6.130  17.633  1.00  0.00     0.022 C 
HETATM   30  C15 UNL     1      23.712   4.039  17.047  1.00  0.00     0.139 C 
HETATM   31  C18 UNL     1      23.159   4.934  18.856  1.00  0.00     0.071 C 
HETATM   32  C17 UNL     1      22.553   3.838  18.000  1.00  0.00     0.058 C 
HETATM   33  C21 UNL     1      21.289   5.942  20.260  1.00  0.00     0.012 C 
BRANCH  24  34
HETATM   34  C10 UNL     1      21.045   4.063  16.031  1.00  0.00     0.185 C 
HETATM   35  O2  UNL     1      21.457   3.006  15.502  1.00  0.00    -0.647 OA
HETATM   36  O3  UNL     1      20.373   4.952  15.181  1.00  0.00    -0.647 OA
ENDBRANCH  24  34
BRANCH  26  37
HETATM   37  O4  UNL     1      22.915   7.628  17.133  1.00  0.00    -0.394 OA
ATOM     38  H4  UNL     1      23.371   7.998  16.387  1.00  0.00     0.210 HD
ENDBRANCH  26  37
BRANCH  30  39
HETATM   39  O5  UNL     1      24.781   3.237  17.343  1.00  0.00    -0.389 OA
HETATM   40  C16 UNL     1      24.380   1.900  17.225  1.00  0.00     0.202 C 
ENDBRANCH  30  39
BRANCH  31  41
HETATM   41  C19 UNL     1      24.037   4.550  19.917  1.00  0.00     0.183 C 
HETATM   42  O6  UNL     1      24.179   3.346  20.243  1.00  0.00    -0.647 OA
HETATM   43  O7  UNL     1      24.774   5.469  20.644  1.00  0.00    -0.647 OA
ENDBRANCH  31  41
ENDBRANCH   1  24
TORSDOF 10
ENDMDL
MODEL 2
REMARK VINA RESULT: -8.284783545      2.304      4.877
REMARK  10 active torsions:
REMARK  status: ('A' for Active; 'I' for Inactive)
REMARK    1  A    between atoms: C2_2  and  C3_3 
REMARK    2  A    between atoms: C6_6  and  C7_7 
REMARK    3  A    between atoms: C7_7  and  C8_8 
REMARK    4  A    between atoms: C8_8  and  O1_9 
REMARK    5  A    between atoms: C8_8  and  C9_11 
REMARK    6  A    between atoms: C9_11  and  C10_12 
REMARK    7  A    between atoms: C12_16  and  O4_17 
REMARK    8  A    between atoms: C15_21  and  O5_22 
REMARK    9  A    between atoms: C18_25  and  C19_26 
REMARK   10  A    between atoms: C24_33  and  O8_34 
ROOT
HETATM    1  C8  UNL     1      19.635   6.951  19.255  1.00  0.00     0.138 C 
ENDROOT
BRANCH   1   2
HETATM    2  C7  UNL     1      18.735   7.506  20.298  1.00  0.00     0.038 C 
BRANCH   2   3
HETATM    3  C6  UNL     1      17.623   6.626  20.754  1.00  0.00    -0.005 C 
HETATM    4  C5  UNL     1      18.041   5.187  20.896  1.00  0.00     0.014 C 
HETATM    5  C3  UNL     1      16.919   4.238  21.112  1.00  0.00    -0.038 C 
HETATM    6  C4  UNL     1      16.042   4.021  19.884  1.00  0.00     0.015 C 
HETATM    7  C26 UNL     1      16.061   4.728  22.276  1.00  0.00     0.025 C 
HETATM    8  C24 UNL     1      14.985   5.665  21.857  1.00  0.00     0.126 C 
HETATM    9  C27 UNL     1      16.935   5.214  23.377  1.00  0.00     0.039 C 
HETATM   10  C23 UNL     1      15.390   7.107  21.767  1.00  0.00     0.039 C 
HETATM   11  C22 UNL     1      16.915   7.211  21.915  1.00  0.00     0.020 C 
HETATM   12  C28 UNL     1      17.252   6.699  23.262  1.00  0.00     0.034 C 
HETATM   13  C29 UNL     1      18.643   7.029  23.752  1.00  0.00     0.036 C 
HETATM   14  N1  UNL     1      16.421   7.366  24.222  1.00  0.00    -0.393 N 
HETATM   15  C30 UNL     1      18.412   7.294  25.225  1.00  0.00     0.046 C 
HETATM   16  C31 UNL     1      17.001   7.696  25.273  1.00  0.00     0.056 C 
ATOM     17  H1  UNL     1      15.432   7.554  24.058  1.00  0.00     0.159 HD
BRANCH   5  18
HETATM   18  C2  UNL     1      17.460   2.882  21.502  1.00  0.00     0.005 C 
HETATM   19  C1  UNL     1      18.941   2.760  21.349  1.00  0.00     0.006 C 
ENDBRANCH   5  18
BRANCH   8  20
HETATM   20  O8  UNL     1      13.924   5.604  22.782  1.00  0.00    -0.390 OA
HETATM   21  C25 UNL     1      13.169   4.454  22.562  1.00  0.00     0.202 C 
ENDBRANCH   8  20
ENDBRANCH   2   3
ENDBRANCH   1   2
BRANCH   1  22
HETATM   22  O1  UNL     1      19.631   7.918  18.213  1.00  0.00    -0.394 OA
ATOM     23  H1  UNL     1      20.547   8.057  18.004  1.00  0.00     0.210 HD
ENDBRANCH   1  22
BRANCH   1  24
HETATM   24  C9  UNL     1      21.072   6.835  19.651  1.00  0.00     0.088 C 
HETATM   25  C11 UNL     1      21.609   5.518  20.022  1.00  0.00     0.042 C 
HETATM   26  C12 UNL     1      23.101   5.697  20.270  1.00  0.00     0.136 C 
HETATM   27  C20 UNL     1      21.773   4.714  18.729  1.00  0.00     0.010 C 
HETATM   28  C13 UNL     1      23.598   6.105  18.872  1.00  0.00     0.027 C 
HETATM   29  C14 UNL     1      24.942   5.610  18.519  1.00  0.00     0.022 C 
HETATM   30  C15 UNL     1      23.292   7.568  18.646  1.00  0.00     0.139 C 
HETATM   31  C18 UNL     1      22.448   5.788  17.935  1.00  0.00     0.071 C 
HETATM   32  C17 UNL     1      21.871   7.123  18.368  1.00  0.00     0.058 C 
HETATM   33  C21 UNL     1      20.620   4.035  18.196  1.00  0.00     0.012 C 
BRANCH  24  34
HETATM   34  C10 UNL     1      21.305   7.895  20.667  1.00  0.00     0.185 C 
HETATM   35  O2  UNL     1      21.207   9.123  20.443  1.00  0.00    -0.647 OA
HETATM   36  O3  UNL     1      21.659   7.537  21.975  1.00  0.00    -0.647 OA
ENDBRANCH  24  34
BRANCH  26  37
HETATM   37  O4  UNL     1      23.683   4.467  20.583  1.00  0.00    -0.394 OA
ATOM     38  H4  UNL     1      23.925   4.011  19.786  1.00  0.00     0.210 HD
ENDBRANCH  26  37
BRANCH  30  39
HETATM   39  O5  UNL     1      23.879   8.158  17.559  1.00  0.00    -0.389 OA
HETATM   40  C16 UNL     1      24.442   9.375  17.964  1.00  0.00     0.202 C 
ENDBRANCH  30  39
BRANCH  31  41
HETATM   41  C19 UNL     1      22.729   5.597  16.547  1.00  0.00     0.183 C 
HETATM   42  O6  UNL     1      22.238   6.351  15.671  1.00  0.00    -0.647 OA
HETATM   43  O7  UNL     1      23.546   4.581  16.085  1.00  0.00    -0.647 OA
ENDBRANCH  31  41
ENDBRANCH   1  24
TORSDOF 10
ENDMDL
MODEL 3
REMARK VINA RESULT: -8.257633977      1.294      2.300
REMARK  10 active torsions:
REMARK  status: ('A' for Active; 'I' for Inactive)
REMARK    1  A    between atoms: C2_2  and  C3_3 
REMARK    2  A    between atoms: C6_6  and  C7_7 
REMARK    3  A    between atoms: C7_7  and  C8_8 
REMARK    4  A    between atoms: C8_8  and  O1_9 
REMARK    5  A    between atoms: C8_8  and  C9_11 
REMARK    6  A    between atoms: C9_11  and  C10_12 
REMARK    7  A    between atoms: C12_16  and  O4_17 
REMARK    8  A    between atoms: C15_21  and  O5_22 
REMARK    9  A    between atoms: C18_25  and  C19_26 
REMARK   10  A    between atoms: C24_33  and  O8_34 
ROOT
HETATM    1  C8  UNL     1      20.305   3.869  18.365  1.00  0.00     0.138 C 
ENDROOT
BRANCH   1   2
HETATM    2  C7  UNL     1      18.908   4.119  17.924  1.00  0.00     0.038 C 
BRANCH   2   3
HETATM    3  C6  UNL     1      17.926   4.465  18.990  1.00  0.00    -0.005 C 
HETATM    4  C5  UNL     1      16.500   4.384  18.516  1.00  0.00     0.014 C 
HETATM    5  C3  UNL     1      15.505   4.951  19.462  1.00  0.00    -0.038 C 
HETATM    6  C4  UNL     1      15.542   6.470  19.571  1.00  0.00     0.015 C 
HETATM    7  C26 UNL     1      15.711   4.331  20.841  1.00  0.00     0.025 C 
HETATM    8  C24 UNL     1      16.694   5.071  21.676  1.00  0.00     0.126 C 
HETATM    9  C27 UNL     1      15.962   2.871  20.706  1.00  0.00     0.039 C 
HETATM   10  C23 UNL     1      18.130   4.683  21.470  1.00  0.00     0.039 C 
HETATM   11  C22 UNL     1      18.230   3.754  20.252  1.00  0.00     0.020 C 
HETATM   12  C28 UNL     1      17.443   2.542  20.570  1.00  0.00     0.034 C 
HETATM   13  C29 UNL     1      17.687   1.355  19.666  1.00  0.00     0.036 C 
HETATM   14  N1  UNL     1      17.866   2.047  21.848  1.00  0.00    -0.393 N 
HETATM   15  C30 UNL     1      17.619   0.193  20.634  1.00  0.00     0.046 C 
HETATM   16  C31 UNL     1      17.971   0.808  21.919  1.00  0.00     0.056 C 
ATOM     17  H1  UNL     1      18.066   2.661  22.637  1.00  0.00     0.159 HD
BRANCH   5  18
HETATM   18  C2  UNL     1      14.108   4.584  19.017  1.00  0.00     0.005 C 
HETATM   19  C1  UNL     1      13.846   4.858  17.572  1.00  0.00     0.006 C 
ENDBRANCH   5  18
BRANCH   8  20
HETATM   20  O8  UNL     1      16.411   4.854  23.038  1.00  0.00    -0.390 OA
HETATM   21  C25 UNL     1      17.526   5.173  23.811  1.00  0.00     0.202 C 
ENDBRANCH   8  20
ENDBRANCH   2   3
ENDBRANCH   1   2
BRANCH   1  22
HETATM   22  O1  UNL     1      20.540   2.496  18.081  1.00  0.00    -0.394 OA
ATOM     23  H1  UNL     1      21.348   2.484  17.582  1.00  0.00     0.210 HD
ENDBRANCH   1  22
BRANCH   1  24
HETATM   24  C9  UNL     1      21.355   4.596  17.588  1.00  0.00     0.088 C 
HETATM   25  C11 UNL     1      21.571   6.029  17.841  1.00  0.00     0.042 C 
HETATM   26  C12 UNL     1      22.758   6.459  16.989  1.00  0.00     0.136 C 
HETATM   27  C20 UNL     1      22.303   6.148  19.180  1.00  0.00     0.010 C 
HETATM   28  C13 UNL     1      23.897   5.628  17.607  1.00  0.00     0.027 C 
HETATM   29  C14 UNL     1      25.213   6.294  17.630  1.00  0.00     0.022 C 
HETATM   30  C15 UNL     1      23.819   4.214  17.079  1.00  0.00     0.139 C 
HETATM   31  C18 UNL     1      23.337   5.099  18.913  1.00  0.00     0.071 C 
HETATM   32  C17 UNL     1      22.695   4.012  18.072  1.00  0.00     0.058 C 
HETATM   33  C21 UNL     1      21.524   6.106  20.391  1.00  0.00     0.012 C 
BRANCH  24  34
HETATM   34  C10 UNL     1      21.118   4.259  16.160  1.00  0.00     0.185 C 
HETATM   35  O2  UNL     1      21.432   3.170  15.629  1.00  0.00    -0.647 OA
HETATM   36  O3  UNL     1      20.505   5.197  15.318  1.00  0.00    -0.647 OA
ENDBRANCH  24  34
BRANCH  26  37
HETATM   37  O4  UNL     1      23.045   7.806  17.219  1.00  0.00    -0.394 OA
ATOM     38  H4  UNL     1      23.783   7.883  17.812  1.00  0.00     0.210 HD
ENDBRANCH  26  37
BRANCH  30  39
HETATM   39  O5  UNL     1      24.894   3.404  17.331  1.00  0.00    -0.389 OA
HETATM   40  C16 UNL     1      24.497   2.072  17.157  1.00  0.00     0.202 C 
ENDBRANCH  30  39
BRANCH  31  41
HETATM   41  C19 UNL     1      24.250   4.703  19.939  1.00  0.00     0.183 C 
HETATM   42  O6  UNL     1      24.903   5.551  20.596  1.00  0.00    -0.647 OA
HETATM   43  O7  UNL     1      24.472   3.377  20.267  1.00  0.00    -0.647 OA
ENDBRANCH  31  41
ENDBRANCH   1  24
TORSDOF 10
ENDMDL
MODEL 4
REMARK VINA RESULT: -8.184076253      0.822      1.019
REMARK  10 active torsions:
REMARK  status: ('A' for Active; 'I' for Inactive)
REMARK    1  A    between atoms: C2_2  and  C3_3 
REMARK    2  A    between atoms: C6_6  and  C7_7 
REMARK    3  A    between atoms: C7_7  and  C8_8 
REMARK    4  A    between atoms: C8_8  and  O1_9 
REMARK    5  A    between atoms: C8_8  and  C9_11 
REMARK    6  A    between atoms: C9_11  and  C10_12 
REMARK    7  A    between atoms: C12_16  and  O4_17 
REMARK    8  A    between atoms: C15_21  and  O5_22 
REMARK    9  A    between atoms: C18_25  and  C19_26 
REMARK   10  A    between atoms: C24_33  and  O8_34 
ROOT
HETATM    1  C8  UNL     1      20.089   4.399  19.046  1.00  0.00     0.138 C 
ENDROOT
BRANCH   1   2
HETATM    2  C7  UNL     1      18.675   4.788  18.805  1.00  0.00     0.038 C 
BRANCH   2   3
HETATM    3  C6  UNL     1      17.739   4.635  19.954  1.00  0.00    -0.005 C 
HETATM    4  C5  UNL     1      17.172   5.949  20.421  1.00  0.00     0.014 C 
HETATM    5  C3  UNL     1      16.430   5.877  21.705  1.00  0.00    -0.038 C 
HETATM    6  C4  UNL     1      17.315   5.651  22.925  1.00  0.00     0.015 C 
HETATM    7  C26 UNL     1      15.380   4.772  21.620  1.00  0.00     0.025 C 
HETATM    8  C24 UNL     1      15.899   3.438  22.023  1.00  0.00     0.126 C 
HETATM    9  C27 UNL     1      14.707   4.818  20.295  1.00  0.00     0.039 C 
HETATM   10  C23 UNL     1      16.571   2.655  20.932  1.00  0.00     0.039 C 
HETATM   11  C22 UNL     1      16.754   3.559  19.705  1.00  0.00     0.020 C 
HETATM   12  C28 UNL     1      15.400   3.950  19.254  1.00  0.00     0.034 C 
HETATM   13  C29 UNL     1      15.325   4.545  17.866  1.00  0.00     0.036 C 
HETATM   14  N1  UNL     1      14.604   2.763  19.122  1.00  0.00    -0.393 N 
HETATM   15  C30 UNL     1      14.028   3.971  17.337  1.00  0.00     0.046 C 
HETATM   16  C31 UNL     1      13.867   2.739  18.119  1.00  0.00     0.056 C 
ATOM     17  H1  UNL     1      14.640   1.999  19.796  1.00  0.00     0.159 HD
BRANCH   5  18
HETATM   18  C2  UNL     1      15.689   7.172  21.944  1.00  0.00     0.005 C 
HETATM   19  C1  UNL     1      15.797   8.143  20.814  1.00  0.00     0.006 C 
ENDBRANCH   5  18
BRANCH   8  20
HETATM   20  O8  UNL     1      14.835   2.642  22.490  1.00  0.00    -0.390 OA
HETATM   21  C25 UNL     1      14.291   3.207  23.641  1.00  0.00     0.202 C 
ENDBRANCH   8  20
ENDBRANCH   2   3
ENDBRANCH   1   2
BRANCH   1  22
HETATM   22  O1  UNL     1      20.135   3.002  18.786  1.00  0.00    -0.394 OA
ATOM     23  H1  UNL     1      20.970   2.861  18.355  1.00  0.00     0.210 HD
ENDBRANCH   1  22
BRANCH   1  24
HETATM   24  C9  UNL     1      21.082   4.989  18.097  1.00  0.00     0.088 C 
HETATM   25  C11 UNL     1      21.480   6.395  18.258  1.00  0.00     0.042 C 
HETATM   26  C12 UNL     1      22.564   6.674  17.226  1.00  0.00     0.136 C 
HETATM   27  C20 UNL     1      22.412   6.467  19.471  1.00  0.00     0.010 C 
HETATM   28  C13 UNL     1      23.691   5.739  17.704  1.00  0.00     0.027 C 
HETATM   29  C14 UNL     1      25.057   6.259  17.508  1.00  0.00     0.022 C 
HETATM   30  C15 UNL     1      23.388   4.330  17.249  1.00  0.00     0.139 C 
HETATM   31  C18 UNL     1      23.280   5.305  19.098  1.00  0.00     0.071 C 
HETATM   32  C17 UNL     1      22.410   4.275  18.402  1.00  0.00     0.058 C 
HETATM   33  C21 UNL     1      21.822   6.538  20.783  1.00  0.00     0.012 C 
BRANCH  24  34
HETATM   34  C10 UNL     1      20.599   4.646  16.733  1.00  0.00     0.185 C 
HETATM   35  O2  UNL     1      20.738   3.524  16.196  1.00  0.00    -0.647 OA
HETATM   36  O3  UNL     1      19.943   5.617  15.964  1.00  0.00    -0.647 OA
ENDBRANCH  24  34
BRANCH  26  37
HETATM   37  O4  UNL     1      23.021   7.987  17.359  1.00  0.00    -0.394 OA
ATOM     38  H4  UNL     1      22.957   8.437  16.525  1.00  0.00     0.210 HD
ENDBRANCH  26  37
BRANCH  30  39
HETATM   39  O5  UNL     1      24.399   3.414  17.373  1.00  0.00    -0.389 OA
HETATM   40  C16 UNL     1      23.869   2.136  17.156  1.00  0.00     0.202 C 
ENDBRANCH  30  39
BRANCH  31  41
HETATM   41  C19 UNL     1      24.290   4.837  19.994  1.00  0.00     0.183 C 
HETATM   42  O6  UNL     1      25.061   5.633  20.584  1.00  0.00    -0.647 OA
HETATM   43  O7  UNL     1      24.482   3.493  20.262  1.00  0.00    -0.647 OA
ENDBRANCH  31  41
ENDBRANCH   1  24
TORSDOF 10
ENDMDL
MODEL 5
REMARK VINA RESULT: -8.114403582      1.411      2.088
REMARK  10 active torsions:
REMARK  status: ('A' for Active; 'I' for Inactive)
REMARK    1  A    between atoms: C2_2  and  C3_3 
REMARK    2  A    between atoms: C6_6  and  C7_7 
REMARK    3  A    between atoms: C7_7  and  C8_8 
REMARK    4  A    between atoms: C8_8  and  O1_9 
REMARK    5  A    between atoms: C8_8  and  C9_11 
REMARK    6  A    between atoms: C9_11  and  C10_12 
REMARK    7  A    between atoms: C12_16  and  O4_17 
REMARK    8  A    between atoms: C15_21  and  O5_22 
REMARK    9  A    between atoms: C18_25  and  C19_26 
REMARK   10  A    between atoms: C24_33  and  O8_34 
ROOT
HETATM    1  C8  UNL     1      19.566   4.376  17.531  1.00  0.00     0.138 C 
ENDROOT
BRANCH   1   2
HETATM    2  C7  UNL     1      18.136   4.747  17.682  1.00  0.00     0.038 C 
BRANCH   2   3
HETATM    3  C6  UNL     1      17.530   4.527  19.025  1.00  0.00    -0.005 C 
HETATM    4  C5  UNL     1      17.056   5.803  19.666  1.00  0.00     0.014 C 
HETATM    5  C3  UNL     1      16.669   5.668  21.094  1.00  0.00    -0.038 C 
HETATM    6  C4  UNL     1      17.844   5.451  22.039  1.00  0.00     0.015 C 
HETATM    7  C26 UNL     1      15.673   4.521  21.240  1.00  0.00     0.025 C 
HETATM    8  C24 UNL     1      16.324   3.201  21.452  1.00  0.00     0.126 C 
HETATM    9  C27 UNL     1      14.681   4.570  20.133  1.00  0.00     0.039 C 
HETATM   10  C23 UNL     1      16.723   2.475  20.200  1.00  0.00     0.039 C 
HETATM   11  C22 UNL     1      16.553   3.415  18.998  1.00  0.00     0.020 C 
HETATM   12  C28 UNL     1      15.116   3.758  18.920  1.00  0.00     0.034 C 
HETATM   13  C29 UNL     1      14.668   4.383  17.619  1.00  0.00     0.036 C 
HETATM   14  N1  UNL     1      14.356   2.542  18.954  1.00  0.00    -0.393 N 
HETATM   15  C30 UNL     1      13.300   3.766  17.418  1.00  0.00     0.046 C 
HETATM   16  C31 UNL     1      13.388   2.510  18.172  1.00  0.00     0.056 C 
ATOM     17  H1  UNL     1      14.590   1.764  19.571  1.00  0.00     0.159 HD
BRANCH   5  18
HETATM   18  C2  UNL     1      15.968   6.924  21.558  1.00  0.00     0.005 C 
HETATM   19  C1  UNL     1      15.873   7.981  20.507  1.00  0.00     0.006 C 
ENDBRANCH   5  18
BRANCH   8  20
HETATM   20  O8  UNL     1      15.444   2.349  22.147  1.00  0.00    -0.390 OA
HETATM   21  C25 UNL     1      15.799   1.020  21.927  1.00  0.00     0.202 C 
ENDBRANCH   8  20
ENDBRANCH   2   3
ENDBRANCH   1   2
BRANCH   1  22
HETATM   22  O1  UNL     1      19.811   4.420  16.131  1.00  0.00    -0.394 OA
ATOM     23  H1  UNL     1      19.893   5.344  15.925  1.00  0.00     0.210 HD
ENDBRANCH   1  22
BRANCH   1  24
HETATM   24  C9  UNL     1      20.541   5.350  18.111  1.00  0.00     0.088 C 
HETATM   25  C11 UNL     1      20.604   5.519  19.570  1.00  0.00     0.042 C 
HETATM   26  C12 UNL     1      21.745   6.484  19.860  1.00  0.00     0.136 C 
HETATM   27  C20 UNL     1      21.309   4.285  20.140  1.00  0.00     0.010 C 
HETATM   28  C13 UNL     1      22.961   5.682  19.360  1.00  0.00     0.027 C 
HETATM   29  C14 UNL     1      24.199   5.879  20.136  1.00  0.00     0.022 C 
HETATM   30  C15 UNL     1      23.035   5.786  17.854  1.00  0.00     0.139 C 
HETATM   31  C18 UNL     1      22.449   4.267  19.169  1.00  0.00     0.071 C 
HETATM   32  C17 UNL     1      21.930   4.751  17.828  1.00  0.00     0.058 C 
HETATM   33  C21 UNL     1      20.530   3.095  20.364  1.00  0.00     0.012 C 
BRANCH  24  34
HETATM   34  C10 UNL     1      20.350   6.619  17.359  1.00  0.00     0.185 C 
HETATM   35  O2  UNL     1      20.903   6.883  16.267  1.00  0.00    -0.647 OA
HETATM   36  O3  UNL     1      19.505   7.611  17.875  1.00  0.00    -0.647 OA
ENDBRANCH  24  34
BRANCH  26  37
HETATM   37  O4  UNL     1      21.888   6.652  21.239  1.00  0.00    -0.394 OA
ATOM     38  H4  UNL     1      22.367   7.452  21.419  1.00  0.00     0.210 HD
ENDBRANCH  26  37
BRANCH  30  39
HETATM   39  O5  UNL     1      24.187   5.339  17.263  1.00  0.00    -0.389 OA
HETATM   40  C16 UNL     1      23.889   4.942  15.953  1.00  0.00     0.202 C 
ENDBRANCH  30  39
BRANCH  31  41
HETATM   41  C19 UNL     1      23.391   3.192  19.177  1.00  0.00     0.183 C 
HETATM   42  O6  UNL     1      23.365   2.295  18.298  1.00  0.00    -0.647 OA
HETATM   43  O7  UNL     1      24.377   3.072  20.140  1.00  0.00    -0.647 OA
ENDBRANCH  31  41
ENDBRANCH   1  24
TORSDOF 10
ENDMDL
