MODEL 1
REMARK VINA RESULT: -7.255550505      0.000      0.000
REMARK  8 active torsions:
REMARK  status: ('A' for Active; 'I' for Inactive)
REMARK    1  A    between atoms: C2_2  and  C3_3 
REMARK    2  A    between atoms: C13_13  and  C14_14 
REMARK    3  A    between atoms: C16_18  and  C18_20 
REMARK    4  A    between atoms: C20_23  and  C21_24 
REMARK    5  A    between atoms: C25_30  and  O5_31 
REMARK    6  A    between atoms: C26_33  and  C27_34 
REMARK    7  A    between atoms: C27_34  and  O6_35 
REMARK    8  A    between atoms: C29_38  and  O7_39 
ROOT
HETATM    1  C3  UNL     1      21.872   5.722  16.985  1.00  0.00    -0.026 C 
HETATM    2  C4  UNL     1      21.260   6.922  16.176  1.00  0.00     0.019 C 
HETATM    3  C5  UNL     1      22.969   6.313  17.680  1.00  0.00     0.016 C 
HETATM    4  C6  UNL     1      22.810   7.179  18.954  1.00  0.00     0.037 C 
HETATM    5  C7  UNL     1      21.806   6.444  19.636  1.00  0.00     0.147 C 
HETATM    6  C8  UNL     1      21.092   6.540  20.889  1.00  0.00     0.009 C 
HETATM    7  C9  UNL     1      20.038   5.746  21.233  1.00  0.00    -0.065 A 
HETATM    8  C10 UNL     1      18.874   4.989  21.811  1.00  0.00     0.030 A 
HETATM    9  C11 UNL     1      17.474   5.324  21.770  1.00  0.00     0.018 C 
HETATM   10  C12 UNL     1      16.800   4.524  20.659  1.00  0.00     0.038 C 
HETATM   11  C13 UNL     1      17.217   3.158  20.394  1.00  0.00     0.082 C 
HETATM   12  C15 UNL     1      16.017   2.427  19.739  1.00  0.00     0.043 C 
HETATM   13  C16 UNL     1      15.371   3.111  18.609  1.00  0.00     0.007 C 
HETATM   14  C17 UNL     1      15.293   2.181  17.380  1.00  0.00     0.027 C 
HETATM   15  S1  UNL     1      16.215   4.604  18.055  1.00  0.00    -0.137 SA
HETATM   16  C20 UNL     1      17.081   5.318  19.416  1.00  0.00     0.107 C 
HETATM   17  C22 UNL     1      18.561   5.384  19.335  1.00  0.00     0.043 A 
HETATM   18  C23 UNL     1      19.277   4.829  20.496  1.00  0.00     0.009 A 
HETATM   19  C24 UNL     1      19.313   4.156  19.316  1.00  0.00     0.021 A 
HETATM   20  C25 UNL     1      18.430   2.915  19.555  1.00  0.00     0.148 C 
HETATM   21  C26 UNL     1      20.599   3.982  18.500  1.00  0.00     0.043 C 
HETATM   22  C28 UNL     1      20.767   4.875  17.321  1.00  0.00     0.030 C 
HETATM   23  C29 UNL     1      21.711   4.053  19.512  1.00  0.00     0.271 C 
HETATM   24  O8  UNL     1      22.331   5.201  19.637  1.00  0.00    -0.351 OA
ENDROOT
BRANCH   1  25
HETATM   25  C2  UNL     1      22.589   5.055  15.796  1.00  0.00    -0.028 C 
HETATM   26  C1  UNL     1      23.719   4.438  15.837  1.00  0.00     0.007 C 
ENDBRANCH   1  25
BRANCH  21  27
HETATM   27  C27 UNL     1      20.669   2.569  17.933  1.00  0.00     0.179 C 
BRANCH  27  28
HETATM   28  O6  UNL     1      20.321   2.577  16.556  1.00  0.00    -0.400 OA
ATOM     29  H6  UNL     1      21.105   2.566  16.020  1.00  0.00     0.209 HD
ENDBRANCH  27  28
ENDBRANCH  21  27
BRANCH  23  30
HETATM   30  O7  UNL     1      22.738   3.115  19.231  1.00  0.00    -0.365 OA
HETATM   31  C30 UNL     1      23.926   3.555  19.750  1.00  0.00     0.204 C 
ENDBRANCH  23  30
BRANCH  20  32
HETATM   32  O5  UNL     1      18.136   2.166  18.485  1.00  0.00    -0.393 OA
ATOM     33  H5  UNL     1      17.509   2.604  17.922  1.00  0.00     0.210 HD
ENDBRANCH  20  32
BRANCH  16  34
HETATM   34  C21 UNL     1      16.505   6.696  19.639  1.00  0.00     0.193 C 
HETATM   35  O3  UNL     1      15.286   6.788  19.911  1.00  0.00    -0.647 OA
HETATM   36  O4  UNL     1      17.261   7.836  19.555  1.00  0.00    -0.647 OA
ENDBRANCH  16  34
BRANCH  11  37
HETATM   37  C14 UNL     1      17.300   2.424  21.691  1.00  0.00     0.185 C 
HETATM   38  O1  UNL     1      16.340   2.449  22.474  1.00  0.00    -0.647 OA
HETATM   39  O2  UNL     1      18.459   1.737  21.978  1.00  0.00    -0.647 OA
ENDBRANCH  11  37
BRANCH  13  40
HETATM   40  C18 UNL     1      13.887   3.389  18.906  1.00  0.00     0.016 C 
HETATM   41  C19 UNL     1      13.314   4.373  17.929  1.00  0.00     0.006 C 
ENDBRANCH  13  40
TORSDOF 8
ENDMDL
MODEL 2
REMARK VINA RESULT: -7.242454543      3.389      6.555
REMARK  8 active torsions:
REMARK  status: ('A' for Active; 'I' for Inactive)
REMARK    1  A    between atoms: C2_2  and  C3_3 
REMARK    2  A    between atoms: C13_13  and  C14_14 
REMARK    3  A    between atoms: C16_18  and  C18_20 
REMARK    4  A    between atoms: C20_23  and  C21_24 
REMARK    5  A    between atoms: C25_30  and  O5_31 
REMARK    6  A    between atoms: C26_33  and  C27_34 
REMARK    7  A    between atoms: C27_34  and  O6_35 
REMARK    8  A    between atoms: C29_38  and  O7_39 
ROOT
HETATM    1  C3  UNL     1      21.259   0.752  18.623  1.00  0.00    -0.026 C 
HETATM    2  C4  UNL     1      19.783   0.732  19.161  1.00  0.00     0.019 C 
HETATM    3  C5  UNL     1      21.174   0.039  17.389  1.00  0.00     0.016 C 
HETATM    4  C6  UNL     1      20.616   0.652  16.081  1.00  0.00     0.037 C 
HETATM    5  C7  UNL     1      21.179   1.952  16.151  1.00  0.00     0.147 C 
HETATM    6  C8  UNL     1      21.180   3.149  15.341  1.00  0.00     0.009 C 
HETATM    7  C9  UNL     1      21.706   4.342  15.739  1.00  0.00    -0.065 A 
HETATM    8  C10 UNL     1      22.222   5.737  15.970  1.00  0.00     0.030 A 
HETATM    9  C11 UNL     1      21.509   6.888  16.460  1.00  0.00     0.018 C 
HETATM   10  C12 UNL     1      21.812   7.069  17.945  1.00  0.00     0.038 C 
HETATM   11  C13 UNL     1      23.140   6.777  18.456  1.00  0.00     0.082 C 
HETATM   12  C15 UNL     1      23.336   7.619  19.743  1.00  0.00     0.043 C 
HETATM   13  C16 UNL     1      22.258   7.551  20.740  1.00  0.00     0.007 C 
HETATM   14  C17 UNL     1      22.819   7.176  22.127  1.00  0.00     0.027 C 
HETATM   15  S1  UNL     1      20.973   6.342  20.374  1.00  0.00    -0.137 SA
HETATM   16  C20 UNL     1      20.862   6.125  18.626  1.00  0.00     0.107 C 
HETATM   17  C22 UNL     1      21.194   4.788  18.073  1.00  0.00     0.043 A 
HETATM   18  C23 UNL     1      22.179   4.791  16.979  1.00  0.00     0.009 A 
HETATM   19  C24 UNL     1      22.545   4.301  18.193  1.00  0.00     0.021 A 
HETATM   20  C25 UNL     1      23.511   5.361  18.760  1.00  0.00     0.148 C 
HETATM   21  C26 UNL     1      22.876   2.823  18.425  1.00  0.00     0.043 C 
HETATM   22  C28 UNL     1      21.818   1.994  19.065  1.00  0.00     0.030 C 
HETATM   23  C29 UNL     1      23.353   2.321  17.089  1.00  0.00     0.271 C 
HETATM   24  O8  UNL     1      22.484   1.674  16.350  1.00  0.00    -0.351 OA
ENDROOT
BRANCH   1  25
HETATM   25  C2  UNL     1      21.806  -0.336  19.566  1.00  0.00    -0.028 C 
HETATM   26  C1  UNL     1      21.469  -1.579  19.571  1.00  0.00     0.007 C 
ENDBRANCH   1  25
BRANCH  21  27
HETATM   27  C27 UNL     1      24.082   2.698  19.349  1.00  0.00     0.179 C 
BRANCH  27  28
HETATM   28  O6  UNL     1      23.655   2.584  20.698  1.00  0.00    -0.400 OA
ATOM     29  H6  UNL     1      23.222   1.750  20.835  1.00  0.00     0.209 HD
ENDBRANCH  27  28
ENDBRANCH  21  27
BRANCH  23  30
HETATM   30  O7  UNL     1      24.449   1.429  17.224  1.00  0.00    -0.365 OA
HETATM   31  C30 UNL     1      25.543   1.934  16.573  1.00  0.00     0.204 C 
ENDBRANCH  23  30
BRANCH  20  32
HETATM   32  O5  UNL     1      23.880   5.221  20.038  1.00  0.00    -0.393 OA
ATOM     33  H5  UNL     1      24.261   4.365  20.194  1.00  0.00     0.210 HD
ENDBRANCH  20  32
BRANCH  16  34
HETATM   34  C21 UNL     1      19.469   6.533  18.213  1.00  0.00     0.193 C 
HETATM   35  O3  UNL     1      18.735   5.668  17.682  1.00  0.00    -0.647 OA
HETATM   36  O4  UNL     1      18.984   7.802  18.397  1.00  0.00    -0.647 OA
ENDBRANCH  16  34
BRANCH  11  37
HETATM   37  C14 UNL     1      24.147   7.419  17.561  1.00  0.00     0.185 C 
HETATM   38  O1  UNL     1      24.093   8.640  17.352  1.00  0.00    -0.647 OA
HETATM   39  O2  UNL     1      25.113   6.622  16.987  1.00  0.00    -0.647 OA
ENDBRANCH  11  37
BRANCH  13  40
HETATM   40  C18 UNL     1      21.654   8.944  20.995  1.00  0.00     0.016 C 
HETATM   41  C19 UNL     1      22.722   9.997  21.042  1.00  0.00     0.006 C 
ENDBRANCH  13  40
TORSDOF 8
ENDMDL
MODEL 3
REMARK VINA RESULT: -7.191209970      2.056      6.556
REMARK  8 active torsions:
REMARK  status: ('A' for Active; 'I' for Inactive)
REMARK    1  A    between atoms: C2_2  and  C3_3 
REMARK    2  A    between atoms: C13_13  and  C14_14 
REMARK    3  A    between atoms: C16_18  and  C18_20 
REMARK    4  A    between atoms: C20_23  and  C21_24 
REMARK    5  A    between atoms: C25_30  and  O5_31 
REMARK    6  A    between atoms: C26_33  and  C27_34 
REMARK    7  A    between atoms: C27_34  and  O6_35 
REMARK    8  A    between atoms: C29_38  and  O7_39 
ROOT
HETATM    1  C3  UNL     1      17.181   4.240  21.754  1.00  0.00    -0.026 C 
HETATM    2  C4  UNL     1      17.944   4.109  23.121  1.00  0.00     0.019 C 
HETATM    3  C5  UNL     1      16.389   5.415  21.925  1.00  0.00     0.016 C 
HETATM    4  C6  UNL     1      16.955   6.853  21.825  1.00  0.00     0.037 C 
HETATM    5  C7  UNL     1      17.833   6.702  20.721  1.00  0.00     0.147 C 
HETATM    6  C8  UNL     1      18.733   7.542  19.962  1.00  0.00     0.009 C 
HETATM    7  C9  UNL     1      19.591   7.080  19.009  1.00  0.00    -0.065 A 
HETATM    8  C10 UNL     1      20.601   6.791  17.932  1.00  0.00     0.030 A 
HETATM    9  C11 UNL     1      22.017   6.563  18.065  1.00  0.00     0.018 C 
HETATM   10  C12 UNL     1      22.288   5.062  18.026  1.00  0.00     0.038 C 
HETATM   11  C13 UNL     1      21.504   4.206  17.152  1.00  0.00     0.082 C 
HETATM   12  C15 UNL     1      22.365   2.956  16.835  1.00  0.00     0.043 C 
HETATM   13  C16 UNL     1      22.981   2.276  17.984  1.00  0.00     0.007 C 
HETATM   14  C17 UNL     1      22.632   0.773  17.980  1.00  0.00     0.027 C 
HETATM   15  S1  UNL     1      22.467   2.906  19.592  1.00  0.00    -0.137 SA
HETATM   16  C20 UNL     1      22.029   4.609  19.434  1.00  0.00     0.107 C 
HETATM   17  C22 UNL     1      20.619   4.987  19.701  1.00  0.00     0.043 A 
HETATM   18  C23 UNL     1      19.974   5.782  18.643  1.00  0.00     0.009 A 
HETATM   19  C24 UNL     1      19.587   4.492  18.825  1.00  0.00     0.021 A 
HETATM   20  C25 UNL     1      20.155   3.745  17.602  1.00  0.00     0.148 C 
HETATM   21  C26 UNL     1      18.190   4.108  19.323  1.00  0.00     0.043 C 
HETATM   22  C28 UNL     1      18.074   3.729  20.758  1.00  0.00     0.030 C 
HETATM   23  C29 UNL     1      17.302   5.245  18.895  1.00  0.00     0.271 C 
HETATM   24  O8  UNL     1      17.019   6.153  19.797  1.00  0.00    -0.351 OA
ENDROOT
BRANCH   1  25
HETATM   25  C2  UNL     1      16.144   3.133  22.023  1.00  0.00    -0.028 C 
HETATM   26  C1  UNL     1      15.069   2.915  21.347  1.00  0.00     0.007 C 
ENDBRANCH   1  25
BRANCH  21  27
HETATM   27  C27 UNL     1      17.679   2.894  18.556  1.00  0.00     0.179 C 
BRANCH  27  28
HETATM   28  O6  UNL     1      17.859   1.716  19.328  1.00  0.00    -0.400 OA
ATOM     29  H6  UNL     1      17.772   0.947  18.778  1.00  0.00     0.209 HD
ENDBRANCH  27  28
ENDBRANCH  21  27
BRANCH  23  30
HETATM   30  O7  UNL     1      16.040   4.781  18.438  1.00  0.00    -0.365 OA
HETATM   31  C30 UNL     1      15.061   5.670  18.794  1.00  0.00     0.204 C 
ENDBRANCH  23  30
BRANCH  20  32
HETATM   32  O5  UNL     1      20.082   2.409  17.621  1.00  0.00    -0.393 OA
ATOM     33  H5  UNL     1      20.521   2.030  16.869  1.00  0.00     0.210 HD
ENDBRANCH  20  32
BRANCH  16  34
HETATM   34  C21 UNL     1      22.961   5.394  20.324  1.00  0.00     0.193 C 
HETATM   35  O3  UNL     1      24.167   5.057  20.358  1.00  0.00    -0.647 OA
HETATM   36  O4  UNL     1      22.540   6.451  21.088  1.00  0.00    -0.647 OA
ENDBRANCH  16  34
BRANCH  11  37
HETATM   37  C14 UNL     1      21.438   4.835  15.800  1.00  0.00     0.185 C 
HETATM   38  O1  UNL     1      20.404   4.730  15.124  1.00  0.00    -0.647 OA
HETATM   39  O2  UNL     1      22.544   5.517  15.344  1.00  0.00    -0.647 OA
ENDBRANCH  11  37
BRANCH  13  40
HETATM   40  C18 UNL     1      24.515   2.258  17.858  1.00  0.00     0.016 C 
HETATM   41  C19 UNL     1      24.966   2.993  16.630  1.00  0.00     0.006 C 
ENDBRANCH  13  40
TORSDOF 8
ENDMDL
MODEL 4
REMARK VINA RESULT: -7.140847619      1.984      4.410
REMARK  8 active torsions:
REMARK  status: ('A' for Active; 'I' for Inactive)
REMARK    1  A    between atoms: C2_2  and  C3_3 
REMARK    2  A    between atoms: C13_13  and  C14_14 
REMARK    3  A    between atoms: C16_18  and  C18_20 
REMARK    4  A    between atoms: C20_23  and  C21_24 
REMARK    5  A    between atoms: C25_30  and  O5_31 
REMARK    6  A    between atoms: C26_33  and  C27_34 
REMARK    7  A    between atoms: C27_34  and  O6_35 
REMARK    8  A    between atoms: C29_38  and  O7_39 
ROOT
HETATM    1  C3  UNL     1      23.171   3.184  18.443  1.00  0.00    -0.026 C 
HETATM    2  C4  UNL     1      23.837   3.046  19.859  1.00  0.00     0.019 C 
HETATM    3  C5  UNL     1      23.397   1.909  17.842  1.00  0.00     0.016 C 
HETATM    4  C6  UNL     1      22.573   0.643  18.184  1.00  0.00     0.037 C 
HETATM    5  C7  UNL     1      21.272   1.204  18.271  1.00  0.00     0.147 C 
HETATM    6  C8  UNL     1      19.931   0.730  18.531  1.00  0.00     0.009 C 
HETATM    7  C9  UNL     1      18.852   1.544  18.704  1.00  0.00    -0.065 A 
HETATM    8  C10 UNL     1      17.540   2.247  18.921  1.00  0.00     0.030 A 
HETATM    9  C11 UNL     1      16.916   2.622  20.164  1.00  0.00     0.018 C 
HETATM   10  C12 UNL     1      17.181   4.102  20.429  1.00  0.00     0.038 C 
HETATM   11  C13 UNL     1      17.202   5.045  19.325  1.00  0.00     0.082 C 
HETATM   12  C15 UNL     1      16.846   6.440  19.900  1.00  0.00     0.043 C 
HETATM   13  C16 UNL     1      17.591   6.865  21.095  1.00  0.00     0.007 C 
HETATM   14  C17 UNL     1      18.232   8.251  20.875  1.00  0.00     0.027 C 
HETATM   15  S1  UNL     1      18.933   5.762  21.573  1.00  0.00    -0.137 SA
HETATM   16  C20 UNL     1      18.549   4.121  21.049  1.00  0.00     0.107 C 
HETATM   17  C22 UNL     1      19.433   3.494  20.035  1.00  0.00     0.043 A 
HETATM   18  C23 UNL     1      18.741   2.932  18.864  1.00  0.00     0.009 A 
HETATM   19  C24 UNL     1      19.484   4.060  18.710  1.00  0.00     0.021 A 
HETATM   20  C25 UNL     1      18.443   5.178  18.502  1.00  0.00     0.148 C 
HETATM   21  C26 UNL     1      20.766   4.100  17.874  1.00  0.00     0.043 C 
HETATM   22  C28 UNL     1      22.053   4.061  18.622  1.00  0.00     0.030 C 
HETATM   23  C29 UNL     1      20.595   3.010  16.851  1.00  0.00     0.271 C 
HETATM   24  O8  UNL     1      21.179   1.863  17.099  1.00  0.00    -0.351 OA
ENDROOT
BRANCH   1  25
HETATM   25  C2  UNL     1      24.290   4.025  17.801  1.00  0.00    -0.028 C 
HETATM   26  C1  UNL     1      24.491   4.189  16.539  1.00  0.00     0.007 C 
ENDBRANCH   1  25
BRANCH  21  27
HETATM   27  C27 UNL     1      20.822   5.394  17.068  1.00  0.00     0.179 C 
BRANCH  27  28
HETATM   28  O6  UNL     1      21.672   6.333  17.711  1.00  0.00    -0.400 OA
ATOM     29  H6  UNL     1      21.780   7.103  17.165  1.00  0.00     0.209 HD
ENDBRANCH  27  28
ENDBRANCH  21  27
BRANCH  23  30
HETATM   30  O7  UNL     1      21.088   3.401  15.578  1.00  0.00    -0.365 OA
HETATM   31  C30 UNL     1      21.076   2.330  14.725  1.00  0.00     0.204 C 
ENDBRANCH  23  30
BRANCH  20  32
HETATM   32  O5  UNL     1      18.897   6.437  18.513  1.00  0.00    -0.393 OA
ATOM     33  H5  UNL     1      18.187   7.059  18.408  1.00  0.00     0.210 HD
ENDBRANCH  20  32
BRANCH  16  34
HETATM   34  C21 UNL     1      18.480   3.261  22.288  1.00  0.00     0.193 C 
HETATM   35  O3  UNL     1      17.772   3.659  23.242  1.00  0.00    -0.647 OA
HETATM   36  O4  UNL     1      19.155   2.074  22.404  1.00  0.00    -0.647 OA
ENDBRANCH  16  34
BRANCH  11  37
HETATM   37  C14 UNL     1      16.007   4.799  18.464  1.00  0.00     0.185 C 
HETATM   38  O1  UNL     1      16.152   4.635  17.244  1.00  0.00    -0.647 OA
HETATM   39  O2  UNL     1      14.767   4.764  19.064  1.00  0.00    -0.647 OA
ENDBRANCH  11  37
BRANCH  13  40
HETATM   40  C18 UNL     1      16.639   7.126  22.275  1.00  0.00     0.016 C 
HETATM   41  C19 UNL     1      15.310   7.635  21.797  1.00  0.00     0.006 C 
ENDBRANCH  13  40
TORSDOF 8
ENDMDL
MODEL 5
REMARK VINA RESULT: -6.970025656      1.922      4.129
REMARK  8 active torsions:
REMARK  status: ('A' for Active; 'I' for Inactive)
REMARK    1  A    between atoms: C2_2  and  C3_3 
REMARK    2  A    between atoms: C13_13  and  C14_14 
REMARK    3  A    between atoms: C16_18  and  C18_20 
REMARK    4  A    between atoms: C20_23  and  C21_24 
REMARK    5  A    between atoms: C25_30  and  O5_31 
REMARK    6  A    between atoms: C26_33  and  C27_34 
REMARK    7  A    between atoms: C27_34  and  O6_35 
REMARK    8  A    between atoms: C29_38  and  O7_39 
ROOT
HETATM    1  C3  UNL     1      22.747   6.234  19.661  1.00  0.00    -0.026 C 
HETATM    2  C4  UNL     1      23.224   6.133  21.154  1.00  0.00     0.019 C 
HETATM    3  C5  UNL     1      23.651   5.376  18.964  1.00  0.00     0.016 C 
HETATM    4  C6  UNL     1      23.542   3.831  18.967  1.00  0.00     0.037 C 
HETATM    5  C7  UNL     1      22.136   3.677  18.858  1.00  0.00     0.147 C 
HETATM    6  C8  UNL     1      21.196   2.582  18.777  1.00  0.00     0.009 C 
HETATM    7  C9  UNL     1      19.842   2.730  18.827  1.00  0.00    -0.065 A 
HETATM    8  C10 UNL     1      18.339   2.664  18.858  1.00  0.00     0.030 A 
HETATM    9  C11 UNL     1      17.473   2.429  19.984  1.00  0.00     0.018 C 
HETATM   10  C12 UNL     1      16.926   3.764  20.482  1.00  0.00     0.038 C 
HETATM   11  C13 UNL     1      16.596   4.813  19.533  1.00  0.00     0.082 C 
HETATM   12  C15 UNL     1      15.524   5.716  20.194  1.00  0.00     0.043 C 
HETATM   13  C16 UNL     1      15.811   6.181  21.559  1.00  0.00     0.007 C 
HETATM   14  C17 UNL     1      15.689   7.716  21.651  1.00  0.00     0.027 C 
HETATM   15  S1  UNL     1      17.461   5.772  22.159  1.00  0.00    -0.137 SA
HETATM   16  C20 UNL     1      18.017   4.297  21.365  1.00  0.00     0.107 C 
HETATM   17  C22 UNL     1      19.206   4.394  20.482  1.00  0.00     0.043 A 
HETATM   18  C23 UNL     1      19.031   3.831  19.133  1.00  0.00     0.009 A 
HETATM   19  C24 UNL     1      19.117   5.180  19.278  1.00  0.00     0.021 A 
HETATM   20  C25 UNL     1      17.687   5.688  19.004  1.00  0.00     0.148 C 
HETATM   21  C26 UNL     1      20.292   5.999  18.733  1.00  0.00     0.043 C 
HETATM   22  C28 UNL     1      21.328   6.417  19.717  1.00  0.00     0.030 C 
HETATM   23  C29 UNL     1      20.811   5.200  17.567  1.00  0.00     0.271 C 
HETATM   24  O8  UNL     1      21.860   4.444  17.783  1.00  0.00    -0.351 OA
ENDROOT
BRANCH   1  25
HETATM   25  C2  UNL     1      23.357   7.618  19.372  1.00  0.00    -0.028 C 
HETATM   26  C1  UNL     1      24.531   8.020  19.719  1.00  0.00     0.007 C 
ENDBRANCH   1  25
BRANCH  21  27
HETATM   27  C27 UNL     1      19.782   7.301  18.125  1.00  0.00     0.179 C 
BRANCH  27  28
HETATM   28  O6  UNL     1      19.789   8.331  19.102  1.00  0.00    -0.400 OA
ATOM     29  H6  UNL     1      20.093   7.991  19.935  1.00  0.00     0.209 HD
ENDBRANCH  27  28
ENDBRANCH  21  27
BRANCH  23  30
HETATM   30  O7  UNL     1      21.183   6.036  16.482  1.00  0.00    -0.365 OA
HETATM   31  C30 UNL     1      22.009   5.352  15.630  1.00  0.00     0.204 C 
ENDBRANCH  23  30
BRANCH  20  32
HETATM   32  O5  UNL     1      17.442   6.977  19.266  1.00  0.00    -0.393 OA
ATOM     33  H5  UNL     1      18.246   7.484  19.277  1.00  0.00     0.210 HD
ENDBRANCH  20  32
BRANCH  16  34
HETATM   34  C21 UNL     1      18.247   3.268  22.445  1.00  0.00     0.193 C 
HETATM   35  O3  UNL     1      17.457   3.248  23.418  1.00  0.00    -0.647 OA
HETATM   36  O4  UNL     1      19.278   2.366  22.401  1.00  0.00    -0.647 OA
ENDBRANCH  16  34
BRANCH  11  37
HETATM   37  C14 UNL     1      15.795   4.217  18.422  1.00  0.00     0.185 C 
HETATM   38  O1  UNL     1      14.838   3.474  18.686  1.00  0.00    -0.647 OA
HETATM   39  O2  UNL     1      16.155   4.516  17.126  1.00  0.00    -0.647 OA
ENDBRANCH  11  37
BRANCH  13  40
HETATM   40  C18 UNL     1      14.729   5.704  22.544  1.00  0.00     0.016 C 
HETATM   41  C19 UNL     1      14.041   6.867  23.197  1.00  0.00     0.006 C 
ENDBRANCH  13  40
TORSDOF 8
ENDMDL
