MODEL 1
REMARK VINA RESULT: -4.947036560      0.000      0.000
REMARK  1 active torsions:
REMARK  status: ('A' for Active; 'I' for Inactive)
REMARK    1  A    between atoms: C4_5  and  C5_6 
ROOT
HETATM    1  C1  UNL     1      14.361   2.908  17.164  1.00  0.00     0.310 C 
HETATM    2  N1  UNL     1      15.290   3.886  16.619  1.00  0.00     0.091 N 
HETATM    3  C2  UNL     1      14.513   5.039  16.208  1.00  0.00     0.273 C 
HETATM    4  C3  UNL     1      15.205   5.643  15.020  1.00  0.00     0.044 C 
HETATM    5  C4  UNL     1      16.242   4.634  14.668  1.00  0.00     0.030 C 
HETATM    6  C6  UNL     1      17.549   5.040  15.261  1.00  0.00     0.245 C 
HETATM    7  N2  UNL     1      18.223   3.835  15.686  1.00  0.00    -0.072 N 
ATOM      8  H21 UNL     1      18.678   3.933  16.594  1.00  0.00     0.277 HD
ATOM      9  H22 UNL     1      19.059   3.633  15.139  1.00  0.00     0.277 HD
HETATM   10  C7  UNL     1      17.257   2.767  15.653  1.00  0.00     0.268 C 
HETATM   11  C8  UNL     1      15.907   3.374  15.419  1.00  0.00     0.259 C 
ENDROOT
BRANCH   5  12
HETATM   12  C5  UNL     1      16.332   4.389  13.176  1.00  0.00     0.128 C 
HETATM   13 CL1  UNL     1      17.734   5.248  12.496  1.00  0.00    -0.130 Cl
ENDBRANCH   5  12
TORSDOF 1
ENDMDL
MODEL 2
REMARK VINA RESULT: -4.793288362      3.005      4.307
REMARK  1 active torsions:
REMARK  status: ('A' for Active; 'I' for Inactive)
REMARK    1  A    between atoms: C4_5  and  C5_6 
ROOT
HETATM    1  C1  UNL     1      17.861   5.164  14.658  1.00  0.00     0.310 C 
HETATM    2  N1  UNL     1      17.103   4.342  13.728  1.00  0.00     0.091 N 
HETATM    3  C2  UNL     1      16.902   3.050  14.356  1.00  0.00     0.273 C 
HETATM    4  C3  UNL     1      16.880   2.021  13.264  1.00  0.00     0.044 C 
HETATM    5  C4  UNL     1      17.312   2.780  12.058  1.00  0.00     0.030 C 
HETATM    6  C6  UNL     1      16.111   3.201  11.280  1.00  0.00     0.245 C 
HETATM    7  N2  UNL     1      16.384   4.513  10.741  1.00  0.00    -0.072 N 
ATOM      8  H21 UNL     1      15.586   5.145  10.807  1.00  0.00     0.277 HD
ATOM      9  H22 UNL     1      16.471   4.514   9.724  1.00  0.00     0.277 HD
HETATM   10  C7  UNL     1      17.558   5.017  11.407  1.00  0.00     0.268 C 
HETATM   11  C8  UNL     1      17.879   4.089  12.538  1.00  0.00     0.259 C 
ENDROOT
BRANCH   5  12
HETATM   12  C5  UNL     1      18.310   2.014  11.215  1.00  0.00     0.128 C 
HETATM   13 CL1  UNL     1      18.022   0.265  11.360  1.00  0.00    -0.130 Cl
ENDBRANCH   5  12
TORSDOF 1
ENDMDL
MODEL 3
REMARK VINA RESULT: -4.769622302      2.408      3.695
REMARK  1 active torsions:
REMARK  status: ('A' for Active; 'I' for Inactive)
REMARK    1  A    between atoms: C4_5  and  C5_6 
ROOT
HETATM    1  C1  UNL     1      16.339   3.218  11.694  1.00  0.00     0.310 C 
HETATM    2  N1  UNL     1      16.916   3.358  13.022  1.00  0.00     0.091 N 
HETATM    3  C2  UNL     1      16.807   2.070  13.679  1.00  0.00     0.273 C 
HETATM    4  C3  UNL     1      16.625   2.332  15.146  1.00  0.00     0.044 C 
HETATM    5  C4  UNL     1      16.403   3.802  15.215  1.00  0.00     0.030 C 
HETATM    6  C6  UNL     1      17.686   4.482  15.556  1.00  0.00     0.245 C 
HETATM    7  N2  UNL     1      17.727   5.722  14.817  1.00  0.00    -0.072 N 
ATOM      8  H21 UNL     1      18.644   5.917  14.416  1.00  0.00     0.277 HD
ATOM      9  H22 UNL     1      17.667   6.545  15.418  1.00  0.00     0.277 HD
HETATM   10  C7  UNL     1      16.680   5.670  13.829  1.00  0.00     0.268 C 
HETATM   11  C8  UNL     1      16.132   4.275  13.813  1.00  0.00     0.259 C 
ENDROOT
BRANCH   5  12
HETATM   12  C5  UNL     1      15.279   4.177  16.159  1.00  0.00     0.128 C 
HETATM   13 CL1  UNL     1      14.483   2.712  16.779  1.00  0.00    -0.130 Cl
ENDBRANCH   5  12
TORSDOF 1
ENDMDL
MODEL 4
REMARK VINA RESULT: -4.705837302      2.341      3.429
REMARK  1 active torsions:
REMARK  status: ('A' for Active; 'I' for Inactive)
REMARK    1  A    between atoms: C4_5  and  C5_6 
ROOT
HETATM    1  C1  UNL     1      16.733   2.095  12.366  1.00  0.00     0.310 C 
HETATM    2  N1  UNL     1      17.138   2.908  13.502  1.00  0.00     0.091 N 
HETATM    3  C2  UNL     1      16.767   2.188  14.705  1.00  0.00     0.273 C 
HETATM    4  C3  UNL     1      16.425   3.211  15.749  1.00  0.00     0.044 C 
HETATM    5  C4  UNL     1      16.399   4.492  14.990  1.00  0.00     0.030 C 
HETATM    6  C6  UNL     1      17.705   5.193  15.156  1.00  0.00     0.245 C 
HETATM    7  N2  UNL     1      18.014   5.831  13.898  1.00  0.00    -0.072 N 
ATOM      8  H21 UNL     1      18.996   5.738  13.635  1.00  0.00     0.277 HD
ATOM      9  H22 UNL     1      17.987   6.850  13.952  1.00  0.00     0.277 HD
HETATM   10  C7  UNL     1      17.114   5.295  12.910  1.00  0.00     0.268 C 
HETATM   11  C8  UNL     1      16.388   4.140  13.528  1.00  0.00     0.259 C 
ENDROOT
BRANCH   5  12
HETATM   12  C5  UNL     1      15.219   5.365  15.365  1.00  0.00     0.128 C 
HETATM   13 CL1  UNL     1      14.330   4.646  16.727  1.00  0.00    -0.130 Cl
ENDBRANCH   5  12
TORSDOF 1
ENDMDL
MODEL 5
REMARK VINA RESULT: -4.691329019      1.033      1.083
REMARK  1 active torsions:
REMARK  status: ('A' for Active; 'I' for Inactive)
REMARK    1  A    between atoms: C4_5  and  C5_6 
ROOT
HETATM    1  C1  UNL     1      14.302   3.602  16.494  1.00  0.00     0.310 C 
HETATM    2  N1  UNL     1      15.399   4.411  15.987  1.00  0.00     0.091 N 
HETATM    3  C2  UNL     1      14.829   5.415  15.109  1.00  0.00     0.273 C 
HETATM    4  C3  UNL     1      15.839   5.694  14.035  1.00  0.00     0.044 C 
HETATM    5  C4  UNL     1      16.866   4.635  14.236  1.00  0.00     0.030 C 
HETATM    6  C6  UNL     1      18.000   5.189  15.033  1.00  0.00     0.245 C 
HETATM    7  N2  UNL     1      18.464   4.139  15.909  1.00  0.00    -0.072 N 
ATOM      8  H21 UNL     1      18.675   4.471  16.851  1.00  0.00     0.277 HD
ATOM      9  H22 UNL     1      19.399   3.807  15.672  1.00  0.00     0.277 HD
HETATM   10  C7  UNL     1      17.474   3.093  15.891  1.00  0.00     0.268 C 
HETATM   11  C8  UNL     1      16.271   3.611  15.163  1.00  0.00     0.259 C 
ENDROOT
BRANCH   5  12
HETATM   12  C5  UNL     1      17.323   4.014  12.932  1.00  0.00     0.128 C 
HETATM   13 CL1  UNL     1      15.938   3.797  11.837  1.00  0.00    -0.130 Cl
ENDBRANCH   5  12
TORSDOF 1
ENDMDL
