MODEL 1
REMARK VINA RESULT: -4.278792957      0.000      0.000
REMARK  2 active torsions:
REMARK  status: ('A' for Active; 'I' for Inactive)
REMARK    1  A    between atoms: C1_2  and  O1_3 
REMARK    2  A    between atoms: O1_3  and  C2_4 
ROOT
HETATM    1  C2  UNL     1      16.939   2.479  15.094  1.00  0.00     0.149 C 
HETATM    2  C3  UNL     1      16.373   3.387  13.993  1.00  0.00     0.061 C 
HETATM    3  C4  UNL     1      17.575   4.302  13.783  1.00  0.00     0.235 C 
HETATM    4  N1  UNL     1      18.141   4.498  15.099  1.00  0.00    -0.073 N 
ATOM      5  H11 UNL     1      18.047   5.458  15.431  1.00  0.00     0.277 HD
ATOM      6  H12 UNL     1      19.161   4.453  15.103  1.00  0.00     0.277 HD
HETATM    7  C5  UNL     1      17.538   3.541  15.983  1.00  0.00     0.264 C 
ENDROOT
BRANCH   1   8
HETATM    8  O1  UNL     1      15.954   1.778  15.746  1.00  0.00    -0.374 OA
BRANCH   8   9
HETATM    9  C1  UNL     1      15.619   2.321  16.976  1.00  0.00     0.253 C 
HETATM   10 BR1  UNL     1      13.856   3.056  16.947  1.00  0.00    -0.068 Br
ENDBRANCH   8   9
ENDBRANCH   1   8
TORSDOF 2
ENDMDL
MODEL 2
REMARK VINA RESULT: -4.167791504      1.097      1.486
REMARK  2 active torsions:
REMARK  status: ('A' for Active; 'I' for Inactive)
REMARK    1  A    between atoms: C1_2  and  O1_3 
REMARK    2  A    between atoms: O1_3  and  C2_4 
ROOT
HETATM    1  C2  UNL     1      16.437   3.069  15.742  1.00  0.00     0.149 C 
HETATM    2  C3  UNL     1      17.581   4.091  15.719  1.00  0.00     0.061 C 
HETATM    3  C4  UNL     1      17.482   4.542  14.265  1.00  0.00     0.235 C 
HETATM    4  N1  UNL     1      17.138   3.353  13.518  1.00  0.00    -0.073 N 
ATOM      5  H11 UNL     1      17.886   3.048  12.893  1.00  0.00     0.277 HD
ATOM      6  H12 UNL     1      16.428   3.524  12.805  1.00  0.00     0.277 HD
HETATM    7  C5  UNL     1      16.751   2.341  14.458  1.00  0.00     0.264 C 
ENDROOT
BRANCH   1   8
HETATM    8  O1  UNL     1      16.513   2.229  16.826  1.00  0.00    -0.374 OA
BRANCH   8   9
HETATM    9  C1  UNL     1      15.308   2.093  17.499  1.00  0.00     0.253 C 
HETATM   10 BR1  UNL     1      14.013   3.338  16.848  1.00  0.00    -0.068 Br
ENDBRANCH   8   9
ENDBRANCH   1   8
TORSDOF 2
ENDMDL
MODEL 3
REMARK VINA RESULT: -3.923527027      3.015      3.775
REMARK  2 active torsions:
REMARK  status: ('A' for Active; 'I' for Inactive)
REMARK    1  A    between atoms: C1_2  and  O1_3 
REMARK    2  A    between atoms: O1_3  and  C2_4 
ROOT
HETATM    1  C2  UNL     1      15.327   4.212  15.960  1.00  0.00     0.149 C 
HETATM    2  C3  UNL     1      14.297   3.350  16.702  1.00  0.00     0.061 C 
HETATM    3  C4  UNL     1      15.238   2.338  17.346  1.00  0.00     0.235 C 
HETATM    4  N1  UNL     1      16.275   2.101  16.366  1.00  0.00    -0.073 N 
ATOM      5  H11 UNL     1      16.253   1.153  15.988  1.00  0.00     0.277 HD
ATOM      6  H12 UNL     1      17.208   2.061  16.778  1.00  0.00     0.277 HD
HETATM    7  C5  UNL     1      16.157   3.108  15.351  1.00  0.00     0.264 C 
ENDROOT
BRANCH   1   8
HETATM    8  O1  UNL     1      14.749   4.996  14.992  1.00  0.00    -0.374 OA
BRANCH   8   9
HETATM    9  C1  UNL     1      14.962   6.352  15.186  1.00  0.00     0.253 C 
HETATM   10 BR1  UNL     1      16.682   6.877  14.541  1.00  0.00    -0.068 Br
ENDBRANCH   8   9
ENDBRANCH   1   8
TORSDOF 2
ENDMDL
MODEL 4
REMARK VINA RESULT: -3.845741637      2.542      3.048
REMARK  2 active torsions:
REMARK  status: ('A' for Active; 'I' for Inactive)
REMARK    1  A    between atoms: C1_2  and  O1_3 
REMARK    2  A    between atoms: O1_3  and  C2_4 
ROOT
HETATM    1  C2  UNL     1      17.412   3.174  12.998  1.00  0.00     0.149 C 
HETATM    2  C3  UNL     1      16.913   1.790  12.565  1.00  0.00     0.061 C 
HETATM    3  C4  UNL     1      16.450   2.123  11.151  1.00  0.00     0.235 C 
HETATM    4  N1  UNL     1      15.881   3.450  11.237  1.00  0.00    -0.073 N 
ATOM      5  H11 UNL     1      14.874   3.460  11.077  1.00  0.00     0.277 HD
ATOM      6  H12 UNL     1      16.148   4.047  10.453  1.00  0.00     0.277 HD
HETATM    7  C5  UNL     1      16.249   4.002  12.509  1.00  0.00     0.264 C 
ENDROOT
BRANCH   1   8
HETATM    8  O1  UNL     1      17.557   3.271  14.360  1.00  0.00    -0.374 OA
BRANCH   8   9
HETATM    9  C1  UNL     1      16.720   2.418  15.062  1.00  0.00     0.253 C 
HETATM   10 BR1  UNL     1      15.993   3.282  16.604  1.00  0.00    -0.068 Br
ENDBRANCH   8   9
ENDBRANCH   1   8
TORSDOF 2
ENDMDL
MODEL 5
REMARK VINA RESULT: -3.826357810      1.775      1.998
REMARK  2 active torsions:
REMARK  status: ('A' for Active; 'I' for Inactive)
REMARK    1  A    between atoms: C1_2  and  O1_3 
REMARK    2  A    between atoms: O1_3  and  C2_4 
ROOT
HETATM    1  C2  UNL     1      16.403   4.635  14.621  1.00  0.00     0.149 C 
HETATM    2  C3  UNL     1      16.877   6.092  14.701  1.00  0.00     0.061 C 
HETATM    3  C4  UNL     1      18.384   5.868  14.634  1.00  0.00     0.235 C 
HETATM    4  N1  UNL     1      18.624   4.657  15.387  1.00  0.00    -0.073 N 
ATOM      5  H11 UNL     1      19.149   4.822  16.246  1.00  0.00     0.277 HD
ATOM      6  H12 UNL     1      19.298   4.036  14.935  1.00  0.00     0.277 HD
HETATM    7  C5  UNL     1      17.356   4.027  15.621  1.00  0.00     0.264 C 
ENDROOT
BRANCH   1   8
HETATM    8  O1  UNL     1      15.098   4.490  15.022  1.00  0.00    -0.374 OA
BRANCH   8   9
HETATM    9  C1  UNL     1      14.945   4.493  16.400  1.00  0.00     0.253 C 
HETATM   10 BR1  UNL     1      13.987   2.949  16.990  1.00  0.00    -0.068 Br
ENDBRANCH   8   9
ENDBRANCH   1   8
TORSDOF 2
ENDMDL
