MODEL 1
REMARK VINA RESULT: -6.562133122      0.000      0.000
REMARK  1 active torsions:
REMARK  status: ('A' for Active; 'I' for Inactive)
REMARK    1  A    between atoms: O1_2  and  C2_3 
ROOT
HETATM    1  C2  UNL     1      15.124   4.766  14.969  1.00  0.00     0.178 C 
HETATM    2  C3  UNL     1      16.602   4.632  14.689  1.00  0.00     0.149 C 
HETATM    3  N1  UNL     1      17.157   3.376  15.037  1.00  0.00    -0.418 N 
ATOM      4  H1  UNL     1      18.138   3.152  14.869  1.00  0.00     0.153 HD
HETATM    5  C4  UNL     1      16.259   2.442  15.637  1.00  0.00     0.118 C 
HETATM    6  C5  UNL     1      15.690   2.857  16.942  1.00  0.00     0.011 C 
HETATM    7  C6  UNL     1      14.150   2.844  16.834  1.00  0.00     0.014 C 
HETATM    8  C7  UNL     1      13.886   4.291  17.152  1.00  0.00     0.029 C 
HETATM    9  C8  UNL     1      14.805   4.476  18.374  1.00  0.00     0.016 C 
HETATM   10  C9  UNL     1      15.899   4.282  17.311  1.00  0.00     0.034 C 
HETATM   11  C10 UNL     1      14.940   5.049  16.412  1.00  0.00     0.138 C 
HETATM   12  F1  UNL     1      14.926   6.393  16.747  1.00  0.00    -0.239 F 
ENDROOT
BRANCH   1  13
HETATM   13  O1  UNL     1      14.696   5.905  14.254  1.00  0.00    -0.386 OA
HETATM   14  C1  UNL     1      15.763   6.542  13.626  1.00  0.00     0.202 C 
ENDBRANCH   1  13
TORSDOF 1
ENDMDL
MODEL 2
REMARK VINA RESULT: -5.949684318      2.286      3.327
REMARK  1 active torsions:
REMARK  status: ('A' for Active; 'I' for Inactive)
REMARK    1  A    between atoms: O1_2  and  C2_3 
ROOT
HETATM    1  C2  UNL     1      15.864   4.314  13.066  1.00  0.00     0.178 C 
HETATM    2  C3  UNL     1      16.843   3.225  13.439  1.00  0.00     0.149 C 
HETATM    3  N1  UNL     1      16.835   2.870  14.809  1.00  0.00    -0.418 N 
ATOM      4  H1  UNL     1      17.429   2.128  15.180  1.00  0.00     0.153 HD
HETATM    5  C4  UNL     1      15.946   3.614  15.642  1.00  0.00     0.118 C 
HETATM    6  C5  UNL     1      16.233   5.065  15.740  1.00  0.00     0.011 C 
HETATM    7  C6  UNL     1      14.977   5.846  15.298  1.00  0.00     0.014 C 
HETATM    8  C7  UNL     1      15.576   6.609  14.147  1.00  0.00     0.029 C 
HETATM    9  C8  UNL     1      16.886   7.097  14.794  1.00  0.00     0.016 C 
HETATM   10  C9  UNL     1      17.213   5.595  14.756  1.00  0.00     0.034 C 
HETATM   11  C10 UNL     1      16.448   5.623  13.440  1.00  0.00     0.138 C 
HETATM   12  F1  UNL     1      17.201   6.232  12.451  1.00  0.00    -0.239 F 
ENDROOT
BRANCH   1  13
HETATM   13  O1  UNL     1      15.764   4.280  11.658  1.00  0.00    -0.386 OA
HETATM   14  C1  UNL     1      16.166   3.048  11.150  1.00  0.00     0.202 C 
ENDBRANCH   1  13
TORSDOF 1
ENDMDL
MODEL 3
REMARK VINA RESULT: -5.809295508      1.760      3.483
REMARK  1 active torsions:
REMARK  status: ('A' for Active; 'I' for Inactive)
REMARK    1  A    between atoms: O1_2  and  C2_3 
ROOT
HETATM    1  C2  UNL     1      16.360   4.352  16.024  1.00  0.00     0.178 C 
HETATM    2  C3  UNL     1      16.272   3.201  15.049  1.00  0.00     0.149 C 
HETATM    3  N1  UNL     1      16.888   3.442  13.797  1.00  0.00    -0.418 N 
ATOM      4  H1  UNL     1      16.922   2.732  13.065  1.00  0.00     0.153 HD
HETATM    5  C4  UNL     1      17.459   4.738  13.621  1.00  0.00     0.118 C 
HETATM    6  C5  UNL     1      16.498   5.867  13.671  1.00  0.00     0.011 C 
HETATM    7  C6  UNL     1      16.945   6.846  14.777  1.00  0.00     0.014 C 
HETATM    8  C7  UNL     1      15.714   6.793  15.641  1.00  0.00     0.029 C 
HETATM    9  C8  UNL     1      14.618   6.925  14.566  1.00  0.00     0.016 C 
HETATM   10  C9  UNL     1      15.139   5.532  14.171  1.00  0.00     0.034 C 
HETATM   11  C10 UNL     1      15.324   5.350  15.671  1.00  0.00     0.138 C 
HETATM   12  F1  UNL     1      14.101   5.170  16.295  1.00  0.00    -0.239 F 
ENDROOT
BRANCH   1  13
HETATM   13  O1  UNL     1      16.022   3.817  17.286  1.00  0.00    -0.386 OA
HETATM   14  C1  UNL     1      15.554   2.511  17.176  1.00  0.00     0.202 C 
ENDBRANCH   1  13
TORSDOF 1
ENDMDL
MODEL 4
REMARK VINA RESULT: -5.573874076      2.085      2.825
REMARK  1 active torsions:
REMARK  status: ('A' for Active; 'I' for Inactive)
REMARK    1  A    between atoms: O1_2  and  C2_3 
ROOT
HETATM    1  C2  UNL     1      16.462   4.783  15.805  1.00  0.00     0.178 C 
HETATM    2  C3  UNL     1      15.593   5.647  14.921  1.00  0.00     0.149 C 
HETATM    3  N1  UNL     1      14.586   6.367  15.607  1.00  0.00    -0.418 N 
ATOM      4  H1  UNL     1      13.954   7.007  15.126  1.00  0.00     0.153 HD
HETATM    5  C4  UNL     1      14.508   6.143  17.015  1.00  0.00     0.118 C 
HETATM    6  C5  UNL     1      14.171   4.756  17.419  1.00  0.00     0.011 C 
HETATM    7  C6  UNL     1      15.290   4.228  18.342  1.00  0.00     0.014 C 
HETATM    8  C7  UNL     1      15.722   3.043  17.521  1.00  0.00     0.029 C 
HETATM    9  C8  UNL     1      14.350   2.442  17.161  1.00  0.00     0.016 C 
HETATM   10  C9  UNL     1      14.239   3.737  16.339  1.00  0.00     0.034 C 
HETATM   11  C10 UNL     1      15.730   3.531  16.109  1.00  0.00     0.138 C 
HETATM   12  F1  UNL     1      15.948   2.495  15.217  1.00  0.00    -0.239 F 
ENDROOT
BRANCH   1  13
HETATM   13  O1  UNL     1      17.587   4.439  15.025  1.00  0.00    -0.386 OA
HETATM   14  C1  UNL     1      17.663   5.215  13.872  1.00  0.00     0.202 C 
ENDBRANCH   1  13
TORSDOF 1
ENDMDL
MODEL 5
REMARK VINA RESULT: -5.557979110      2.213      3.666
REMARK  1 active torsions:
REMARK  status: ('A' for Active; 'I' for Inactive)
REMARK    1  A    between atoms: O1_2  and  C2_3 
ROOT
HETATM    1  C2  UNL     1      16.451   4.087  14.511  1.00  0.00     0.178 C 
HETATM    2  C3  UNL     1      16.707   3.739  15.958  1.00  0.00     0.149 C 
HETATM    3  N1  UNL     1      15.777   4.293  16.871  1.00  0.00    -0.418 N 
ATOM      4  H1  UNL     1      15.825   4.107  17.873  1.00  0.00     0.153 HD
HETATM    5  C4  UNL     1      14.767   5.128  16.304  1.00  0.00     0.118 C 
HETATM    6  C5  UNL     1      15.261   6.359  15.640  1.00  0.00     0.011 C 
HETATM    7  C6  UNL     1      14.768   6.362  14.178  1.00  0.00     0.014 C 
HETATM    8  C7  UNL     1      16.103   6.400  13.486  1.00  0.00     0.029 C 
HETATM    9  C8  UNL     1      16.808   7.494  14.309  1.00  0.00     0.016 C 
HETATM   10  C9  UNL     1      16.728   6.419  15.406  1.00  0.00     0.034 C 
HETATM   11  C10 UNL     1      16.966   5.452  14.255  1.00  0.00     0.138 C 
HETATM   12  F1  UNL     1      18.283   5.511  13.832  1.00  0.00    -0.239 F 
ENDROOT
BRANCH   1  13
HETATM   13  O1  UNL     1      17.232   3.189  13.752  1.00  0.00    -0.386 OA
HETATM   14  C1  UNL     1      16.646   2.923  12.518  1.00  0.00     0.202 C 
ENDBRANCH   1  13
TORSDOF 1
ENDMDL
