MODEL 1
REMARK VINA RESULT: -6.279774962      0.000      0.000
REMARK  1 active torsions:
REMARK  status: ('A' for Active; 'I' for Inactive)
REMARK    1  A    between atoms: N1_7  and  C5_8 
ROOT
HETATM    1  C5  UNL     1      16.215   5.705  15.679  1.00  0.00     0.230 C 
HETATM    2  C6  UNL     1      17.350   5.729  14.688  1.00  0.00     0.063 C 
HETATM    3  C7  UNL     1      17.318   6.972  13.819  1.00  0.00     0.234 C 
HETATM    4  N2  UNL     1      16.066   7.113  13.123  1.00  0.00    -0.075 N 
ATOM      5  H21 UNL     1      15.979   6.404  12.394  1.00  0.00     0.277 HD
ATOM      6  H22 UNL     1      16.069   7.954  12.546  1.00  0.00     0.277 HD
HETATM    7  C8  UNL     1      14.926   7.096  13.977  1.00  0.00     0.234 C 
HETATM    8  C9  UNL     1      15.128   6.675  15.379  1.00  0.00     0.063 C 
ENDROOT
BRANCH   1   9
HETATM    9  N1  UNL     1      15.709   4.426  16.007  1.00  0.00     0.131 N 
HETATM   10  C1  UNL     1      14.578   4.414  16.894  1.00  0.00     0.428 C 
HETATM   11  F1  UNL     1      14.984   4.843  18.143  1.00  0.00    -0.214 F 
HETATM   12  C2  UNL     1      13.926   3.083  17.007  1.00  0.00     0.237 C 
HETATM   13  O1  UNL     1      14.661   2.000  16.718  1.00  0.00    -0.385 OA
HETATM   14  C3  UNL     1      15.941   2.099  16.342  1.00  0.00     0.198 C 
HETATM   15  C4  UNL     1      16.620   3.421  16.414  1.00  0.00     0.303 C 
ENDBRANCH   1   9
TORSDOF 1
ENDMDL
MODEL 2
REMARK VINA RESULT: -5.803964189      1.470      1.796
REMARK  1 active torsions:
REMARK  status: ('A' for Active; 'I' for Inactive)
REMARK    1  A    between atoms: N1_7  and  C5_8 
ROOT
HETATM    1  C5  UNL     1      16.105   5.035  14.543  1.00  0.00     0.230 C 
HETATM    2  C6  UNL     1      17.380   5.712  14.973  1.00  0.00     0.063 C 
HETATM    3  C7  UNL     1      18.211   6.163  13.786  1.00  0.00     0.234 C 
HETATM    4  N2  UNL     1      18.517   5.075  12.896  1.00  0.00    -0.075 N 
ATOM      5  H21 UNL     1      19.186   4.437  13.327  1.00  0.00     0.277 HD
ATOM      6  H22 UNL     1      19.076   5.402  12.108  1.00  0.00     0.277 HD
HETATM    7  C8  UNL     1      17.371   4.364  12.436  1.00  0.00     0.234 C 
HETATM    8  C9  UNL     1      16.084   4.633  13.111  1.00  0.00     0.063 C 
ENDROOT
BRANCH   1   9
HETATM    9  N1  UNL     1      15.637   4.004  15.390  1.00  0.00     0.131 N 
HETATM   10  C1  UNL     1      14.550   4.359  16.260  1.00  0.00     0.428 C 
HETATM   11  F1  UNL     1      15.007   5.260  17.203  1.00  0.00    -0.214 F 
HETATM   12  C2  UNL     1      13.927   3.192  16.939  1.00  0.00     0.237 C 
HETATM   13  O1  UNL     1      14.666   2.083  17.081  1.00  0.00    -0.385 OA
HETATM   14  C3  UNL     1      15.925   2.016  16.632  1.00  0.00     0.198 C 
HETATM   15  C4  UNL     1      16.583   3.250  16.125  1.00  0.00     0.303 C 
ENDBRANCH   1   9
TORSDOF 1
ENDMDL
MODEL 3
REMARK VINA RESULT: -5.566858429      1.499      1.937
REMARK  1 active torsions:
REMARK  status: ('A' for Active; 'I' for Inactive)
REMARK    1  A    between atoms: N1_7  and  C5_8 
ROOT
HETATM    1  C5  UNL     1      16.402   5.831  15.612  1.00  0.00     0.230 C 
HETATM    2  C6  UNL     1      17.517   6.124  14.643  1.00  0.00     0.063 C 
HETATM    3  C7  UNL     1      17.244   7.373  13.824  1.00  0.00     0.234 C 
HETATM    4  N2  UNL     1      15.996   7.290  13.114  1.00  0.00    -0.075 N 
ATOM      5  H21 UNL     1      16.059   6.611  12.355  1.00  0.00     0.277 HD
ATOM      6  H22 UNL     1      15.835   8.139  12.571  1.00  0.00     0.277 HD
HETATM    7  C8  UNL     1      14.874   7.008  13.946  1.00  0.00     0.234 C 
HETATM    8  C9  UNL     1      15.145   6.576  15.333  1.00  0.00     0.063 C 
ENDROOT
BRANCH   1   9
HETATM    9  N1  UNL     1      16.160   4.463  15.879  1.00  0.00     0.131 N 
HETATM   10  C1  UNL     1      16.637   3.542  14.885  1.00  0.00     0.428 C 
HETATM   11  F1  UNL     1      15.892   3.700  13.732  1.00  0.00    -0.214 F 
HETATM   12  C2  UNL     1      16.592   2.121  15.322  1.00  0.00     0.237 C 
HETATM   13  O1  UNL     1      15.728   1.792  16.293  1.00  0.00    -0.385 OA
HETATM   14  C3  UNL     1      14.926   2.703  16.857  1.00  0.00     0.198 C 
HETATM   15  C4  UNL     1      14.859   4.072  16.279  1.00  0.00     0.303 C 
ENDBRANCH   1   9
TORSDOF 1
ENDMDL
MODEL 4
REMARK VINA RESULT: -5.493621592      3.174      3.673
REMARK  1 active torsions:
REMARK  status: ('A' for Active; 'I' for Inactive)
REMARK    1  A    between atoms: N1_7  and  C5_8 
ROOT
HETATM    1  C5  UNL     1      17.055   2.998  13.420  1.00  0.00     0.230 C 
HETATM    2  C6  UNL     1      17.023   1.571  12.939  1.00  0.00     0.063 C 
HETATM    3  C7  UNL     1      17.130   1.479  11.428  1.00  0.00     0.234 C 
HETATM    4  N2  UNL     1      16.100   2.235  10.766  1.00  0.00    -0.075 N 
ATOM      5  H21 UNL     1      15.191   1.790  10.891  1.00  0.00     0.277 HD
ATOM      6  H22 UNL     1      16.192   2.157   9.753  1.00  0.00     0.277 HD
HETATM    7  C8  UNL     1      16.045   3.603  11.160  1.00  0.00     0.234 C 
HETATM    8  C9  UNL     1      16.827   4.004  12.348  1.00  0.00     0.063 C 
ENDROOT
BRANCH   1   9
HETATM    9  N1  UNL     1      16.296   3.276  14.580  1.00  0.00     0.131 N 
HETATM   10  C1  UNL     1      16.208   4.663  14.947  1.00  0.00     0.428 C 
HETATM   11  F1  UNL     1      17.452   5.097  15.361  1.00  0.00    -0.214 F 
HETATM   12  C2  UNL     1      15.202   4.934  16.008  1.00  0.00     0.237 C 
HETATM   13  O1  UNL     1      14.860   3.922  16.819  1.00  0.00    -0.385 OA
HETATM   14  C3  UNL     1      15.401   2.705  16.690  1.00  0.00     0.198 C 
HETATM   15  C4  UNL     1      16.534   2.508  15.746  1.00  0.00     0.303 C 
ENDBRANCH   1   9
TORSDOF 1
ENDMDL
MODEL 5
REMARK VINA RESULT: -5.402471136      3.088      3.774
REMARK  1 active torsions:
REMARK  status: ('A' for Active; 'I' for Inactive)
REMARK    1  A    between atoms: N1_7  and  C5_8 
ROOT
HETATM    1  C5  UNL     1      16.931   3.620  13.521  1.00  0.00     0.230 C 
HETATM    2  C6  UNL     1      16.821   2.123  13.399  1.00  0.00     0.063 C 
HETATM    3  C7  UNL     1      17.063   1.651  11.977  1.00  0.00     0.234 C 
HETATM    4  N2  UNL     1      16.170   2.279  11.040  1.00  0.00    -0.075 N 
ATOM      5  H21 UNL     1      15.219   1.933  11.165  1.00  0.00     0.277 HD
ATOM      6  H22 UNL     1      16.351   1.945  10.093  1.00  0.00     0.277 HD
HETATM    7  C8  UNL     1      16.196   3.702  11.083  1.00  0.00     0.234 C 
HETATM    8  C9  UNL     1      16.892   4.339  12.220  1.00  0.00     0.063 C 
ENDROOT
BRANCH   1   9
HETATM    9  N1  UNL     1      16.091   4.224  14.486  1.00  0.00     0.131 N 
HETATM   10  C1  UNL     1      16.205   5.652  14.603  1.00  0.00     0.428 C 
HETATM   11  F1  UNL     1      17.444   5.961  15.131  1.00  0.00    -0.214 F 
HETATM   12  C2  UNL     1      15.136   6.267  15.433  1.00  0.00     0.237 C 
HETATM   13  O1  UNL     1      14.519   5.489  16.335  1.00  0.00    -0.385 OA
HETATM   14  C3  UNL     1      14.847   4.202  16.494  1.00  0.00     0.198 C 
HETATM   15  C4  UNL     1      16.038   3.661  15.785  1.00  0.00     0.303 C 
ENDBRANCH   1   9
TORSDOF 1
ENDMDL
