MODEL 1
REMARK VINA RESULT: -6.028477382      0.000      0.000
REMARK  1 active torsions:
REMARK  status: ('A' for Active; 'I' for Inactive)
REMARK    1  A    between atoms: C2_2  and  N1_3 
ROOT
HETATM    1  N1  UNL     1      16.043   4.773  14.307  1.00  0.00     0.123 N 
HETATM    2  C3  UNL     1      15.042   5.825  14.241  1.00  0.00     0.305 C 
HETATM    3  C4  UNL     1      15.069   6.498  15.600  1.00  0.00     0.305 C 
HETATM    4  N2  UNL     1      15.563   5.410  16.467  1.00  0.00     0.126 N 
HETATM    5  C5  UNL     1      14.388   4.589  16.708  1.00  0.00     0.312 C 
HETATM    6  C6  UNL     1      14.514   3.718  17.916  1.00  0.00     0.198 C 
HETATM    7  F1  UNL     1      15.048   4.492  18.934  1.00  0.00    -0.248 F 
HETATM    8  C7  UNL     1      15.265   2.454  17.676  1.00  0.00     0.039 C 
HETATM    9  C8  UNL     1      15.919   2.422  16.291  1.00  0.00     0.007 C 
HETATM   10  C9  UNL     1      16.978   3.460  16.172  1.00  0.00     0.069 C 
HETATM   11  C10 UNL     1      16.529   4.780  15.619  1.00  0.00     0.456 C 
ENDROOT
BRANCH   1  12
HETATM   12  C2  UNL     1      16.931   4.957  13.232  1.00  0.00     0.271 C 
HETATM   13  C1  UNL     1      17.273   3.752  12.423  1.00  0.00     0.037 C 
ENDBRANCH   1  12
TORSDOF 1
ENDMDL
MODEL 2
REMARK VINA RESULT: -5.976323071      1.682      2.685
REMARK  1 active torsions:
REMARK  status: ('A' for Active; 'I' for Inactive)
REMARK    1  A    between atoms: C2_2  and  N1_3 
ROOT
HETATM    1  N1  UNL     1      16.327   5.906  15.405  1.00  0.00     0.123 N 
HETATM    2  C3  UNL     1      17.254   5.019  14.722  1.00  0.00     0.305 C 
HETATM    3  C4  UNL     1      16.475   3.748  14.449  1.00  0.00     0.305 C 
HETATM    4  N2  UNL     1      15.465   3.774  15.525  1.00  0.00     0.126 N 
HETATM    5  C5  UNL     1      16.180   3.287  16.693  1.00  0.00     0.312 C 
HETATM    6  C6  UNL     1      15.277   2.777  17.769  1.00  0.00     0.198 C 
HETATM    7  F1  UNL     1      14.308   1.992  17.163  1.00  0.00    -0.248 F 
HETATM    8  C7  UNL     1      14.713   3.844  18.643  1.00  0.00     0.039 C 
HETATM    9  C8  UNL     1      15.025   5.249  18.117  1.00  0.00     0.007 C 
HETATM   10  C9  UNL     1      14.348   5.499  16.817  1.00  0.00     0.069 C 
HETATM   11  C10 UNL     1      15.152   5.169  15.595  1.00  0.00     0.456 C 
ENDROOT
BRANCH   1  12
HETATM   12  C2  UNL     1      16.285   7.118  14.692  1.00  0.00     0.271 C 
HETATM   13  C1  UNL     1      17.584   7.660  14.203  1.00  0.00     0.037 C 
ENDBRANCH   1  12
TORSDOF 1
ENDMDL
MODEL 3
REMARK VINA RESULT: -5.721450683      1.927      2.854
REMARK  1 active torsions:
REMARK  status: ('A' for Active; 'I' for Inactive)
REMARK    1  A    between atoms: C2_2  and  N1_3 
ROOT
HETATM    1  N1  UNL     1      16.392   3.658  13.361  1.00  0.00     0.123 N 
HETATM    2  C3  UNL     1      16.342   4.527  12.197  1.00  0.00     0.305 C 
HETATM    3  C4  UNL     1      17.032   5.810  12.617  1.00  0.00     0.305 C 
HETATM    4  N2  UNL     1      16.818   5.805  14.077  1.00  0.00     0.126 N 
HETATM    5  C5  UNL     1      15.456   6.284  14.238  1.00  0.00     0.312 C 
HETATM    6  C6  UNL     1      15.173   6.813  15.607  1.00  0.00     0.198 C 
HETATM    7  F1  UNL     1      16.244   7.612  15.974  1.00  0.00    -0.248 F 
HETATM    8  C7  UNL     1      14.848   5.759  16.609  1.00  0.00     0.039 C 
HETATM    9  C8  UNL     1      15.076   4.347  16.059  1.00  0.00     0.007 C 
HETATM   10  C9  UNL     1      16.517   4.104  15.783  1.00  0.00     0.069 C 
HETATM   11  C10 UNL     1      16.970   4.415  14.387  1.00  0.00     0.456 C 
ENDROOT
BRANCH   1  12
HETATM   12  C2  UNL     1      16.986   2.445  12.969  1.00  0.00     0.271 C 
HETATM   13  C1  UNL     1      16.665   1.946  11.602  1.00  0.00     0.037 C 
ENDBRANCH   1  12
TORSDOF 1
ENDMDL
MODEL 4
REMARK VINA RESULT: -5.478484123      2.048      4.502
REMARK  1 active torsions:
REMARK  status: ('A' for Active; 'I' for Inactive)
REMARK    1  A    between atoms: C2_2  and  N1_3 
ROOT
HETATM    1  N1  UNL     1      14.924   3.918  16.444  1.00  0.00     0.123 N 
HETATM    2  C3  UNL     1      15.660   2.699  16.148  1.00  0.00     0.305 C 
HETATM    3  C4  UNL     1      17.109   3.121  16.011  1.00  0.00     0.305 C 
HETATM    4  N2  UNL     1      16.976   4.533  15.598  1.00  0.00     0.126 N 
HETATM    5  C5  UNL     1      16.687   4.459  14.177  1.00  0.00     0.312 C 
HETATM    6  C6  UNL     1      16.977   5.731  13.448  1.00  0.00     0.198 C 
HETATM    7  F1  UNL     1      18.208   6.192  13.889  1.00  0.00    -0.248 F 
HETATM    8  C7  UNL     1      15.893   6.748  13.547  1.00  0.00     0.039 C 
HETATM    9  C8  UNL     1      14.805   6.340  14.546  1.00  0.00     0.007 C 
HETATM   10  C9  UNL     1      15.339   6.294  15.933  1.00  0.00     0.069 C 
HETATM   11  C10 UNL     1      15.857   4.960  16.382  1.00  0.00     0.456 C 
ENDROOT
BRANCH   1  12
HETATM   12  C2  UNL     1      14.193   3.704  17.625  1.00  0.00     0.271 C 
HETATM   13  C1  UNL     1      14.844   4.100  18.905  1.00  0.00     0.037 C 
ENDBRANCH   1  12
TORSDOF 1
ENDMDL
MODEL 5
REMARK VINA RESULT: -5.293935470      1.604      3.084
REMARK  1 active torsions:
REMARK  status: ('A' for Active; 'I' for Inactive)
REMARK    1  A    between atoms: C2_2  and  N1_3 
ROOT
HETATM    1  N1  UNL     1      16.849   6.022  13.449  1.00  0.00     0.123 N 
HETATM    2  C3  UNL     1      17.689   4.843  13.308  1.00  0.00     0.305 C 
HETATM    3  C4  UNL     1      16.764   3.658  13.504  1.00  0.00     0.305 C 
HETATM    4  N2  UNL     1      15.702   4.239  14.350  1.00  0.00     0.126 N 
HETATM    5  C5  UNL     1      16.271   4.233  15.686  1.00  0.00     0.312 C 
HETATM    6  C6  UNL     1      15.243   4.321  16.767  1.00  0.00     0.198 C 
HETATM    7  F1  UNL     1      14.218   3.449  16.439  1.00  0.00    -0.248 F 
HETATM    8  C7  UNL     1      14.775   5.708  17.046  1.00  0.00     0.039 C 
HETATM    9  C8  UNL     1      15.305   6.716  16.021  1.00  0.00     0.007 C 
HETATM   10  C9  UNL     1      14.749   6.449  14.668  1.00  0.00     0.069 C 
HETATM   11  C10 UNL     1      15.576   5.553  13.795  1.00  0.00     0.456 C 
ENDROOT
BRANCH   1  12
HETATM   12  C2  UNL     1      17.014   6.809  12.296  1.00  0.00     0.271 C 
HETATM   13  C1  UNL     1      17.293   8.258  12.501  1.00  0.00     0.037 C 
ENDBRANCH   1  12
TORSDOF 1
ENDMDL
