MODEL 1
REMARK VINA RESULT: -4.861223258      0.000      0.000
REMARK  1 active torsions:
REMARK  status: ('A' for Active; 'I' for Inactive)
REMARK    1  A    between atoms: C3_3  and  C4_4 
ROOT
HETATM    1  C1  UNL     1      15.994   3.356  11.099  1.00  0.00     0.045 C 
HETATM    2  C2  UNL     1      16.625   2.388  12.016  1.00  0.00     0.249 C 
HETATM    3  C3  UNL     1      17.410   2.877  13.161  1.00  0.00     0.222 C 
HETATM    4  N1  UNL     1      18.351   3.871  12.707  1.00  0.00    -0.067 N 
ATOM      5  H11 UNL     1      18.825   4.339  13.480  1.00  0.00     0.277 HD
ATOM      6  H12 UNL     1      17.891   4.689  12.307  1.00  0.00     0.277 HD
HETATM    7  C7  UNL     1      19.269   3.257  11.794  1.00  0.00     0.263 C 
HETATM    8  C8  UNL     1      18.687   2.358  10.771  1.00  0.00     0.300 C 
HETATM    9  N2  UNL     1      17.551   1.599  11.179  1.00  0.00     0.092 N 
HETATM   10  C9  UNL     1      17.836   0.323  11.745  1.00  0.00     0.310 C 
ENDROOT
BRANCH   3  11
HETATM   11  C4  UNL     1      16.698   3.241  14.412  1.00  0.00     0.018 A 
HETATM   12  C5  UNL     1      16.968   2.294  15.582  1.00  0.00     0.007 A 
HETATM   13  C6  UNL     1      17.366   3.736  15.627  1.00  0.00     0.007 A 
ENDBRANCH   3  11
TORSDOF 1
ENDMDL
MODEL 2
REMARK VINA RESULT: -4.732867669      1.889      4.260
REMARK  1 active torsions:
REMARK  status: ('A' for Active; 'I' for Inactive)
REMARK    1  A    between atoms: C3_3  and  C4_4 
ROOT
HETATM    1  C1  UNL     1      17.546   3.298  16.095  1.00  0.00     0.045 C 
HETATM    2  C2  UNL     1      16.610   3.715  15.035  1.00  0.00     0.249 C 
HETATM    3  C3  UNL     1      17.046   3.688  13.629  1.00  0.00     0.222 C 
HETATM    4  N1  UNL     1      18.317   4.357  13.509  1.00  0.00    -0.067 N 
ATOM      5  H11 UNL     1      18.728   4.248  12.581  1.00  0.00     0.277 HD
ATOM      6  H12 UNL     1      19.052   3.895  14.044  1.00  0.00     0.277 HD
HETATM    7  C7  UNL     1      18.154   5.732  13.876  1.00  0.00     0.263 C 
HETATM    8  C8  UNL     1      17.358   6.004  15.095  1.00  0.00     0.300 C 
HETATM    9  N2  UNL     1      16.268   5.119  15.340  1.00  0.00     0.092 N 
HETATM   10  C9  UNL     1      15.021   5.507  14.770  1.00  0.00     0.310 C 
ENDROOT
BRANCH   3  11
HETATM   11  C4  UNL     1      16.958   2.410  12.879  1.00  0.00     0.018 A 
HETATM   12  C5  UNL     1      16.352   2.546  11.481  1.00  0.00     0.007 A 
HETATM   13  C6  UNL     1      17.765   2.096  11.688  1.00  0.00     0.007 A 
ENDBRANCH   3  11
TORSDOF 1
ENDMDL
MODEL 3
REMARK VINA RESULT: -4.610730035      2.671      4.292
REMARK  1 active torsions:
REMARK  status: ('A' for Active; 'I' for Inactive)
REMARK    1  A    between atoms: C3_3  and  C4_4 
ROOT
HETATM    1  C1  UNL     1      16.795   2.940  13.796  1.00  0.00     0.045 C 
HETATM    2  C2  UNL     1      17.167   3.757  14.967  1.00  0.00     0.249 C 
HETATM    3  C3  UNL     1      16.148   4.083  15.977  1.00  0.00     0.222 C 
HETATM    4  N1  UNL     1      14.972   4.599  15.322  1.00  0.00    -0.067 N 
ATOM      5  H11 UNL     1      14.187   4.714  15.964  1.00  0.00     0.277 HD
ATOM      6  H12 UNL     1      14.544   3.916  14.696  1.00  0.00     0.277 HD
HETATM    7  C7  UNL     1      15.312   5.818  14.651  1.00  0.00     0.263 C 
HETATM    8  C8  UNL     1      16.575   5.821  13.878  1.00  0.00     0.300 C 
HETATM    9  N2  UNL     1      17.639   5.042  14.417  1.00  0.00     0.092 N 
HETATM   10  C9  UNL     1      18.508   5.728  15.315  1.00  0.00     0.310 C 
ENDROOT
BRANCH   3  11
HETATM   11  C4  UNL     1      15.863   3.097  17.050  1.00  0.00     0.018 A 
HETATM   12  C5  UNL     1      15.157   3.689  18.271  1.00  0.00     0.007 A 
HETATM   13  C6  UNL     1      14.511   2.644  17.415  1.00  0.00     0.007 A 
ENDBRANCH   3  11
TORSDOF 1
ENDMDL
MODEL 4
REMARK VINA RESULT: -4.608431985      2.771      3.970
REMARK  1 active torsions:
REMARK  status: ('A' for Active; 'I' for Inactive)
REMARK    1  A    between atoms: C3_3  and  C4_4 
ROOT
HETATM    1  C1  UNL     1      15.263   6.715  14.761  1.00  0.00     0.045 C 
HETATM    2  C2  UNL     1      15.310   5.253  14.572  1.00  0.00     0.249 C 
HETATM    3  C3  UNL     1      15.641   4.383  15.713  1.00  0.00     0.222 C 
HETATM    4  N1  UNL     1      16.833   4.874  16.359  1.00  0.00    -0.067 N 
ATOM      5  H11 UNL     1      17.029   4.389  17.234  1.00  0.00     0.277 HD
ATOM      6  H12 UNL     1      16.711   5.812  16.741  1.00  0.00     0.277 HD
HETATM    7  C7  UNL     1      17.925   4.798  15.435  1.00  0.00     0.263 C 
HETATM    8  C8  UNL     1      17.662   5.264  14.054  1.00  0.00     0.300 C 
HETATM    9  N2  UNL     1      16.350   5.020  13.552  1.00  0.00     0.092 N 
HETATM   10  C9  UNL     1      16.174   3.779  12.873  1.00  0.00     0.310 C 
ENDROOT
BRANCH   3  11
HETATM   11  C4  UNL     1      14.559   3.992  16.651  1.00  0.00     0.018 A 
HETATM   12  C5  UNL     1      14.612   2.528  17.090  1.00  0.00     0.007 A 
HETATM   13  C6  UNL     1      14.778   3.650  18.066  1.00  0.00     0.007 A 
ENDBRANCH   3  11
TORSDOF 1
ENDMDL
MODEL 5
REMARK VINA RESULT: -4.442655962      2.721      4.340
REMARK  1 active torsions:
REMARK  status: ('A' for Active; 'I' for Inactive)
REMARK    1  A    between atoms: C3_3  and  C4_4 
ROOT
HETATM    1  C1  UNL     1      18.569   5.544  15.248  1.00  0.00     0.045 C 
HETATM    2  C2  UNL     1      17.110   5.514  15.467  1.00  0.00     0.249 C 
HETATM    3  C3  UNL     1      16.419   4.218  15.574  1.00  0.00     0.222 C 
HETATM    4  N1  UNL     1      16.808   3.376  14.471  1.00  0.00    -0.067 N 
ATOM      5  H11 UNL     1      16.463   2.420  14.570  1.00  0.00     0.277 HD
ATOM      6  H12 UNL     1      17.807   3.167  14.474  1.00  0.00     0.277 HD
HETATM    7  C7  UNL     1      16.381   3.986  13.248  1.00  0.00     0.263 C 
HETATM    8  C8  UNL     1      16.626   5.440  13.109  1.00  0.00     0.300 C 
HETATM    9  N2  UNL     1      16.522   6.208  14.305  1.00  0.00     0.092 N 
HETATM   10  C9  UNL     1      15.227   6.732  14.587  1.00  0.00     0.310 C 
ENDROOT
BRANCH   3  11
HETATM   11  C4  UNL     1      16.394   3.528  16.888  1.00  0.00     0.018 A 
HETATM   12  C5  UNL     1      15.111   3.752  17.688  1.00  0.00     0.007 A 
HETATM   13  C6  UNL     1      15.512   2.393  17.206  1.00  0.00     0.007 A 
ENDBRANCH   3  11
TORSDOF 1
ENDMDL
