MODEL 1
REMARK VINA RESULT: -4.983677061      0.000      0.000
REMARK  3 active torsions:
REMARK  status: ('A' for Active; 'I' for Inactive)
REMARK    1  A    between atoms: N1_2  and  C2_5 
REMARK    2  A    between atoms: C2_5  and  C3_6 
REMARK    3  A    between atoms: C4_7  and  C5_8 
ROOT
HETATM    1  C5  UNL     1      16.976   2.593  12.658  1.00  0.00     0.092 C 
HETATM    2  C6  UNL     1      18.309   3.051  12.166  1.00  0.00     0.249 C 
HETATM    3  N2  UNL     1      18.890   1.970  11.406  1.00  0.00    -0.070 N 
ATOM      4  H21 UNL     1      19.767   1.638  11.806  1.00  0.00     0.277 HD
ATOM      5  H22 UNL     1      19.255   2.278  10.505  1.00  0.00     0.277 HD
HETATM    6  C7  UNL     1      17.917   0.929  11.278  1.00  0.00     0.183 C 
HETATM    7  C8  UNL     1      18.597  -0.431  11.441  1.00  0.00     0.040 C 
HETATM    8  C9  UNL     1      17.003   1.096  12.451  1.00  0.00     0.051 C 
ENDROOT
BRANCH   1   9
HETATM    9  C4  UNL     1      16.848   2.925  14.092  1.00  0.00    -0.098 C 
HETATM   10  C3  UNL     1      16.723   3.189  15.277  1.00  0.00    -0.079 C 
BRANCH  10  11
HETATM   11  C2  UNL     1      16.555   3.484  16.697  1.00  0.00     0.325 C 
BRANCH  11  12
HETATM   12  N1  UNL     1      15.880   2.366  17.302  1.00  0.00    -0.069 N 
HETATM   13  C1  UNL     1      14.451   2.621  17.249  1.00  0.00     0.267 C 
ATOM     14  H12 UNL     1      16.211   2.170  18.246  1.00  0.00     0.277 HD
ATOM     15  H11 UNL     1      16.137   1.474  16.878  1.00  0.00     0.277 HD
ENDBRANCH  11  12
ENDBRANCH  10  11
ENDBRANCH   1   9
TORSDOF 3
ENDMDL
MODEL 2
REMARK VINA RESULT: -4.948997644      1.237      5.522
REMARK  3 active torsions:
REMARK  status: ('A' for Active; 'I' for Inactive)
REMARK    1  A    between atoms: N1_2  and  C2_5 
REMARK    2  A    between atoms: C2_5  and  C3_6 
REMARK    3  A    between atoms: C4_7  and  C5_8 
ROOT
HETATM    1  C5  UNL     1      16.800   3.557  15.009  1.00  0.00     0.092 C 
HETATM    2  C6  UNL     1      15.860   4.709  14.884  1.00  0.00     0.249 C 
HETATM    3  N2  UNL     1      14.956   4.661  16.009  1.00  0.00    -0.070 N 
ATOM      4  H21 UNL     1      13.983   4.549  15.723  1.00  0.00     0.277 HD
ATOM      5  H22 UNL     1      14.863   5.563  16.474  1.00  0.00     0.277 HD
HETATM    6  C7  UNL     1      15.389   3.627  16.897  1.00  0.00     0.183 C 
HETATM    7  C8  UNL     1      14.174   2.871  17.435  1.00  0.00     0.040 C 
HETATM    8  C9  UNL     1      16.149   2.663  16.041  1.00  0.00     0.051 C 
ENDROOT
BRANCH   1   9
HETATM    9  C4  UNL     1      16.900   2.869  13.705  1.00  0.00    -0.098 C 
HETATM   10  C3  UNL     1      16.965   2.291  12.632  1.00  0.00    -0.079 C 
BRANCH  10  11
HETATM   11  C2  UNL     1      17.015   1.594  11.350  1.00  0.00     0.325 C 
BRANCH  11  12
HETATM   12  N1  UNL     1      18.334   1.036  11.204  1.00  0.00    -0.069 N 
HETATM   13  C1  UNL     1      18.272  -0.369  11.566  1.00  0.00     0.267 C 
ATOM     14  H12 UNL     1      19.039   1.548  11.733  1.00  0.00     0.277 HD
ATOM     15  H11 UNL     1      18.725   1.187  10.273  1.00  0.00     0.277 HD
ENDBRANCH  11  12
ENDBRANCH  10  11
ENDBRANCH   1   9
TORSDOF 3
ENDMDL
MODEL 3
REMARK VINA RESULT: -4.811255943      1.452      5.613
REMARK  3 active torsions:
REMARK  status: ('A' for Active; 'I' for Inactive)
REMARK    1  A    between atoms: N1_2  and  C2_5 
REMARK    2  A    between atoms: C2_5  and  C3_6 
REMARK    3  A    between atoms: C4_7  and  C5_8 
ROOT
HETATM    1  C5  UNL     1      16.781   3.678  15.205  1.00  0.00     0.092 C 
HETATM    2  C6  UNL     1      15.832   4.824  15.086  1.00  0.00     0.249 C 
HETATM    3  N2  UNL     1      14.853   4.691  16.138  1.00  0.00    -0.070 N 
ATOM      4  H21 UNL     1      13.904   4.585  15.778  1.00  0.00     0.277 HD
ATOM      5  H22 UNL     1      14.711   5.560  16.652  1.00  0.00     0.277 HD
HETATM    6  C7  UNL     1      15.240   3.608  16.988  1.00  0.00     0.183 C 
HETATM    7  C8  UNL     1      14.004   2.803  17.389  1.00  0.00     0.040 C 
HETATM    8  C9  UNL     1      16.076   2.712  16.129  1.00  0.00     0.051 C 
ENDROOT
BRANCH   1   9
HETATM    9  C4  UNL     1      16.985   3.078  13.870  1.00  0.00    -0.098 C 
HETATM   10  C3  UNL     1      17.140   2.596  12.760  1.00  0.00    -0.079 C 
BRANCH  10  11
HETATM   11  C2  UNL     1      17.316   2.043  11.419  1.00  0.00     0.325 C 
BRANCH  11  12
HETATM   12  N1  UNL     1      18.663   1.546  11.323  1.00  0.00    -0.069 N 
HETATM   13  C1  UNL     1      19.557   2.686  11.213  1.00  0.00     0.267 C 
ATOM     14  H12 UNL     1      18.783   0.877  10.562  1.00  0.00     0.277 HD
ATOM     15  H11 UNL     1      18.910   0.923  12.093  1.00  0.00     0.277 HD
ENDBRANCH  11  12
ENDBRANCH  10  11
ENDBRANCH   1   9
TORSDOF 3
ENDMDL
MODEL 4
REMARK VINA RESULT: -4.736690696      3.293      5.807
REMARK  3 active torsions:
REMARK  status: ('A' for Active; 'I' for Inactive)
REMARK    1  A    between atoms: N1_2  and  C2_5 
REMARK    2  A    between atoms: C2_5  and  C3_6 
REMARK    3  A    between atoms: C4_7  and  C5_8 
ROOT
HETATM    1  C5  UNL     1      16.177   3.946  15.316  1.00  0.00     0.092 C 
HETATM    2  C6  UNL     1      16.809   2.693  15.825  1.00  0.00     0.249 C 
HETATM    3  N2  UNL     1      16.131   2.326  17.045  1.00  0.00    -0.070 N 
ATOM      4  H21 UNL     1      16.756   2.313  17.851  1.00  0.00     0.277 HD
ATOM      5  H22 UNL     1      15.861   1.342  17.061  1.00  0.00     0.277 HD
HETATM    6  C7  UNL     1      15.017   3.204  17.230  1.00  0.00     0.183 C 
HETATM    7  C8  UNL     1      14.903   3.583  18.706  1.00  0.00     0.040 C 
HETATM    8  C9  UNL     1      15.374   4.455  16.491  1.00  0.00     0.051 C 
ENDROOT
BRANCH   1   9
HETATM    9  C4  UNL     1      17.237   4.908  14.945  1.00  0.00    -0.098 C 
HETATM   10  C3  UNL     1      18.111   5.709  14.659  1.00  0.00    -0.079 C 
BRANCH  10  11
HETATM   11  C2  UNL     1      19.164   6.671  14.344  1.00  0.00     0.325 C 
BRANCH  11  12
HETATM   12  N1  UNL     1      20.241   5.952  13.715  1.00  0.00    -0.069 N 
HETATM   13  C1  UNL     1      19.890   5.743  12.321  1.00  0.00     0.267 C 
ATOM     14  H12 UNL     1      20.471   5.084  14.198  1.00  0.00     0.277 HD
ATOM     15  H11 UNL     1      21.143   6.415  13.829  1.00  0.00     0.277 HD
ENDBRANCH  11  12
ENDBRANCH  10  11
ENDBRANCH   1   9
TORSDOF 3
ENDMDL
MODEL 5
REMARK VINA RESULT: -4.710304108      1.636      5.516
REMARK  3 active torsions:
REMARK  status: ('A' for Active; 'I' for Inactive)
REMARK    1  A    between atoms: N1_2  and  C2_5 
REMARK    2  A    between atoms: C2_5  and  C3_6 
REMARK    3  A    between atoms: C4_7  and  C5_8 
ROOT
HETATM    1  C5  UNL     1      16.627   4.256  15.284  1.00  0.00     0.092 C 
HETATM    2  C6  UNL     1      15.563   5.301  15.338  1.00  0.00     0.249 C 
HETATM    3  N2  UNL     1      14.644   4.937  16.390  1.00  0.00    -0.070 N 
ATOM      4  H21 UNL     1      13.698   4.776  16.044  1.00  0.00     0.277 HD
ATOM      5  H22 UNL     1      14.435   5.716  17.013  1.00  0.00     0.277 HD
HETATM    6  C7  UNL     1      15.173   3.804  17.085  1.00  0.00     0.183 C 
HETATM    7  C8  UNL     1      14.042   2.830  17.413  1.00  0.00     0.040 C 
HETATM    8  C9  UNL     1      16.061   3.114  16.097  1.00  0.00     0.051 C 
ENDROOT
BRANCH   1   9
HETATM    9  C4  UNL     1      16.837   3.849  13.879  1.00  0.00    -0.098 C 
HETATM   10  C3  UNL     1      16.990   3.515  12.715  1.00  0.00    -0.079 C 
BRANCH  10  11
HETATM   11  C2  UNL     1      17.149   3.127  11.316  1.00  0.00     0.325 C 
BRANCH  11  12
HETATM   12  N1  UNL     1      16.403   1.914  11.109  1.00  0.00    -0.069 N 
HETATM   13  C1  UNL     1      17.093   0.837  11.797  1.00  0.00     0.267 C 
ATOM     14  H12 UNL     1      16.244   1.713  10.122  1.00  0.00     0.277 HD
ATOM     15  H11 UNL     1      15.426   2.000  11.390  1.00  0.00     0.277 HD
ENDBRANCH  11  12
ENDBRANCH  10  11
ENDBRANCH   1   9
TORSDOF 3
ENDMDL
