MODEL 1
REMARK VINA RESULT: -4.697343982      0.000      0.000
REMARK  2 active torsions:
REMARK  status: ('A' for Active; 'I' for Inactive)
REMARK    1  A    between atoms: C2_2  and  C3_3 
REMARK    2  A    between atoms: C3_3  and  N1_4 
ROOT
HETATM    1  N1  UNL     1      15.188   4.806  15.740  1.00  0.00     0.098 N 
HETATM    2  C4  UNL     1      14.949   6.041  15.008  1.00  0.00     0.280 C 
HETATM    3  C5  UNL     1      16.353   5.787  14.429  1.00  0.00     0.050 C 
HETATM    4  C6  UNL     1      16.230   4.729  13.368  1.00  0.00     0.027 C 
HETATM    5  C7  UNL     1      16.632   3.363  13.828  1.00  0.00     0.114 C 
HETATM    6  N2  UNL     1      17.758   3.367  14.707  1.00  0.00    -0.419 N 
ATOM      7  H2  UNL     1      18.608   2.838  14.512  1.00  0.00     0.153 HD
HETATM    8  C8  UNL     1      17.606   4.164  15.877  1.00  0.00     0.150 C 
HETATM    9  C9  UNL     1      16.553   5.208  15.828  1.00  0.00     0.246 C 
ENDROOT
BRANCH   1  10
HETATM   10  C3  UNL     1      14.420   4.686  16.951  1.00  0.00     0.299 C 
BRANCH  10  11
HETATM   11  C2  UNL     1      14.043   3.249  17.058  1.00  0.00    -0.007 C 
HETATM   12  C1  UNL     1      14.882   2.328  17.520  1.00  0.00     0.008 C 
ENDBRANCH  10  11
ENDBRANCH   1  10
TORSDOF 2
ENDMDL
MODEL 2
REMARK VINA RESULT: -4.590859534      1.828      3.790
REMARK  2 active torsions:
REMARK  status: ('A' for Active; 'I' for Inactive)
REMARK    1  A    between atoms: C2_2  and  C3_3 
REMARK    2  A    between atoms: C3_3  and  N1_4 
ROOT
HETATM    1  N1  UNL     1      16.848   5.143  15.607  1.00  0.00     0.098 N 
HETATM    2  C4  UNL     1      15.622   5.863  15.295  1.00  0.00     0.280 C 
HETATM    3  C5  UNL     1      14.951   4.491  15.483  1.00  0.00     0.050 C 
HETATM    4  C6  UNL     1      14.833   4.234  16.960  1.00  0.00     0.027 C 
HETATM    5  C7  UNL     1      15.890   3.321  17.500  1.00  0.00     0.114 C 
HETATM    6  N2  UNL     1      16.229   2.254  16.613  1.00  0.00    -0.419 N 
ATOM      7  H2  UNL     1      16.165   1.274  16.886  1.00  0.00     0.153 HD
HETATM    8  C8  UNL     1      16.662   2.662  15.320  1.00  0.00     0.150 C 
HETATM    9  C9  UNL     1      16.289   4.036  14.904  1.00  0.00     0.246 C 
ENDROOT
BRANCH   1  10
HETATM   10  C3  UNL     1      18.039   5.764  15.089  1.00  0.00     0.299 C 
BRANCH  10  11
HETATM   11  C2  UNL     1      17.652   7.157  14.730  1.00  0.00    -0.007 C 
HETATM   12  C1  UNL     1      18.549   8.079  14.399  1.00  0.00     0.008 C 
ENDBRANCH  10  11
ENDBRANCH   1  10
TORSDOF 2
ENDMDL
MODEL 3
REMARK VINA RESULT: -4.577259137      1.379      4.022
REMARK  2 active torsions:
REMARK  status: ('A' for Active; 'I' for Inactive)
REMARK    1  A    between atoms: C2_2  and  C3_3 
REMARK    2  A    between atoms: C3_3  and  N1_4 
ROOT
HETATM    1  N1  UNL     1      16.133   3.348  15.127  1.00  0.00     0.098 N 
HETATM    2  C4  UNL     1      17.255   2.754  15.839  1.00  0.00     0.280 C 
HETATM    3  C5  UNL     1      16.531   3.271  17.095  1.00  0.00     0.050 C 
HETATM    4  C6  UNL     1      15.398   2.329  17.394  1.00  0.00     0.027 C 
HETATM    5  C7  UNL     1      14.063   2.826  16.934  1.00  0.00     0.114 C 
HETATM    6  N2  UNL     1      13.888   4.233  17.107  1.00  0.00    -0.419 N 
ATOM      7  H2  UNL     1      13.119   4.628  17.647  1.00  0.00     0.153 HD
HETATM    8  C8  UNL     1      14.869   5.044  16.469  1.00  0.00     0.150 C 
HETATM    9  C9  UNL     1      16.145   4.376  16.115  1.00  0.00     0.246 C 
ENDROOT
BRANCH   1  10
HETATM   10  C3  UNL     1      16.424   3.695  13.761  1.00  0.00     0.299 C 
BRANCH  10  11
HETATM   11  C2  UNL     1      17.176   2.540  13.196  1.00  0.00    -0.007 C 
HETATM   12  C1  UNL     1      16.816   1.943  12.066  1.00  0.00     0.008 C 
ENDBRANCH  10  11
ENDBRANCH   1  10
TORSDOF 2
ENDMDL
MODEL 4
REMARK VINA RESULT: -4.572947915      1.535      3.801
REMARK  2 active torsions:
REMARK  status: ('A' for Active; 'I' for Inactive)
REMARK    1  A    between atoms: C2_2  and  C3_3 
REMARK    2  A    between atoms: C3_3  and  N1_4 
ROOT
HETATM    1  N1  UNL     1      16.565   3.349  14.592  1.00  0.00     0.098 N 
HETATM    2  C4  UNL     1      16.359   2.565  15.801  1.00  0.00     0.280 C 
HETATM    3  C5  UNL     1      16.381   3.933  16.506  1.00  0.00     0.050 C 
HETATM    4  C6  UNL     1      15.044   4.586  16.287  1.00  0.00     0.027 C 
HETATM    5  C7  UNL     1      15.047   5.617  15.202  1.00  0.00     0.114 C 
HETATM    6  N2  UNL     1      16.240   6.400  15.163  1.00  0.00    -0.419 N 
ATOM      7  H2  UNL     1      16.230   7.418  15.231  1.00  0.00     0.153 HD
HETATM    8  C8  UNL     1      17.444   5.655  15.021  1.00  0.00     0.150 C 
HETATM    9  C9  UNL     1      17.374   4.217  15.382  1.00  0.00     0.246 C 
ENDROOT
BRANCH   1  10
HETATM   10  C3  UNL     1      17.180   2.615  13.517  1.00  0.00     0.299 C 
BRANCH  10  11
HETATM   11  C2  UNL     1      16.543   3.111  12.265  1.00  0.00    -0.007 C 
HETATM   12  C1  UNL     1      16.385   2.340  11.196  1.00  0.00     0.008 C 
ENDBRANCH  10  11
ENDBRANCH   1  10
TORSDOF 2
ENDMDL
MODEL 5
REMARK VINA RESULT: -4.480377801      1.522      3.535
REMARK  2 active torsions:
REMARK  status: ('A' for Active; 'I' for Inactive)
REMARK    1  A    between atoms: C2_2  and  C3_3 
REMARK    2  A    between atoms: C3_3  and  N1_4 
ROOT
HETATM    1  N1  UNL     1      16.300   5.929  14.994  1.00  0.00     0.098 N 
HETATM    2  C4  UNL     1      15.028   6.004  15.696  1.00  0.00     0.280 C 
HETATM    3  C5  UNL     1      15.089   4.466  15.651  1.00  0.00     0.050 C 
HETATM    4  C6  UNL     1      16.044   4.011  16.718  1.00  0.00     0.027 C 
HETATM    5  C7  UNL     1      17.404   3.661  16.200  1.00  0.00     0.114 C 
HETATM    6  N2  UNL     1      17.380   3.001  14.934  1.00  0.00    -0.419 N 
ATOM      7  H2  UNL     1      17.804   2.086  14.785  1.00  0.00     0.153 HD
HETATM    8  C8  UNL     1      16.719   3.716  13.896  1.00  0.00     0.150 C 
HETATM    9  C9  UNL     1      15.780   4.782  14.326  1.00  0.00     0.246 C 
ENDROOT
BRANCH   1  10
HETATM   10  C3  UNL     1      16.610   7.101  14.218  1.00  0.00     0.299 C 
BRANCH  10  11
HETATM   11  C2  UNL     1      18.005   7.477  14.583  1.00  0.00    -0.007 C 
HETATM   12  C1  UNL     1      19.021   6.629  14.470  1.00  0.00     0.008 C 
ENDBRANCH  10  11
ENDBRANCH   1  10
TORSDOF 2
ENDMDL
