MODEL 1
REMARK VINA RESULT: -4.863098395      0.000      0.000
REMARK  1 active torsions:
REMARK  status: ('A' for Active; 'I' for Inactive)
REMARK    1  A    between atoms: N1_5  and  C4_6 
ROOT
HETATM    1  C4  UNL     1       4.898  -3.515  14.306  1.00  0.00     0.250 C 
HETATM    2  C5  UNL     1       4.788  -5.020  14.454  1.00  0.00     0.065 C 
HETATM    3  C6  UNL     1       3.333  -5.118  14.927  1.00  0.00     0.234 C 
HETATM    4  N2  UNL     1       3.328  -4.108  15.970  1.00  0.00    -0.073 N 
ATOM      5  H21 UNL     1       3.631  -4.459  16.878  1.00  0.00     0.277 HD
ATOM      6  H22 UNL     1       2.391  -3.823  16.254  1.00  0.00     0.277 HD
HETATM    7  C7  UNL     1       4.136  -3.016  15.477  1.00  0.00     0.268 C 
ENDROOT
BRANCH   1   8
HETATM    8  N1  UNL     1       4.301  -3.150  13.068  1.00  0.00     0.096 N 
HETATM    9  C3  UNL     1       4.870  -3.747  11.904  1.00  0.00     0.274 C 
HETATM   10  C2  UNL     1       5.013  -2.613  10.876  1.00  0.00     0.052 C 
HETATM   11  C1  UNL     1       3.855  -1.723  11.338  1.00  0.00     0.112 C 
HETATM   12 CL1  UNL     1       2.355  -2.607  11.049  1.00  0.00    -0.123 Cl
HETATM   13  C8  UNL     1       4.121  -1.754  12.850  1.00  0.00     0.293 C 
ENDBRANCH   1   8
TORSDOF 1
ENDMDL
MODEL 2
REMARK VINA RESULT: -4.718701996      2.233      4.137
REMARK  1 active torsions:
REMARK  status: ('A' for Active; 'I' for Inactive)
REMARK    1  A    between atoms: N1_5  and  C4_6 
ROOT
HETATM    1  C4  UNL     1       3.582  -2.883  12.689  1.00  0.00     0.250 C 
HETATM    2  C5  UNL     1       3.647  -3.995  11.660  1.00  0.00     0.065 C 
HETATM    3  C6  UNL     1       5.069  -3.766  11.137  1.00  0.00     0.234 C 
HETATM    4  N2  UNL     1       5.039  -2.332  10.912  1.00  0.00    -0.073 N 
ATOM      5  H21 UNL     1       4.675  -2.072   9.995  1.00  0.00     0.277 HD
ATOM      6  H22 UNL     1       5.964  -1.919  10.800  1.00  0.00     0.277 HD
HETATM    7  C7  UNL     1       4.286  -1.769  12.009  1.00  0.00     0.268 C 
ENDROOT
BRANCH   1   8
HETATM    8  N1  UNL     1       4.257  -3.326  13.859  1.00  0.00     0.096 N 
HETATM    9  C3  UNL     1       3.736  -4.506  14.468  1.00  0.00     0.274 C 
HETATM   10  C2  UNL     1       3.685  -4.214  15.976  1.00  0.00     0.052 C 
HETATM   11  C1  UNL     1       4.842  -3.215  16.067  1.00  0.00     0.112 C 
HETATM   12 CL1  UNL     1       6.328  -4.082  15.676  1.00  0.00    -0.123 Cl
HETATM   13  C8  UNL     1       4.491  -2.336  14.857  1.00  0.00     0.293 C 
ENDBRANCH   1   8
TORSDOF 1
ENDMDL
MODEL 3
REMARK VINA RESULT: -4.612901367      3.578      4.754
REMARK  1 active torsions:
REMARK  status: ('A' for Active; 'I' for Inactive)
REMARK    1  A    between atoms: N1_5  and  C4_6 
ROOT
HETATM    1  C4  UNL     1       4.587  -4.417  14.724  1.00  0.00     0.250 C 
HETATM    2  C5  UNL     1       3.700  -5.630  14.930  1.00  0.00     0.065 C 
HETATM    3  C6  UNL     1       4.766  -6.730  14.870  1.00  0.00     0.234 C 
HETATM    4  N2  UNL     1       5.485  -6.334  13.673  1.00  0.00    -0.073 N 
ATOM      5  H21 UNL     1       5.077  -6.703  12.814  1.00  0.00     0.277 HD
ATOM      6  H22 UNL     1       6.396  -6.782  13.581  1.00  0.00     0.277 HD
HETATM    7  C7  UNL     1       5.554  -4.891  13.704  1.00  0.00     0.268 C 
ENDROOT
BRANCH   1   8
HETATM    8  N1  UNL     1       5.206  -4.109  15.966  1.00  0.00     0.096 N 
HETATM    9  C3  UNL     1       4.658  -3.000  16.675  1.00  0.00     0.274 C 
HETATM   10  C2  UNL     1       5.860  -2.173  17.159  1.00  0.00     0.052 C 
HETATM   11  C1  UNL     1       6.891  -3.300  17.282  1.00  0.00     0.112 C 
HETATM   12 CL1  UNL     1       6.351  -4.380  18.569  1.00  0.00    -0.123 Cl
HETATM   13  C8  UNL     1       6.627  -4.009  15.946  1.00  0.00     0.293 C 
ENDBRANCH   1   8
TORSDOF 1
ENDMDL
MODEL 4
REMARK VINA RESULT: -4.567760663      3.136      4.758
REMARK  1 active torsions:
REMARK  status: ('A' for Active; 'I' for Inactive)
REMARK    1  A    between atoms: N1_5  and  C4_6 
ROOT
HETATM    1  C4  UNL     1       4.931  -5.371  15.020  1.00  0.00     0.250 C 
HETATM    2  C5  UNL     1       5.398  -5.116  13.600  1.00  0.00     0.065 C 
HETATM    3  C6  UNL     1       4.692  -3.780  13.342  1.00  0.00     0.234 C 
HETATM    4  N2  UNL     1       3.353  -4.096  13.806  1.00  0.00    -0.073 N 
ATOM      5  H21 UNL     1       2.767  -4.527  13.092  1.00  0.00     0.277 HD
ATOM      6  H22 UNL     1       2.773  -3.272  13.963  1.00  0.00     0.277 HD
HETATM    7  C7  UNL     1       3.519  -4.915  14.985  1.00  0.00     0.268 C 
ENDROOT
BRANCH   1   8
HETATM    8  N1  UNL     1       5.737  -4.592  15.895  1.00  0.00     0.096 N 
HETATM    9  C3  UNL     1       6.731  -5.307  16.624  1.00  0.00     0.274 C 
HETATM   10  C2  UNL     1       6.648  -4.787  18.069  1.00  0.00     0.052 C 
HETATM   11  C1  UNL     1       6.138  -3.371  17.786  1.00  0.00     0.112 C 
HETATM   12 CL1  UNL     1       7.408  -2.511  16.913  1.00  0.00    -0.123 Cl
HETATM   13  C8  UNL     1       5.036  -3.715  16.772  1.00  0.00     0.293 C 
ENDBRANCH   1   8
TORSDOF 1
ENDMDL
MODEL 5
REMARK VINA RESULT: -4.511833362      2.150      4.188
REMARK  1 active torsions:
REMARK  status: ('A' for Active; 'I' for Inactive)
REMARK    1  A    between atoms: N1_5  and  C4_6 
ROOT
HETATM    1  C4  UNL     1       4.195  -4.290  11.713  1.00  0.00     0.250 C 
HETATM    2  C5  UNL     1       5.138  -3.151  11.375  1.00  0.00     0.065 C 
HETATM    3  C6  UNL     1       4.208  -1.966  11.661  1.00  0.00     0.234 C 
HETATM    4  N2  UNL     1       3.017  -2.389  10.949  1.00  0.00    -0.073 N 
ATOM      5  H21 UNL     1       3.020  -2.130   9.962  1.00  0.00     0.277 HD
ATOM      6  H22 UNL     1       2.180  -1.868  11.211  1.00  0.00     0.277 HD
HETATM    7  C7  UNL     1       2.901  -3.812  11.168  1.00  0.00     0.268 C 
ENDROOT
BRANCH   1   8
HETATM    8  N1  UNL     1       4.174  -4.440  13.126  1.00  0.00     0.096 N 
HETATM    9  C3  UNL     1       5.416  -4.791  13.732  1.00  0.00     0.274 C 
HETATM   10  C2  UNL     1       5.092  -5.904  14.742  1.00  0.00     0.052 C 
HETATM   11  C1  UNL     1       3.650  -5.512  15.076  1.00  0.00     0.112 C 
HETATM   12 CL1  UNL     1       3.697  -3.953  15.900  1.00  0.00    -0.123 Cl
HETATM   13  C8  UNL     1       3.136  -5.263  13.650  1.00  0.00     0.293 C 
ENDBRANCH   1   8
TORSDOF 1
ENDMDL
