MODEL 1
REMARK VINA RESULT: -4.770042266      0.000      0.000
REMARK  1 active torsions:
REMARK  status: ('A' for Active; 'I' for Inactive)
REMARK    1  A    between atoms: N1_2  and  C2_5 
ROOT
HETATM    1  C2  UNL     1       5.115  -4.442  13.508  1.00  0.00     0.424 C 
HETATM    2  C3  UNL     1       3.777  -4.716  14.132  1.00  0.00     0.067 C 
HETATM    3  C4  UNL     1       4.090  -4.475  15.604  1.00  0.00     0.040 C 
HETATM    4  C5  UNL     1       5.600  -4.599  15.686  1.00  0.00     0.275 C 
HETATM    5  N2  UNL     1       6.013  -5.131  14.388  1.00  0.00     0.120 N 
HETATM    6  C6  UNL     1       5.834  -6.553  14.435  1.00  0.00     0.276 C 
HETATM    7  C7  UNL     1       4.421  -6.995  14.683  1.00  0.00     0.051 C 
HETATM    8  C8  UNL     1       3.443  -6.166  13.900  1.00  0.00     0.092 C 
HETATM    9 CL1  UNL     1       1.772  -6.442  14.413  1.00  0.00    -0.124 Cl
ENDROOT
BRANCH   1  10
HETATM   10  N1  UNL     1       5.219  -4.800  12.129  1.00  0.00    -0.047 N 
HETATM   11  C1  UNL     1       5.168  -3.570  11.354  1.00  0.00     0.269 C 
ATOM     12  H12 UNL     1       4.516  -5.481  11.840  1.00  0.00     0.279 HD
ATOM     13  H11 UNL     1       6.043  -5.365  11.926  1.00  0.00     0.279 HD
ENDBRANCH   1  10
TORSDOF 1
ENDMDL
MODEL 2
REMARK VINA RESULT: -4.710806072      1.045      1.176
REMARK  1 active torsions:
REMARK  status: ('A' for Active; 'I' for Inactive)
REMARK    1  A    between atoms: N1_2  and  C2_5 
ROOT
HETATM    1  C2  UNL     1       4.620  -4.397  13.467  1.00  0.00     0.424 C 
HETATM    2  C3  UNL     1       3.690  -5.530  13.793  1.00  0.00     0.067 C 
HETATM    3  C4  UNL     1       3.293  -5.175  15.222  1.00  0.00     0.040 C 
HETATM    4  C5  UNL     1       4.385  -4.231  15.685  1.00  0.00     0.275 C 
HETATM    5  N2  UNL     1       5.420  -4.303  14.654  1.00  0.00     0.120 N 
HETATM    6  C6  UNL     1       6.219  -5.460  14.933  1.00  0.00     0.276 C 
HETATM    7  C7  UNL     1       5.463  -6.757  14.917  1.00  0.00     0.051 C 
HETATM    8  C8  UNL     1       4.488  -6.808  13.776  1.00  0.00     0.092 C 
HETATM    9 CL1  UNL     1       3.364  -8.167  13.917  1.00  0.00    -0.124 Cl
ENDROOT
BRANCH   1  10
HETATM   10  N1  UNL     1       5.353  -4.553  12.251  1.00  0.00    -0.047 N 
HETATM   11  C1  UNL     1       5.055  -3.403  11.412  1.00  0.00     0.269 C 
ATOM     12  H12 UNL     1       5.169  -5.442  11.786  1.00  0.00     0.279 HD
ATOM     13  H11 UNL     1       6.352  -4.687  12.402  1.00  0.00     0.279 HD
ENDBRANCH   1  10
TORSDOF 1
ENDMDL
MODEL 3
REMARK VINA RESULT: -4.668329878      2.219      3.026
REMARK  1 active torsions:
REMARK  status: ('A' for Active; 'I' for Inactive)
REMARK    1  A    between atoms: N1_2  and  C2_5 
ROOT
HETATM    1  C2  UNL     1       5.066  -4.947  13.506  1.00  0.00     0.424 C 
HETATM    2  C3  UNL     1       6.139  -4.921  14.556  1.00  0.00     0.067 C 
HETATM    3  C4  UNL     1       5.975  -6.308  15.170  1.00  0.00     0.040 C 
HETATM    4  C5  UNL     1       4.573  -6.726  14.769  1.00  0.00     0.275 C 
HETATM    5  N2  UNL     1       3.957  -5.522  14.211  1.00  0.00     0.120 N 
HETATM    6  C6  UNL     1       3.475  -4.741  15.311  1.00  0.00     0.276 C 
HETATM    7  C7  UNL     1       4.536  -4.306  16.279  1.00  0.00     0.051 C 
HETATM    8  C8  UNL     1       5.780  -3.860  15.563  1.00  0.00     0.092 C 
HETATM    9 CL1  UNL     1       7.148  -3.653  16.666  1.00  0.00    -0.124 Cl
ENDROOT
BRANCH   1  10
HETATM   10  N1  UNL     1       4.805  -3.687  12.885  1.00  0.00    -0.047 N 
HETATM   11  C1  UNL     1       5.143  -3.817  11.476  1.00  0.00     0.269 C 
ATOM     12  H12 UNL     1       5.286  -2.911  13.339  1.00  0.00     0.279 HD
ATOM     13  H11 UNL     1       3.851  -3.359  13.036  1.00  0.00     0.279 HD
ENDBRANCH   1  10
TORSDOF 1
ENDMDL
MODEL 4
REMARK VINA RESULT: -4.612831463      3.676      4.968
REMARK  1 active torsions:
REMARK  status: ('A' for Active; 'I' for Inactive)
REMARK    1  A    between atoms: N1_2  and  C2_5 
ROOT
HETATM    1  C2  UNL     1       2.927  -3.451  11.160  1.00  0.00     0.424 C 
HETATM    2  C3  UNL     1       3.245  -2.052  10.719  1.00  0.00     0.067 C 
HETATM    3  C4  UNL     1       4.735  -2.174  10.421  1.00  0.00     0.040 C 
HETATM    4  C5  UNL     1       5.163  -3.414  11.182  1.00  0.00     0.275 C 
HETATM    5  N2  UNL     1       4.023  -3.757  12.032  1.00  0.00     0.120 N 
HETATM    6  C6  UNL     1       4.105  -2.936  13.204  1.00  0.00     0.276 C 
HETATM    7  C7  UNL     1       4.050  -1.460  12.937  1.00  0.00     0.051 C 
HETATM    8  C8  UNL     1       3.022  -1.132  11.891  1.00  0.00     0.092 C 
HETATM    9 CL1  UNL     1       3.157   0.538  11.322  1.00  0.00    -0.124 Cl
ENDROOT
BRANCH   1  10
HETATM   10  N1  UNL     1       1.628  -3.620  11.731  1.00  0.00    -0.047 N 
HETATM   11  C1  UNL     1       0.847  -4.426  10.807  1.00  0.00     0.269 C 
ATOM     12  H12 UNL     1       1.179  -2.735  11.966  1.00  0.00     0.279 HD
ATOM     13  H11 UNL     1       1.656  -4.009  12.673  1.00  0.00     0.279 HD
ENDBRANCH   1  10
TORSDOF 1
ENDMDL
MODEL 5
REMARK VINA RESULT: -4.566381915      2.383      3.418
REMARK  1 active torsions:
REMARK  status: ('A' for Active; 'I' for Inactive)
REMARK    1  A    between atoms: N1_2  and  C2_5 
ROOT
HETATM    1  C2  UNL     1       3.752  -5.434  14.924  1.00  0.00     0.424 C 
HETATM    2  C3  UNL     1       4.571  -5.087  13.715  1.00  0.00     0.067 C 
HETATM    3  C4  UNL     1       5.958  -4.954  14.333  1.00  0.00     0.040 C 
HETATM    4  C5  UNL     1       5.685  -4.740  15.810  1.00  0.00     0.275 C 
HETATM    5  N2  UNL     1       4.244  -4.511  15.905  1.00  0.00     0.120 N 
HETATM    6  C6  UNL     1       4.011  -3.130  15.600  1.00  0.00     0.276 C 
HETATM    7  C7  UNL     1       4.451  -2.712  14.227  1.00  0.00     0.051 C 
HETATM    8  C8  UNL     1       4.099  -3.752  13.201  1.00  0.00     0.092 C 
HETATM    9 CL1  UNL     1       4.883  -3.446  11.645  1.00  0.00    -0.124 Cl
ENDROOT
BRANCH   1  10
HETATM   10  N1  UNL     1       2.338  -5.410  14.719  1.00  0.00    -0.047 N 
HETATM   11  C1  UNL     1       1.954  -6.704  14.180  1.00  0.00     0.269 C 
ATOM     12  H12 UNL     1       2.034  -4.630  14.137  1.00  0.00     0.279 HD
ATOM     13  H11 UNL     1       1.819  -5.159  15.560  1.00  0.00     0.279 HD
ENDBRANCH   1  10
TORSDOF 1
ENDMDL
