MODEL 1
REMARK VINA RESULT: -5.040368603      0.000      0.000
REMARK  2 active torsions:
REMARK  status: ('A' for Active; 'I' for Inactive)
REMARK    1  A    between atoms: C4_6  and  O2_7 
REMARK    2  A    between atoms: C4_6  and  C5_9 
ROOT
HETATM    1  C1  UNL     1       2.851  -0.240  11.346  1.00  0.00     0.356 C 
HETATM    2  N1  UNL     1       3.456  -1.474  10.949  1.00  0.00     0.012 N 
HETATM    3  O1  UNL     1       3.639  -1.512   9.627  1.00  0.00    -0.065 OA
HETATM    4  C2  UNL     1       2.524  -2.546  11.305  1.00  0.00     0.314 C 
HETATM    5  C3  UNL     1       3.404  -3.766  11.081  1.00  0.00     0.077 C 
HETATM    6  C4  UNL     1       4.698  -3.307  11.742  1.00  0.00     0.104 C 
HETATM    7  C6  UNL     1       4.652  -1.795  11.689  1.00  0.00     0.350 C 
ENDROOT
BRANCH   6   8
HETATM    8  O2  UNL     1       5.774  -3.779  11.041  1.00  0.00    -0.386 OA
ATOM      9  H2  UNL     1       6.472  -4.019  11.639  1.00  0.00     0.210 HD
ENDBRANCH   6   8
BRANCH   6  10
HETATM   10  C5  UNL     1       4.655  -3.804  13.170  1.00  0.00     0.154 C 
HETATM   11 CL1  UNL     1       4.439  -2.461  14.316  1.00  0.00    -0.127 Cl
ENDBRANCH   6  10
TORSDOF 2
ENDMDL
MODEL 2
REMARK VINA RESULT: -4.901725066      4.439      5.751
REMARK  2 active torsions:
REMARK  status: ('A' for Active; 'I' for Inactive)
REMARK    1  A    between atoms: C4_6  and  O2_7 
REMARK    2  A    between atoms: C4_6  and  C5_9 
ROOT
HETATM    1  C1  UNL     1       7.611  -2.878  16.951  1.00  0.00     0.356 C 
HETATM    2  N1  UNL     1       6.278  -3.390  16.860  1.00  0.00     0.012 N 
HETATM    3  O1  UNL     1       5.882  -3.898  18.029  1.00  0.00    -0.065 OA
HETATM    4  C2  UNL     1       6.298  -4.477  15.880  1.00  0.00     0.314 C 
HETATM    5  C3  UNL     1       4.807  -4.719  15.700  1.00  0.00     0.077 C 
HETATM    6  C4  UNL     1       4.300  -3.286  15.592  1.00  0.00     0.104 C 
HETATM    7  C6  UNL     1       5.334  -2.447  16.312  1.00  0.00     0.350 C 
ENDROOT
BRANCH   6   8
HETATM    8  O2  UNL     1       3.081  -3.175  16.205  1.00  0.00    -0.386 OA
ATOM      9  H2  UNL     1       3.092  -3.633  17.037  1.00  0.00     0.210 HD
ENDBRANCH   6   8
BRANCH   6  10
HETATM   10  C5  UNL     1       4.256  -2.950  14.118  1.00  0.00     0.154 C 
HETATM   11 CL1  UNL     1       3.682  -4.332  13.156  1.00  0.00    -0.127 Cl
ENDBRANCH   6  10
TORSDOF 2
ENDMDL
MODEL 3
REMARK VINA RESULT: -4.846921333      3.317      4.304
REMARK  2 active torsions:
REMARK  status: ('A' for Active; 'I' for Inactive)
REMARK    1  A    between atoms: C4_6  and  O2_7 
REMARK    2  A    between atoms: C4_6  and  C5_9 
ROOT
HETATM    1  C1  UNL     1       5.335  -2.519  16.510  1.00  0.00     0.356 C 
HETATM    2  N1  UNL     1       4.379  -3.158  15.658  1.00  0.00     0.012 N 
HETATM    3  O1  UNL     1       3.159  -3.121  16.198  1.00  0.00    -0.065 OA
HETATM    4  C2  UNL     1       4.778  -4.562  15.540  1.00  0.00     0.314 C 
HETATM    5  C3  UNL     1       3.855  -5.020  14.420  1.00  0.00     0.077 C 
HETATM    6  C4  UNL     1       3.995  -3.857  13.446  1.00  0.00     0.104 C 
HETATM    7  C6  UNL     1       4.405  -2.676  14.299  1.00  0.00     0.350 C 
ENDROOT
BRANCH   6   8
HETATM    8  O2  UNL     1       2.796  -3.614  12.833  1.00  0.00    -0.386 OA
ATOM      9  H2  UNL     1       2.087  -3.984  13.347  1.00  0.00     0.210 HD
ENDBRANCH   6   8
BRANCH   6  10
HETATM   10  C5  UNL     1       5.092  -4.234  12.474  1.00  0.00     0.154 C 
HETATM   11 CL1  UNL     1       5.206  -3.062  11.141  1.00  0.00    -0.127 Cl
ENDBRANCH   6  10
TORSDOF 2
ENDMDL
MODEL 4
REMARK VINA RESULT: -4.821022998      2.080      3.275
REMARK  2 active torsions:
REMARK  status: ('A' for Active; 'I' for Inactive)
REMARK    1  A    between atoms: C4_6  and  O2_7 
REMARK    2  A    between atoms: C4_6  and  C5_9 
ROOT
HETATM    1  C1  UNL     1       2.860  -5.021  12.489  1.00  0.00     0.356 C 
HETATM    2  N1  UNL     1       3.409  -4.184  11.467  1.00  0.00     0.012 N 
HETATM    3  O1  UNL     1       3.548  -4.858  10.323  1.00  0.00    -0.065 OA
HETATM    4  C2  UNL     1       4.741  -3.774  11.913  1.00  0.00     0.314 C 
HETATM    5  C3  UNL     1       5.064  -2.704  10.882  1.00  0.00     0.077 C 
HETATM    6  C4  UNL     1       3.745  -1.941  10.844  1.00  0.00     0.104 C 
HETATM    7  C6  UNL     1       2.701  -2.938  11.300  1.00  0.00     0.350 C 
ENDROOT
BRANCH   6   8
HETATM    8  O2  UNL     1       3.484  -1.523   9.567  1.00  0.00    -0.386 OA
ATOM      9  H2  UNL     1       3.017  -0.695   9.586  1.00  0.00     0.210 HD
ENDBRANCH   6   8
BRANCH   6  10
HETATM   10  C5  UNL     1       3.875  -0.800  11.828  1.00  0.00     0.154 C 
HETATM   11 CL1  UNL     1       2.807   0.554  11.393  1.00  0.00    -0.127 Cl
ENDBRANCH   6  10
TORSDOF 2
ENDMDL
MODEL 5
REMARK VINA RESULT: -4.795513594      3.526      4.585
REMARK  2 active torsions:
REMARK  status: ('A' for Active; 'I' for Inactive)
REMARK    1  A    between atoms: C4_6  and  O2_7 
REMARK    2  A    between atoms: C4_6  and  C5_9 
ROOT
HETATM    1  C1  UNL     1       4.392  -6.355  13.265  1.00  0.00     0.356 C 
HETATM    2  N1  UNL     1       3.910  -5.122  13.807  1.00  0.00     0.012 N 
HETATM    3  O1  UNL     1       2.660  -4.882  13.406  1.00  0.00    -0.065 OA
HETATM    4  C2  UNL     1       4.765  -4.055  13.283  1.00  0.00     0.314 C 
HETATM    5  C3  UNL     1       4.311  -2.886  14.143  1.00  0.00     0.077 C 
HETATM    6  C4  UNL     1       4.266  -3.545  15.516  1.00  0.00     0.104 C 
HETATM    7  C6  UNL     1       4.068  -5.020  15.238  1.00  0.00     0.350 C 
ENDROOT
BRANCH   6   8
HETATM    8  O2  UNL     1       3.216  -3.048  16.239  1.00  0.00    -0.386 OA
ATOM      9  H2  UNL     1       3.380  -2.140  16.468  1.00  0.00     0.210 HD
ENDBRANCH   6   8
BRANCH   6  10
HETATM   10  C5  UNL     1       5.608  -3.289  16.165  1.00  0.00     0.154 C 
HETATM   11 CL1  UNL     1       6.489  -4.808  16.451  1.00  0.00    -0.127 Cl
ENDBRANCH   6  10
TORSDOF 2
ENDMDL
