MODEL 1
REMARK VINA RESULT: -8.654167166      0.000      0.000
REMARK  9 active torsions:
REMARK  status: ('A' for Active; 'I' for Inactive)
REMARK    1  A    between atoms: C2_3  and  N2_4 
REMARK    2  A    between atoms: N3_6  and  N4_8 
REMARK    3  A    between atoms: N4_8  and  C3_10 
REMARK    4  A    between atoms: C8_17  and  O1_18 
REMARK    5  A    between atoms: C12_23  and  C13_24 
REMARK    6  A    between atoms: C14_25  and  O2_26 
REMARK    7  A    between atoms: C16_29  and  O3_30 
REMARK    8  A    between atoms: C18_33  and  S1_34 
REMARK    9  A    between atoms: S1_34  and  N6_35 
ROOT
HETATM    1  C3  UNL     1     -20.509  33.527  -6.472  1.00  0.00     0.149 A 
HETATM    2  N5  UNL     1     -19.288  33.602  -5.954  1.00  0.00    -0.339 N 
ATOM      3  H5  UNL     1     -18.471  33.684  -6.560  1.00  0.00     0.167 HD
HETATM    4  C4  UNL     1     -19.147  33.569  -4.617  1.00  0.00     0.047 A 
HETATM    5  C5  UNL     1     -17.863  33.649  -4.111  1.00  0.00     0.030 A 
HETATM    6  C6  UNL     1     -17.694  33.617  -2.742  1.00  0.00     0.005 A 
HETATM    7  C7  UNL     1     -18.739  33.511  -1.878  1.00  0.00     0.037 A 
HETATM    8  C8  UNL     1     -20.045  33.428  -2.385  1.00  0.00     0.079 A 
HETATM    9  C9  UNL     1     -20.237  33.458  -3.738  1.00  0.00     0.036 A 
HETATM   10  C10 UNL     1     -21.505  33.381  -4.279  1.00  0.00     0.012 A 
HETATM   11  C11 UNL     1     -22.765  33.267  -3.722  1.00  0.00     0.045 A 
HETATM   12  C12 UNL     1     -23.665  33.234  -4.755  1.00  0.00     0.048 A 
HETATM   13  N7  UNL     1     -22.940  33.328  -5.925  1.00  0.00    -0.352 N 
ATOM     14  H7  UNL     1     -23.344  33.329  -6.862  1.00  0.00     0.166 HD
HETATM   15  C19 UNL     1     -21.618  33.417  -5.652  1.00  0.00     0.090 A 
ENDROOT
BRANCH   1  16
HETATM   16  N4  UNL     1     -20.670  33.557  -7.742  1.00  0.00    -0.269 N 
ATOM     17  H4  UNL     1     -20.455  32.707  -8.264  1.00  0.00     0.190 HD
BRANCH  16  18
HETATM   18  N3  UNL     1     -21.111  34.645  -8.457  1.00  0.00    -0.239 N 
HETATM   19  N2  UNL     1     -20.720  35.837  -8.256  1.00  0.00    -0.271 N 
ATOM     20  H2  UNL     1     -20.034  36.016  -7.522  1.00  0.00     0.190 HD
ATOM     21  H3  UNL     1     -21.795  34.486  -9.196  1.00  0.00     0.208 HD
BRANCH  19  22
HETATM   22  C2  UNL     1     -21.212  36.933  -9.030  1.00  0.00     0.126 A 
HETATM   23  N1  UNL     1     -21.719  37.974  -8.342  1.00  0.00    -0.302 N 
HETATM   24  C1  UNL     1     -21.747  37.948  -6.897  1.00  0.00     0.161 C 
HETATM   25  C25 UNL     1     -22.179  38.999  -9.072  1.00  0.00     0.266 A 
HETATM   26  C24 UNL     1     -22.137  38.995 -10.476  1.00  0.00     0.083 A 
HETATM   27  O6  UNL     1     -22.662  39.998  -8.518  1.00  0.00    -0.266 OA
HETATM   28  C21 UNL     1     -21.622  37.936 -11.165  1.00  0.00    -0.009 A 
HETATM   29  S2  UNL     1     -22.605  40.067 -11.715  1.00  0.00    -0.096 SA
HETATM   30  C20 UNL     1     -21.142  36.865 -10.383  1.00  0.00     0.063 A 
HETATM   31  C22 UNL     1     -21.620  38.012 -12.514  1.00  0.00     0.020 A 
HETATM   32  C23 UNL     1     -22.138  39.151 -13.074  1.00  0.00     0.051 A 
ENDBRANCH  19  22
ENDBRANCH  16  18
ENDBRANCH   1  16
BRANCH  12  33
HETATM   33  C13 UNL     1     -25.101  33.022  -4.798  1.00  0.00     0.047 A 
HETATM   34  C14 UNL     1     -25.601  31.763  -5.188  1.00  0.00     0.082 A 
HETATM   35  C15 UNL     1     -26.937  31.508  -5.364  1.00  0.00     0.074 A 
HETATM   36  C16 UNL     1     -27.864  32.496  -5.161  1.00  0.00     0.069 A 
HETATM   37  C17 UNL     1     -27.411  33.721  -4.783  1.00  0.00     0.062 A 
HETATM   38  C18 UNL     1     -26.029  33.994  -4.600  1.00  0.00     0.097 A 
BRANCH  34  39
HETATM   39  O2  UNL     1     -24.693  30.750  -5.393  1.00  0.00    -0.360 OA
ATOM     40  H2  UNL     1     -24.794  29.956  -4.881  1.00  0.00     0.217 HD
ENDBRANCH  34  39
BRANCH  36  41
HETATM   41  O3  UNL     1     -29.230  32.304  -5.321  1.00  0.00    -0.361 OA
ATOM     42  H3  UNL     1     -29.774  32.857  -5.869  1.00  0.00     0.217 HD
ENDBRANCH  36  41
BRANCH  38  43
HETATM   43  S1  UNL     1     -25.589  35.614  -4.134  1.00  0.00     0.257 S 
HETATM   44  O4  UNL     1     -26.937  36.431  -4.110  1.00  0.00    -0.201 OA
HETATM   45  O5  UNL     1     -25.139  35.750  -2.720  1.00  0.00    -0.201 OA
BRANCH  43  46
HETATM   46  N6  UNL     1     -24.673  36.462  -5.291  1.00  0.00    -0.324 N 
ATOM     47  H62 UNL     1     -23.972  35.997  -5.867  1.00  0.00     0.169 HD
ATOM     48  H61 UNL     1     -24.885  37.458  -5.354  1.00  0.00     0.169 HD
ENDBRANCH  43  46
ENDBRANCH  38  43
ENDBRANCH  12  33
BRANCH   8  49
HETATM   49  O1  UNL     1     -21.101  33.320  -1.519  1.00  0.00    -0.360 OA
ATOM     50  H1  UNL     1     -21.838  32.766  -1.746  1.00  0.00     0.217 HD
ENDBRANCH   8  49
TORSDOF 9
ENDMDL
MODEL 2
REMARK VINA RESULT: -8.616631698      2.386      3.010
REMARK  9 active torsions:
REMARK  status: ('A' for Active; 'I' for Inactive)
REMARK    1  A    between atoms: C2_3  and  N2_4 
REMARK    2  A    between atoms: N3_6  and  N4_8 
REMARK    3  A    between atoms: N4_8  and  C3_10 
REMARK    4  A    between atoms: C8_17  and  O1_18 
REMARK    5  A    between atoms: C12_23  and  C13_24 
REMARK    6  A    between atoms: C14_25  and  O2_26 
REMARK    7  A    between atoms: C16_29  and  O3_30 
REMARK    8  A    between atoms: C18_33  and  S1_34 
REMARK    9  A    between atoms: S1_34  and  N6_35 
ROOT
HETATM    1  C3  UNL     1     -18.996  35.043  -6.114  1.00  0.00     0.149 A 
HETATM    2  N5  UNL     1     -17.990  34.285  -5.690  1.00  0.00    -0.339 N 
ATOM      3  H5  UNL     1     -17.130  34.212  -6.233  1.00  0.00     0.167 HD
HETATM    4  C4  UNL     1     -18.128  33.614  -4.532  1.00  0.00     0.047 A 
HETATM    5  C5  UNL     1     -17.062  32.835  -4.120  1.00  0.00     0.030 A 
HETATM    6  C6  UNL     1     -17.180  32.137  -2.935  1.00  0.00     0.005 A 
HETATM    7  C7  UNL     1     -18.298  32.190  -2.163  1.00  0.00     0.037 A 
HETATM    8  C8  UNL     1     -19.383  32.980  -2.576  1.00  0.00     0.079 A 
HETATM    9  C9  UNL     1     -19.290  33.679  -3.747  1.00  0.00     0.036 A 
HETATM   10  C10 UNL     1     -20.333  34.468  -4.189  1.00  0.00     0.012 A 
HETATM   11  C11 UNL     1     -21.586  34.752  -3.681  1.00  0.00     0.045 A 
HETATM   12  C12 UNL     1     -22.197  35.608  -4.558  1.00  0.00     0.048 A 
HETATM   13  N7  UNL     1     -21.308  35.833  -5.588  1.00  0.00    -0.352 N 
ATOM     14  H7  UNL     1     -21.489  36.434  -6.392  1.00  0.00     0.166 HD
HETATM   15  C19 UNL     1     -20.164  35.143  -5.379  1.00  0.00     0.090 A 
ENDROOT
BRANCH   1  16
HETATM   16  N4  UNL     1     -18.890  35.692  -7.214  1.00  0.00    -0.269 N 
ATOM     17  H4  UNL     1     -17.955  35.807  -7.605  1.00  0.00     0.190 HD
BRANCH  16  18
HETATM   18  N3  UNL     1     -19.940  36.245  -7.908  1.00  0.00    -0.239 N 
HETATM   19  N2  UNL     1     -19.940  37.425  -8.379  1.00  0.00    -0.271 N 
ATOM     20  H2  UNL     1     -19.118  38.013  -8.244  1.00  0.00     0.190 HD
ATOM     21  H3  UNL     1     -20.771  35.673  -8.054  1.00  0.00     0.208 HD
BRANCH  19  22
HETATM   22  C2  UNL     1     -21.061  37.951  -9.093  1.00  0.00     0.126 A 
HETATM   23  N1  UNL     1     -21.846  38.818  -8.426  1.00  0.00    -0.302 N 
HETATM   24  C1  UNL     1     -21.540  39.174  -7.059  1.00  0.00     0.161 C 
HETATM   25  C25 UNL     1     -22.894  39.308  -9.100  1.00  0.00     0.266 A 
HETATM   26  C24 UNL     1     -23.165  38.943 -10.430  1.00  0.00     0.083 A 
HETATM   27  O6  UNL     1     -23.668  40.113  -8.560  1.00  0.00    -0.266 OA
HETATM   28  C21 UNL     1     -22.365  38.064 -11.098  1.00  0.00    -0.009 A 
HETATM   29  S2  UNL     1     -24.356  39.334 -11.584  1.00  0.00    -0.096 SA
HETATM   30  C20 UNL     1     -21.265  37.557 -10.375  1.00  0.00     0.063 A 
HETATM   31  C22 UNL     1     -22.696  37.767 -12.374  1.00  0.00     0.020 A 
HETATM   32  C23 UNL     1     -23.812  38.376 -12.885  1.00  0.00     0.051 A 
ENDBRANCH  19  22
ENDBRANCH  16  18
ENDBRANCH   1  16
BRANCH  12  33
HETATM   33  C13 UNL     1     -23.539  36.162  -4.614  1.00  0.00     0.047 A 
HETATM   34  C14 UNL     1     -23.976  37.016  -3.580  1.00  0.00     0.082 A 
HETATM   35  C15 UNL     1     -25.259  37.492  -3.494  1.00  0.00     0.074 A 
HETATM   36  C16 UNL     1     -26.193  37.148  -4.435  1.00  0.00     0.069 A 
HETATM   37  C17 UNL     1     -25.799  36.325  -5.444  1.00  0.00     0.062 A 
HETATM   38  C18 UNL     1     -24.472  35.826  -5.541  1.00  0.00     0.097 A 
BRANCH  34  39
HETATM   39  O2  UNL     1     -23.058  37.384  -2.624  1.00  0.00    -0.360 OA
ATOM     40  H2  UNL     1     -23.360  37.933  -1.910  1.00  0.00     0.217 HD
ENDBRANCH  34  39
BRANCH  36  41
HETATM   41  O3  UNL     1     -27.506  37.596  -4.406  1.00  0.00    -0.361 OA
ATOM     42  H3  UNL     1     -28.240  37.046  -4.160  1.00  0.00     0.217 HD
ENDBRANCH  36  41
BRANCH  38  43
HETATM   43  S1  UNL     1     -24.113  34.765  -6.876  1.00  0.00     0.257 S 
HETATM   44  O4  UNL     1     -25.388  34.801  -7.803  1.00  0.00    -0.201 OA
HETATM   45  O5  UNL     1     -23.062  35.272  -7.803  1.00  0.00    -0.201 OA
BRANCH  43  46
HETATM   46  N6  UNL     1     -24.011  33.117  -6.465  1.00  0.00    -0.324 N 
ATOM     47  H62 UNL     1     -23.288  32.510  -6.852  1.00  0.00     0.169 HD
ATOM     48  H61 UNL     1     -24.725  32.797  -5.811  1.00  0.00     0.169 HD
ENDBRANCH  43  46
ENDBRANCH  38  43
ENDBRANCH  12  33
BRANCH   8  49
HETATM   49  O1  UNL     1     -20.512  33.035  -1.802  1.00  0.00    -0.360 OA
ATOM     50  H1  UNL     1     -20.546  33.634  -1.065  1.00  0.00     0.217 HD
ENDBRANCH   8  49
TORSDOF 9
ENDMDL
MODEL 3
REMARK VINA RESULT: -8.440162432      1.042      1.072
REMARK  9 active torsions:
REMARK  status: ('A' for Active; 'I' for Inactive)
REMARK    1  A    between atoms: C2_3  and  N2_4 
REMARK    2  A    between atoms: N3_6  and  N4_8 
REMARK    3  A    between atoms: N4_8  and  C3_10 
REMARK    4  A    between atoms: C8_17  and  O1_18 
REMARK    5  A    between atoms: C12_23  and  C13_24 
REMARK    6  A    between atoms: C14_25  and  O2_26 
REMARK    7  A    between atoms: C16_29  and  O3_30 
REMARK    8  A    between atoms: C18_33  and  S1_34 
REMARK    9  A    between atoms: S1_34  and  N6_35 
ROOT
HETATM    1  C3  UNL     1     -20.427  33.212  -6.402  1.00  0.00     0.149 A 
HETATM    2  N5  UNL     1     -19.158  33.139  -6.017  1.00  0.00    -0.339 N 
ATOM      3  H5  UNL     1     -18.410  33.060  -6.707  1.00  0.00     0.167 HD
HETATM    4  C4  UNL     1     -18.877  33.169  -4.702  1.00  0.00     0.047 A 
HETATM    5  C5  UNL     1     -17.545  33.090  -4.336  1.00  0.00     0.030 A 
HETATM    6  C6  UNL     1     -17.232  33.119  -2.993  1.00  0.00     0.005 A 
HETATM    7  C7  UNL     1     -18.179  33.222  -2.023  1.00  0.00     0.037 A 
HETATM    8  C8  UNL     1     -19.533  33.302  -2.388  1.00  0.00     0.079 A 
HETATM    9  C9  UNL     1     -19.867  33.275  -3.713  1.00  0.00     0.036 A 
HETATM   10  C10 UNL     1     -21.185  33.351  -4.116  1.00  0.00     0.012 A 
HETATM   11  C11 UNL     1     -22.380  33.459  -3.428  1.00  0.00     0.045 A 
HETATM   12  C12 UNL     1     -23.384  33.495  -4.360  1.00  0.00     0.048 A 
HETATM   13  N7  UNL     1     -22.787  33.407  -5.600  1.00  0.00    -0.352 N 
ATOM     14  H7  UNL     1     -23.288  33.409  -6.489  1.00  0.00     0.166 HD
HETATM   15  C19 UNL     1     -21.444  33.318  -5.470  1.00  0.00     0.090 A 
ENDROOT
BRANCH   1  16
HETATM   16  N4  UNL     1     -20.722  33.185  -7.649  1.00  0.00    -0.269 N 
ATOM     17  H4  UNL     1     -20.661  32.287  -8.128  1.00  0.00     0.190 HD
BRANCH  16  18
HETATM   18  N3  UNL     1     -21.115  34.274  -8.391  1.00  0.00    -0.239 N 
HETATM   19  N2  UNL     1     -21.249  35.447  -7.921  1.00  0.00    -0.271 N 
ATOM     20  H2  UNL     1     -21.056  35.609  -6.932  1.00  0.00     0.190 HD
ATOM     21  H3  UNL     1     -21.312  34.132  -9.381  1.00  0.00     0.208 HD
BRANCH  19  22
HETATM   22  C2  UNL     1     -21.662  36.544  -8.738  1.00  0.00     0.126 A 
HETATM   23  N1  UNL     1     -22.890  37.042  -8.500  1.00  0.00    -0.302 N 
HETATM   24  C1  UNL     1     -23.719  36.471  -7.463  1.00  0.00     0.161 C 
HETATM   25  C25 UNL     1     -23.271  38.071  -9.269  1.00  0.00     0.266 A 
HETATM   26  C24 UNL     1     -22.442  38.605 -10.269  1.00  0.00     0.083 A 
HETATM   27  O6  UNL     1     -24.387  38.590  -9.115  1.00  0.00    -0.266 OA
HETATM   28  C21 UNL     1     -21.199  38.094 -10.503  1.00  0.00    -0.009 A 
HETATM   29  S2  UNL     1     -22.562  39.863 -11.412  1.00  0.00    -0.096 SA
HETATM   30  C20 UNL     1     -20.812  37.012  -9.687  1.00  0.00     0.063 A 
HETATM   31  C22 UNL     1     -20.466  38.665 -11.484  1.00  0.00     0.020 A 
HETATM   32  C23 UNL     1     -21.038  39.712 -12.159  1.00  0.00     0.051 A 
ENDBRANCH  19  22
ENDBRANCH  16  18
ENDBRANCH   1  16
BRANCH  12  33
HETATM   33  C13 UNL     1     -24.831  33.495  -4.241  1.00  0.00     0.047 A 
HETATM   34  C14 UNL     1     -25.566  32.412  -4.766  1.00  0.00     0.082 A 
HETATM   35  C15 UNL     1     -26.937  32.381  -4.799  1.00  0.00     0.074 A 
HETATM   36  C16 UNL     1     -27.666  33.431  -4.308  1.00  0.00     0.069 A 
HETATM   37  C17 UNL     1     -26.984  34.490  -3.795  1.00  0.00     0.062 A 
HETATM   38  C18 UNL     1     -25.564  34.531  -3.758  1.00  0.00     0.097 A 
BRANCH  34  39
HETATM   39  O2  UNL     1     -24.860  31.340  -5.260  1.00  0.00    -0.360 OA
ATOM     40  H2  UNL     1     -23.971  31.496  -5.559  1.00  0.00     0.217 HD
ENDBRANCH  34  39
BRANCH  36  41
HETATM   41  O3  UNL     1     -29.054  33.463  -4.311  1.00  0.00    -0.361 OA
ATOM     42  H3  UNL     1     -29.587  33.001  -3.675  1.00  0.00     0.217 HD
ENDBRANCH  36  41
BRANCH  38  43
HETATM   43  S1  UNL     1     -24.823  35.959  -3.090  1.00  0.00     0.257 S 
HETATM   44  O4  UNL     1     -25.995  36.994  -2.891  1.00  0.00    -0.201 OA
HETATM   45  O5  UNL     1     -24.329  35.803  -1.692  1.00  0.00    -0.201 OA
BRANCH  43  46
HETATM   46  N6  UNL     1     -23.787  36.786  -4.157  1.00  0.00    -0.324 N 
ATOM     47  H62 UNL     1     -22.905  36.382  -4.472  1.00  0.00     0.169 HD
ATOM     48  H61 UNL     1     -24.121  37.705  -4.447  1.00  0.00     0.169 HD
ENDBRANCH  43  46
ENDBRANCH  38  43
ENDBRANCH  12  33
BRANCH   8  49
HETATM   49  O1  UNL     1     -20.491  33.405  -1.415  1.00  0.00    -0.360 OA
ATOM     50  H1  UNL     1     -20.556  34.203  -0.904  1.00  0.00     0.217 HD
ENDBRANCH   8  49
TORSDOF 9
ENDMDL
MODEL 4
REMARK VINA RESULT: -8.312422952      2.424      3.338
REMARK  9 active torsions:
REMARK  status: ('A' for Active; 'I' for Inactive)
REMARK    1  A    between atoms: C2_3  and  N2_4 
REMARK    2  A    between atoms: N3_6  and  N4_8 
REMARK    3  A    between atoms: N4_8  and  C3_10 
REMARK    4  A    between atoms: C8_17  and  O1_18 
REMARK    5  A    between atoms: C12_23  and  C13_24 
REMARK    6  A    between atoms: C14_25  and  O2_26 
REMARK    7  A    between atoms: C16_29  and  O3_30 
REMARK    8  A    between atoms: C18_33  and  S1_34 
REMARK    9  A    between atoms: S1_34  and  N6_35 
ROOT
HETATM    1  C3  UNL     1     -21.483  33.469  -5.586  1.00  0.00     0.149 A 
HETATM    2  N5  UNL     1     -20.239  33.076  -5.840  1.00  0.00    -0.339 N 
ATOM      3  H5  UNL     1     -19.943  32.875  -6.795  1.00  0.00     0.167 HD
HETATM    4  C4  UNL     1     -19.378  32.948  -4.815  1.00  0.00     0.047 A 
HETATM    5  C5  UNL     1     -18.092  32.536  -5.115  1.00  0.00     0.030 A 
HETATM    6  C6  UNL     1     -17.190  32.398  -4.080  1.00  0.00     0.005 A 
HETATM    7  C7  UNL     1     -17.518  32.649  -2.784  1.00  0.00     0.037 A 
HETATM    8  C8  UNL     1     -18.822  33.067  -2.474  1.00  0.00     0.079 A 
HETATM    9  C9  UNL     1     -19.733  33.211  -3.483  1.00  0.00     0.036 A 
HETATM   10  C10 UNL     1     -21.025  33.620  -3.221  1.00  0.00     0.012 A 
HETATM   11  C11 UNL     1     -21.695  33.954  -2.059  1.00  0.00     0.045 A 
HETATM   12  C12 UNL     1     -22.977  34.287  -2.409  1.00  0.00     0.048 A 
HETATM   13  N7  UNL     1     -23.070  34.150  -3.779  1.00  0.00    -0.352 N 
ATOM     14  H7  UNL     1     -23.911  34.331  -4.326  1.00  0.00     0.166 HD
HETATM   15  C19 UNL     1     -21.886  33.742  -4.291  1.00  0.00     0.090 A 
ENDROOT
BRANCH   1  16
HETATM   16  N4  UNL     1     -22.323  33.600  -6.544  1.00  0.00    -0.269 N 
ATOM     17  H4  UNL     1     -23.007  32.854  -6.675  1.00  0.00     0.190 HD
BRANCH  16  18
HETATM   18  N3  UNL     1     -22.374  34.666  -7.410  1.00  0.00    -0.239 N 
HETATM   19  N2  UNL     1     -21.768  35.767  -7.222  1.00  0.00    -0.271 N 
ATOM     20  H2  UNL     1     -21.202  35.884  -6.381  1.00  0.00     0.190 HD
ATOM     21  H3  UNL     1     -22.935  34.568  -8.256  1.00  0.00     0.208 HD
BRANCH  19  22
HETATM   22  C2  UNL     1     -21.857  36.845  -8.156  1.00  0.00     0.126 A 
HETATM   23  N1  UNL     1     -22.354  38.007  -7.687  1.00  0.00    -0.302 N 
HETATM   24  C1  UNL     1     -22.765  38.118  -6.306  1.00  0.00     0.161 C 
HETATM   25  C25 UNL     1     -22.434  39.014  -8.567  1.00  0.00     0.266 A 
HETATM   26  C24 UNL     1     -22.025  38.874  -9.904  1.00  0.00     0.083 A 
HETATM   27  O6  UNL     1     -22.879  40.118  -8.218  1.00  0.00    -0.266 OA
HETATM   28  C21 UNL     1     -21.523  37.694 -10.369  1.00  0.00    -0.009 A 
HETATM   29  S2  UNL     1     -21.972  39.883 -11.275  1.00  0.00    -0.096 SA
HETATM   30  C20 UNL     1     -21.445  36.643  -9.433  1.00  0.00     0.063 A 
HETATM   31  C22 UNL     1     -21.154  37.645 -11.668  1.00  0.00     0.020 A 
HETATM   32  C23 UNL     1     -21.317  38.788 -12.406  1.00  0.00     0.051 A 
ENDBRANCH  19  22
ENDBRANCH  16  18
ENDBRANCH   1  16
BRANCH  12  33
HETATM   33  C13 UNL     1     -24.154  34.615  -1.624  1.00  0.00     0.047 A 
HETATM   34  C14 UNL     1     -24.282  35.910  -1.081  1.00  0.00     0.082 A 
HETATM   35  C15 UNL     1     -25.301  36.272  -0.238  1.00  0.00     0.074 A 
HETATM   36  C16 UNL     1     -26.262  35.364   0.120  1.00  0.00     0.069 A 
HETATM   37  C17 UNL     1     -26.164  34.107  -0.389  1.00  0.00     0.062 A 
HETATM   38  C18 UNL     1     -25.112  33.722  -1.263  1.00  0.00     0.097 A 
BRANCH  34  39
HETATM   39  O2  UNL     1     -23.335  36.845  -1.429  1.00  0.00    -0.360 OA
ATOM     40  H2  UNL     1     -23.543  37.442  -2.137  1.00  0.00     0.217 HD
ENDBRANCH  34  39
BRANCH  36  41
HETATM   41  O3  UNL     1     -27.318  35.666   0.968  1.00  0.00    -0.361 OA
ATOM     42  H3  UNL     1     -27.775  35.015   1.486  1.00  0.00     0.217 HD
ENDBRANCH  36  41
BRANCH  38  43
HETATM   43  S1  UNL     1     -25.101  32.073  -1.823  1.00  0.00     0.257 S 
HETATM   44  O4  UNL     1     -24.553  32.129  -3.300  1.00  0.00    -0.201 OA
HETATM   45  O5  UNL     1     -24.084  31.203  -1.167  1.00  0.00    -0.201 OA
BRANCH  43  46
HETATM   46  N6  UNL     1     -26.642  31.384  -2.035  1.00  0.00    -0.324 N 
ATOM     47  H62 UNL     1     -27.274  31.697  -2.773  1.00  0.00     0.169 HD
ATOM     48  H61 UNL     1     -26.873  30.644  -1.372  1.00  0.00     0.169 HD
ENDBRANCH  43  46
ENDBRANCH  38  43
ENDBRANCH  12  33
BRANCH   8  49
HETATM   49  O1  UNL     1     -19.158  33.321  -1.170  1.00  0.00    -0.360 OA
ATOM     50  H1  UNL     1     -20.059  33.527  -0.950  1.00  0.00     0.217 HD
ENDBRANCH   8  49
TORSDOF 9
ENDMDL
MODEL 5
REMARK VINA RESULT: -8.160461022      2.505      3.164
REMARK  9 active torsions:
REMARK  status: ('A' for Active; 'I' for Inactive)
REMARK    1  A    between atoms: C2_3  and  N2_4 
REMARK    2  A    between atoms: N3_6  and  N4_8 
REMARK    3  A    between atoms: N4_8  and  C3_10 
REMARK    4  A    between atoms: C8_17  and  O1_18 
REMARK    5  A    between atoms: C12_23  and  C13_24 
REMARK    6  A    between atoms: C14_25  and  O2_26 
REMARK    7  A    between atoms: C16_29  and  O3_30 
REMARK    8  A    between atoms: C18_33  and  S1_34 
REMARK    9  A    between atoms: S1_34  and  N6_35 
ROOT
HETATM    1  C3  UNL     1     -20.786  36.342  -7.163  1.00  0.00     0.149 A 
HETATM    2  N5  UNL     1     -19.471  36.192  -7.280  1.00  0.00    -0.339 N 
ATOM      3  H5  UNL     1     -18.934  36.785  -7.913  1.00  0.00     0.167 HD
HETATM    4  C4  UNL     1     -18.859  35.243  -6.548  1.00  0.00     0.047 A 
HETATM    5  C5  UNL     1     -17.490  35.114  -6.693  1.00  0.00     0.030 A 
HETATM    6  C6  UNL     1     -16.841  34.148  -5.951  1.00  0.00     0.005 A 
HETATM    7  C7  UNL     1     -17.495  33.325  -5.089  1.00  0.00     0.037 A 
HETATM    8  C8  UNL     1     -18.885  33.451  -4.938  1.00  0.00     0.079 A 
HETATM    9  C9  UNL     1     -19.550  34.401  -5.662  1.00  0.00     0.036 A 
HETATM   10  C10 UNL     1     -20.916  34.559  -5.543  1.00  0.00     0.012 A 
HETATM   11  C11 UNL     1     -21.880  33.919  -4.787  1.00  0.00     0.045 A 
HETATM   12  C12 UNL     1     -23.083  34.504  -5.081  1.00  0.00     0.048 A 
HETATM   13  N7  UNL     1     -22.835  35.492  -6.011  1.00  0.00    -0.352 N 
ATOM     14  H7  UNL     1     -23.545  36.100  -6.418  1.00  0.00     0.166 HD
HETATM   15  C19 UNL     1     -21.515  35.538  -6.305  1.00  0.00     0.090 A 
ENDROOT
BRANCH   1  16
HETATM   16  N4  UNL     1     -21.392  37.238  -7.850  1.00  0.00    -0.269 N 
ATOM     17  H4  UNL     1     -22.367  37.428  -7.618  1.00  0.00     0.190 HD
BRANCH  16  18
HETATM   18  N3  UNL     1     -20.830  37.963  -8.873  1.00  0.00    -0.239 N 
HETATM   19  N2  UNL     1     -21.433  38.259  -9.952  1.00  0.00    -0.271 N 
ATOM     20  H2  UNL     1     -22.395  37.947 -10.083  1.00  0.00     0.190 HD
ATOM     21  H3  UNL     1     -19.869  38.284  -8.760  1.00  0.00     0.208 HD
BRANCH  19  22
HETATM   22  C2  UNL     1     -20.800  39.017 -10.985  1.00  0.00     0.126 A 
HETATM   23  N1  UNL     1     -21.571  39.364 -12.034  1.00  0.00    -0.302 N 
HETATM   24  C1  UNL     1     -22.962  38.973 -12.076  1.00  0.00     0.161 C 
HETATM   25  C25 UNL     1     -20.973  40.075 -12.999  1.00  0.00     0.266 A 
HETATM   26  C24 UNL     1     -19.618  40.440 -12.929  1.00  0.00     0.083 A 
HETATM   27  O6  UNL     1     -21.611  40.436 -13.999  1.00  0.00    -0.266 OA
HETATM   28  C21 UNL     1     -18.845  40.084 -11.863  1.00  0.00    -0.009 A 
HETATM   29  S2  UNL     1     -18.535  41.308 -13.917  1.00  0.00    -0.096 SA
HETATM   30  C20 UNL     1     -19.488  39.336 -10.855  1.00  0.00     0.063 A 
HETATM   31  C22 UNL     1     -17.552  40.475 -11.874  1.00  0.00     0.020 A 
HETATM   32  C23 UNL     1     -17.130  41.199 -12.959  1.00  0.00     0.051 A 
ENDBRANCH  19  22
ENDBRANCH  16  18
ENDBRANCH   1  16
BRANCH  12  33
HETATM   33  C13 UNL     1     -24.446  34.196  -4.686  1.00  0.00     0.047 A 
HETATM   34  C14 UNL     1     -25.263  33.445  -5.557  1.00  0.00     0.082 A 
HETATM   35  C15 UNL     1     -26.591  33.203  -5.317  1.00  0.00     0.074 A 
HETATM   36  C16 UNL     1     -27.194  33.695  -4.189  1.00  0.00     0.069 A 
HETATM   37  C17 UNL     1     -26.430  34.422  -3.330  1.00  0.00     0.062 A 
HETATM   38  C18 UNL     1     -25.054  34.679  -3.571  1.00  0.00     0.097 A 
BRANCH  34  39
HETATM   39  O2  UNL     1     -24.683  32.933  -6.694  1.00  0.00    -0.360 OA
ATOM     40  H2  UNL     1     -24.636  33.496  -7.458  1.00  0.00     0.217 HD
ENDBRANCH  34  39
BRANCH  36  41
HETATM   41  O3  UNL     1     -28.532  33.486  -3.887  1.00  0.00    -0.361 OA
ATOM     42  H3  UNL     1     -28.847  33.304  -3.010  1.00  0.00     0.217 HD
ENDBRANCH  36  41
BRANCH  38  43
HETATM   43  S1  UNL     1     -24.202  35.642  -2.396  1.00  0.00     0.257 S 
HETATM   44  O4  UNL     1     -25.240  35.923  -1.243  1.00  0.00    -0.201 OA
HETATM   45  O5  UNL     1     -23.132  34.914  -1.657  1.00  0.00    -0.201 OA
BRANCH  43  46
HETATM   46  N6  UNL     1     -23.808  37.214  -2.917  1.00  0.00    -0.324 N 
ATOM     47  H62 UNL     1     -24.223  37.623  -3.754  1.00  0.00     0.169 HD
ATOM     48  H61 UNL     1     -23.133  37.701  -2.327  1.00  0.00     0.169 HD
ENDBRANCH  43  46
ENDBRANCH  38  43
ENDBRANCH  12  33
BRANCH   8  49
HETATM   49  O1  UNL     1     -19.548  32.623  -4.071  1.00  0.00    -0.360 OA
ATOM     50  H1  UNL     1     -20.444  32.824  -3.824  1.00  0.00     0.217 HD
ENDBRANCH   8  49
TORSDOF 9
ENDMDL
