MODEL 1
REMARK VINA RESULT: -7.540731211      0.000      0.000
REMARK  9 active torsions:
REMARK  status: ('A' for Active; 'I' for Inactive)
REMARK    1  A    between atoms: C3_5  and  O3_6 
REMARK    2  A    between atoms: C5_9  and  O4_10 
REMARK    3  A    between atoms: C10_16  and  O5_17 
REMARK    4  A    between atoms: C11_19  and  C12_20 
REMARK    5  A    between atoms: C15_23  and  C16_24 
REMARK    6  A    between atoms: C16_24  and  O6_25 
REMARK    7  A    between atoms: C21_32  and  O8_33 
REMARK    8  A    between atoms: C25_38  and  O9_39 
REMARK    9  A    between atoms: C26_41  and  C27_42 
ROOT
HETATM    1  O1  UNL     1     -22.016  32.692  -5.642  1.00  0.00    -0.259 OA
HETATM    2  C1  UNL     1     -22.720  33.722  -5.901  1.00  0.00     0.300 A 
HETATM    3  O2  UNL     1     -22.176  34.842  -6.294  1.00  0.00    -0.271 OA
HETATM    4  C2  UNL     1     -22.921  35.882  -6.553  1.00  0.00     0.125 A 
HETATM    5  C3  UNL     1     -22.334  37.089  -6.977  1.00  0.00     0.103 A 
HETATM    6  C4  UNL     1     -23.081  38.213  -7.263  1.00  0.00     0.076 A 
HETATM    7  C5  UNL     1     -24.452  38.161  -7.128  1.00  0.00     0.069 A 
HETATM    8  C6  UNL     1     -25.031  36.978  -6.711  1.00  0.00     0.053 A 
HETATM    9  C7  UNL     1     -24.279  35.858  -6.429  1.00  0.00     0.038 A 
HETATM   10  C8  UNL     1     -24.865  34.670  -6.010  1.00  0.00     0.098 A 
HETATM   11  C9  UNL     1     -24.067  33.568  -5.736  1.00  0.00     0.092 A 
HETATM   12  C10 UNL     1     -24.708  32.316  -5.296  1.00  0.00     0.162 C 
HETATM   13  C11 UNL     1     -24.659  32.005  -3.870  1.00  0.00     0.205 C 
HETATM   14  O7  UNL     1     -25.655  31.080  -3.504  1.00  0.00    -0.337 OA
HETATM   15  C19 UNL     1     -26.398  30.354  -4.419  1.00  0.00     0.082 A 
HETATM   16  C20 UNL     1     -26.896  29.134  -4.045  1.00  0.00     0.074 A 
HETATM   17  C21 UNL     1     -27.646  28.369  -4.927  1.00  0.00     0.068 A 
HETATM   18  C22 UNL     1     -27.870  28.872  -6.178  1.00  0.00     0.037 A 
HETATM   19  C23 UNL     1     -27.365  30.108  -6.552  1.00  0.00     0.016 A 
HETATM   20  C24 UNL     1     -26.625  30.877  -5.701  1.00  0.00     0.016 A 
HETATM   21  C25 UNL     1     -26.051  32.185  -6.002  1.00  0.00     0.156 C 
HETATM   22  C26 UNL     1     -26.957  33.349  -5.864  1.00  0.00     0.204 C 
HETATM   23  O10 UNL     1     -26.213  34.552  -5.858  1.00  0.00    -0.336 OA
ENDROOT
BRANCH  13  24
HETATM   24  C12 UNL     1     -24.604  33.108  -2.897  1.00  0.00    -0.025 A 
HETATM   25  C13 UNL     1     -25.760  33.689  -2.439  1.00  0.00     0.010 A 
HETATM   26  C14 UNL     1     -25.766  34.726  -1.520  1.00  0.00     0.010 A 
HETATM   27  C15 UNL     1     -24.572  35.206  -1.036  1.00  0.00    -0.035 A 
HETATM   28  C17 UNL     1     -23.400  34.637  -1.482  1.00  0.00     0.010 A 
HETATM   29  C18 UNL     1     -23.420  33.607  -2.397  1.00  0.00     0.010 A 
BRANCH  27  30
HETATM   30  C16 UNL     1     -24.528  36.330  -0.038  1.00  0.00     0.202 C 
BRANCH  30  31
HETATM   31  O6  UNL     1     -25.774  36.950  -0.044  1.00  0.00    -0.396 OA
ATOM     32  H6  UNL     1     -25.668  37.816   0.331  1.00  0.00     0.209 HD
ENDBRANCH  30  31
ENDBRANCH  27  30
ENDBRANCH  13  24
BRANCH  12  33
HETATM   33  O5  UNL     1     -23.940  31.294  -5.954  1.00  0.00    -0.378 OA
ATOM     34  H5  UNL     1     -24.481  30.518  -5.868  1.00  0.00     0.211 HD
ENDBRANCH  12  33
BRANCH  21  35
HETATM   35  O9  UNL     1     -25.701  32.140  -7.383  1.00  0.00    -0.378 OA
ATOM     36  H9  UNL     1     -25.952  32.997  -7.706  1.00  0.00     0.211 HD
ENDBRANCH  21  35
BRANCH  22  37
HETATM   37  C27 UNL     1     -27.943  33.380  -6.973  1.00  0.00    -0.026 A 
HETATM   38  C28 UNL     1     -29.219  32.924  -6.767  1.00  0.00     0.010 A 
HETATM   39  C29 UNL     1     -30.161  32.932  -7.778  1.00  0.00     0.001 A 
HETATM   40  C30 UNL     1     -29.825  33.401  -9.008  1.00  0.00     0.000 A 
HETATM   41  C31 UNL     1     -28.556  33.867  -9.257  1.00  0.00     0.001 A 
HETATM   42  C32 UNL     1     -27.618  33.851  -8.225  1.00  0.00     0.010 A 
ENDBRANCH  22  37
BRANCH  17  43
HETATM   43  O8  UNL     1     -28.143  27.124  -4.517  1.00  0.00    -0.361 OA
ATOM     44  H8  UNL     1     -28.008  26.359  -5.065  1.00  0.00     0.217 HD
ENDBRANCH  17  43
BRANCH   5  45
HETATM   45  O3  UNL     1     -20.953  37.098  -7.099  1.00  0.00    -0.358 OA
ATOM     46  H3  UNL     1     -20.487  37.763  -6.607  1.00  0.00     0.217 HD
ENDBRANCH   5  45
BRANCH   7  47
HETATM   47  O4  UNL     1     -25.223  39.291  -7.412  1.00  0.00    -0.361 OA
ATOM     48  H4  UNL     1     -25.722  39.334  -8.219  1.00  0.00     0.217 HD
ENDBRANCH   7  47
TORSDOF 9
ENDMDL
MODEL 2
REMARK VINA RESULT: -7.445827496      0.087      1.033
REMARK  9 active torsions:
REMARK  status: ('A' for Active; 'I' for Inactive)
REMARK    1  A    between atoms: C3_5  and  O3_6 
REMARK    2  A    between atoms: C5_9  and  O4_10 
REMARK    3  A    between atoms: C10_16  and  O5_17 
REMARK    4  A    between atoms: C11_19  and  C12_20 
REMARK    5  A    between atoms: C15_23  and  C16_24 
REMARK    6  A    between atoms: C16_24  and  O6_25 
REMARK    7  A    between atoms: C21_32  and  O8_33 
REMARK    8  A    between atoms: C25_38  and  O9_39 
REMARK    9  A    between atoms: C26_41  and  C27_42 
ROOT
HETATM    1  O1  UNL     1     -22.040  32.790  -5.619  1.00  0.00    -0.259 OA
HETATM    2  C1  UNL     1     -22.759  33.807  -5.888  1.00  0.00     0.300 A 
HETATM    3  O2  UNL     1     -22.232  34.934  -6.283  1.00  0.00    -0.271 OA
HETATM    4  C2  UNL     1     -22.995  35.959  -6.552  1.00  0.00     0.125 A 
HETATM    5  C3  UNL     1     -22.426  37.174  -6.979  1.00  0.00     0.103 A 
HETATM    6  C4  UNL     1     -23.190  38.283  -7.276  1.00  0.00     0.076 A 
HETATM    7  C5  UNL     1     -24.561  38.208  -7.152  1.00  0.00     0.069 A 
HETATM    8  C6  UNL     1     -25.122  37.017  -6.733  1.00  0.00     0.053 A 
HETATM    9  C7  UNL     1     -24.352  35.911  -6.439  1.00  0.00     0.038 A 
HETATM   10  C8  UNL     1     -24.920  34.715  -6.018  1.00  0.00     0.098 A 
HETATM   11  C9  UNL     1     -24.105  33.629  -5.732  1.00  0.00     0.092 A 
HETATM   12  C10 UNL     1     -24.727  32.368  -5.290  1.00  0.00     0.162 C 
HETATM   13  C11 UNL     1     -24.683  32.065  -3.863  1.00  0.00     0.205 C 
HETATM   14  O7  UNL     1     -25.665  31.124  -3.499  1.00  0.00    -0.337 OA
HETATM   15  C19 UNL     1     -26.388  30.381  -4.416  1.00  0.00     0.082 A 
HETATM   16  C20 UNL     1     -26.868  29.154  -4.040  1.00  0.00     0.074 A 
HETATM   17  C21 UNL     1     -27.597  28.371  -4.923  1.00  0.00     0.068 A 
HETATM   18  C22 UNL     1     -27.820  28.864  -6.178  1.00  0.00     0.037 A 
HETATM   19  C23 UNL     1     -27.334  30.106  -6.556  1.00  0.00     0.016 A 
HETATM   20  C24 UNL     1     -26.615  30.893  -5.703  1.00  0.00     0.016 A 
HETATM   21  C25 UNL     1     -26.062  32.210  -6.007  1.00  0.00     0.156 C 
HETATM   22  C26 UNL     1     -26.990  33.358  -5.881  1.00  0.00     0.204 C 
HETATM   23  O10 UNL     1     -26.267  34.573  -5.876  1.00  0.00    -0.336 OA
ENDROOT
BRANCH  13  24
HETATM   24  C12 UNL     1     -24.655  33.174  -2.895  1.00  0.00    -0.025 A 
HETATM   25  C13 UNL     1     -23.460  33.648  -2.415  1.00  0.00     0.010 A 
HETATM   26  C14 UNL     1     -23.377  34.692  -1.508  1.00  0.00     0.010 A 
HETATM   27  C15 UNL     1     -24.531  35.290  -1.058  1.00  0.00    -0.035 A 
HETATM   28  C17 UNL     1     -25.742  34.829  -1.528  1.00  0.00     0.010 A 
HETATM   29  C18 UNL     1     -25.798  33.789  -2.430  1.00  0.00     0.010 A 
BRANCH  27  30
HETATM   30  C16 UNL     1     -24.492  36.426  -0.074  1.00  0.00     0.202 C 
BRANCH  30  31
HETATM   31  O6  UNL     1     -25.790  36.905   0.071  1.00  0.00    -0.396 OA
ATOM     32  H6  UNL     1     -26.315  36.208   0.445  1.00  0.00     0.209 HD
ENDBRANCH  30  31
ENDBRANCH  27  30
ENDBRANCH  13  24
BRANCH  12  33
HETATM   33  O5  UNL     1     -23.936  31.356  -5.937  1.00  0.00    -0.378 OA
ATOM     34  H5  UNL     1     -24.416  30.555  -5.767  1.00  0.00     0.211 HD
ENDBRANCH  12  33
BRANCH  21  35
HETATM   35  O9  UNL     1     -25.700  32.163  -7.384  1.00  0.00    -0.378 OA
ATOM     36  H9  UNL     1     -24.990  31.532  -7.408  1.00  0.00     0.211 HD
ENDBRANCH  21  35
BRANCH  22  37
HETATM   37  C27 UNL     1     -27.968  33.365  -6.997  1.00  0.00    -0.026 A 
HETATM   38  C28 UNL     1     -27.587  33.803  -8.239  1.00  0.00     0.010 A 
HETATM   39  C29 UNL     1     -28.471  33.829  -9.299  1.00  0.00     0.001 A 
HETATM   40  C30 UNL     1     -29.751  33.412  -9.118  1.00  0.00     0.000 A 
HETATM   41  C31 UNL     1     -30.176  32.965  -7.889  1.00  0.00     0.001 A 
HETATM   42  C32 UNL     1     -29.269  32.946  -6.829  1.00  0.00     0.010 A 
ENDBRANCH  22  37
BRANCH  17  43
HETATM   43  O8  UNL     1     -28.075  27.119  -4.511  1.00  0.00    -0.361 OA
ATOM     44  H8  UNL     1     -29.003  27.001  -4.344  1.00  0.00     0.217 HD
ENDBRANCH  17  43
BRANCH   5  45
HETATM   45  O3  UNL     1     -21.044  37.207  -7.091  1.00  0.00    -0.358 OA
ATOM     46  H3  UNL     1     -20.691  37.567  -7.895  1.00  0.00     0.217 HD
ENDBRANCH   5  45
BRANCH   7  47
HETATM   47  O4  UNL     1     -25.350  39.322  -7.447  1.00  0.00    -0.361 OA
ATOM     48  H4  UNL     1     -26.114  39.515  -6.917  1.00  0.00     0.217 HD
ENDBRANCH   7  47
TORSDOF 9
ENDMDL
MODEL 3
REMARK VINA RESULT: -7.391642919      2.288      5.014
REMARK  9 active torsions:
REMARK  status: ('A' for Active; 'I' for Inactive)
REMARK    1  A    between atoms: C3_5  and  O3_6 
REMARK    2  A    between atoms: C5_9  and  O4_10 
REMARK    3  A    between atoms: C10_16  and  O5_17 
REMARK    4  A    between atoms: C11_19  and  C12_20 
REMARK    5  A    between atoms: C15_23  and  C16_24 
REMARK    6  A    between atoms: C16_24  and  O6_25 
REMARK    7  A    between atoms: C21_32  and  O8_33 
REMARK    8  A    between atoms: C25_38  and  O9_39 
REMARK    9  A    between atoms: C26_41  and  C27_42 
ROOT
HETATM    1  O1  UNL     1     -25.369  34.511  -1.871  1.00  0.00    -0.259 OA
HETATM    2  C1  UNL     1     -24.471  34.125  -2.688  1.00  0.00     0.300 A 
HETATM    3  O2  UNL     1     -23.200  34.218  -2.403  1.00  0.00    -0.271 OA
HETATM    4  C2  UNL     1     -22.302  33.812  -3.259  1.00  0.00     0.125 A 
HETATM    5  C3  UNL     1     -20.931  33.913  -2.952  1.00  0.00     0.103 A 
HETATM    6  C4  UNL     1     -19.947  33.498  -3.823  1.00  0.00     0.076 A 
HETATM    7  C5  UNL     1     -20.309  32.966  -5.042  1.00  0.00     0.069 A 
HETATM    8  C6  UNL     1     -21.653  32.867  -5.348  1.00  0.00     0.053 A 
HETATM    9  C7  UNL     1     -22.632  33.282  -4.471  1.00  0.00     0.038 A 
HETATM   10  C8  UNL     1     -23.983  33.181  -4.782  1.00  0.00     0.098 A 
HETATM   11  C9  UNL     1     -24.932  33.614  -3.868  1.00  0.00     0.092 A 
HETATM   12  C10 UNL     1     -26.360  33.495  -4.214  1.00  0.00     0.162 C 
HETATM   13  C11 UNL     1     -27.045  34.707  -4.654  1.00  0.00     0.205 C 
HETATM   14  O7  UNL     1     -28.217  34.411  -5.377  1.00  0.00    -0.337 OA
HETATM   15  C19 UNL     1     -28.788  33.151  -5.423  1.00  0.00     0.082 A 
HETATM   16  C20 UNL     1     -30.138  33.046  -5.630  1.00  0.00     0.074 A 
HETATM   17  C21 UNL     1     -30.758  31.806  -5.683  1.00  0.00     0.068 A 
HETATM   18  C22 UNL     1     -29.978  30.695  -5.523  1.00  0.00     0.037 A 
HETATM   19  C23 UNL     1     -28.612  30.805  -5.315  1.00  0.00     0.016 A 
HETATM   20  C24 UNL     1     -27.981  32.015  -5.259  1.00  0.00     0.016 A 
HETATM   21  C25 UNL     1     -26.554  32.232  -5.044  1.00  0.00     0.156 C 
HETATM   22  C26 UNL     1     -25.683  32.118  -6.237  1.00  0.00     0.204 C 
HETATM   23  O10 UNL     1     -24.407  32.664  -5.968  1.00  0.00    -0.336 OA
ENDROOT
BRANCH  13  24
HETATM   24  C12 UNL     1     -26.274  35.757  -5.340  1.00  0.00    -0.025 A 
HETATM   25  C13 UNL     1     -26.188  35.774  -6.710  1.00  0.00     0.010 A 
HETATM   26  C14 UNL     1     -25.480  36.740  -7.406  1.00  0.00     0.010 A 
HETATM   27  C15 UNL     1     -24.830  37.733  -6.711  1.00  0.00    -0.035 A 
HETATM   28  C17 UNL     1     -24.904  37.735  -5.335  1.00  0.00     0.010 A 
HETATM   29  C18 UNL     1     -25.614  36.762  -4.666  1.00  0.00     0.010 A 
BRANCH  27  30
HETATM   30  C16 UNL     1     -24.050  38.803  -7.421  1.00  0.00     0.202 C 
BRANCH  30  31
HETATM   31  O6  UNL     1     -24.913  39.869  -7.659  1.00  0.00    -0.396 OA
ATOM     32  H6  UNL     1     -25.200  40.201  -6.816  1.00  0.00     0.209 HD
ENDBRANCH  30  31
ENDBRANCH  27  30
ENDBRANCH  13  24
BRANCH  12  33
HETATM   33  O5  UNL     1     -26.979  33.116  -2.972  1.00  0.00    -0.378 OA
ATOM     34  H5  UNL     1     -27.206  32.204  -3.105  1.00  0.00     0.211 HD
ENDBRANCH  12  33
BRANCH  21  35
HETATM   35  O9  UNL     1     -26.136  31.189  -4.168  1.00  0.00    -0.378 OA
ATOM     36  H9  UNL     1     -25.844  30.504  -4.759  1.00  0.00     0.211 HD
ENDBRANCH  21  35
BRANCH  22  37
HETATM   37  C27 UNL     1     -25.540  30.698  -6.646  1.00  0.00    -0.026 A 
HETATM   38  C28 UNL     1     -26.286  30.205  -7.684  1.00  0.00     0.010 A 
HETATM   39  C29 UNL     1     -26.183  28.889  -8.087  1.00  0.00     0.001 A 
HETATM   40  C30 UNL     1     -25.324  28.054  -7.447  1.00  0.00     0.000 A 
HETATM   41  C31 UNL     1     -24.556  28.506  -6.401  1.00  0.00     0.001 A 
HETATM   42  C32 UNL     1     -24.674  29.839  -6.006  1.00  0.00     0.010 A 
ENDBRANCH  22  37
BRANCH  17  43
HETATM   43  O8  UNL     1     -32.142  31.729  -5.895  1.00  0.00    -0.361 OA
ATOM     44  H8  UNL     1     -32.646  31.045  -5.470  1.00  0.00     0.217 HD
ENDBRANCH  17  43
BRANCH   5  45
HETATM   45  O3  UNL     1     -20.611  34.453  -1.716  1.00  0.00    -0.358 OA
ATOM     46  H3  UNL     1     -19.745  34.834  -1.630  1.00  0.00     0.217 HD
ENDBRANCH   5  45
BRANCH   7  47
HETATM   47  O4  UNL     1     -19.324  32.542  -5.938  1.00  0.00    -0.361 OA
ATOM     48  H4  UNL     1     -19.347  32.834  -6.841  1.00  0.00     0.217 HD
ENDBRANCH   7  47
TORSDOF 9
ENDMDL
MODEL 4
REMARK VINA RESULT: -7.208472918      2.708      6.403
REMARK  9 active torsions:
REMARK  status: ('A' for Active; 'I' for Inactive)
REMARK    1  A    between atoms: C3_5  and  O3_6 
REMARK    2  A    between atoms: C5_9  and  O4_10 
REMARK    3  A    between atoms: C10_16  and  O5_17 
REMARK    4  A    between atoms: C11_19  and  C12_20 
REMARK    5  A    between atoms: C15_23  and  C16_24 
REMARK    6  A    between atoms: C16_24  and  O6_25 
REMARK    7  A    between atoms: C21_32  and  O8_33 
REMARK    8  A    between atoms: C25_38  and  O9_39 
REMARK    9  A    between atoms: C26_41  and  C27_42 
ROOT
HETATM    1  O1  UNL     1     -23.660  36.512  -2.247  1.00  0.00    -0.259 OA
HETATM    2  C1  UNL     1     -24.295  36.611  -3.347  1.00  0.00     0.300 A 
HETATM    3  O2  UNL     1     -25.420  37.268  -3.433  1.00  0.00    -0.271 OA
HETATM    4  C2  UNL     1     -26.047  37.354  -4.574  1.00  0.00     0.125 A 
HETATM    5  C3  UNL     1     -27.260  38.063  -4.667  1.00  0.00     0.103 A 
HETATM    6  C4  UNL     1     -27.958  38.181  -5.850  1.00  0.00     0.076 A 
HETATM    7  C5  UNL     1     -27.458  37.586  -6.988  1.00  0.00     0.069 A 
HETATM    8  C6  UNL     1     -26.268  36.888  -6.901  1.00  0.00     0.053 A 
HETATM    9  C7  UNL     1     -25.574  36.775  -5.715  1.00  0.00     0.038 A 
HETATM   10  C8  UNL     1     -24.378  36.073  -5.631  1.00  0.00     0.098 A 
HETATM   11  C9  UNL     1     -23.716  35.985  -4.415  1.00  0.00     0.092 A 
HETATM   12  C10 UNL     1     -22.447  35.239  -4.348  1.00  0.00     0.162 C 
HETATM   13  C11 UNL     1     -22.491  33.892  -3.785  1.00  0.00     0.205 C 
HETATM   14  O7  UNL     1     -21.379  33.125  -4.180  1.00  0.00    -0.337 OA
HETATM   15  C19 UNL     1     -20.257  33.663  -4.788  1.00  0.00     0.082 A 
HETATM   16  C20 UNL     1     -19.053  33.030  -4.628  1.00  0.00     0.074 A 
HETATM   17  C21 UNL     1     -17.900  33.529  -5.216  1.00  0.00     0.068 A 
HETATM   18  C22 UNL     1     -18.007  34.671  -5.961  1.00  0.00     0.037 A 
HETATM   19  C23 UNL     1     -19.227  35.308  -6.122  1.00  0.00     0.016 A 
HETATM   20  C24 UNL     1     -20.374  34.834  -5.552  1.00  0.00     0.016 A 
HETATM   21  C25 UNL     1     -21.701  35.433  -5.661  1.00  0.00     0.156 C 
HETATM   22  C26 UNL     1     -22.472  35.104  -6.883  1.00  0.00     0.204 C 
HETATM   23  O10 UNL     1     -23.829  35.463  -6.718  1.00  0.00    -0.336 OA
ENDROOT
BRANCH  13  24
HETATM   24  C12 UNL     1     -23.727  33.103  -3.914  1.00  0.00    -0.025 A 
HETATM   25  C13 UNL     1     -24.592  32.987  -2.854  1.00  0.00     0.010 A 
HETATM   26  C14 UNL     1     -25.770  32.261  -2.923  1.00  0.00     0.010 A 
HETATM   27  C15 UNL     1     -26.103  31.623  -4.095  1.00  0.00    -0.035 A 
HETATM   28  C17 UNL     1     -25.249  31.726  -5.170  1.00  0.00     0.010 A 
HETATM   29  C18 UNL     1     -24.083  32.454  -5.077  1.00  0.00     0.010 A 
BRANCH  27  30
HETATM   30  C16 UNL     1     -27.370  30.824  -4.217  1.00  0.00     0.202 C 
BRANCH  30  31
HETATM   31  O6  UNL     1     -27.350  29.844  -3.228  1.00  0.00    -0.396 OA
ATOM     32  H6  UNL     1     -28.076  30.013  -2.639  1.00  0.00     0.209 HD
ENDBRANCH  30  31
ENDBRANCH  27  30
ENDBRANCH  13  24
BRANCH  12  33
HETATM   33  O5  UNL     1     -21.643  36.021  -3.447  1.00  0.00    -0.378 OA
ATOM     34  H5  UNL     1     -22.174  36.073  -2.662  1.00  0.00     0.211 HD
ENDBRANCH  12  33
BRANCH  21  35
HETATM   35  O9  UNL     1     -21.482  36.839  -5.719  1.00  0.00    -0.378 OA
ATOM     36  H9  UNL     1     -22.172  37.196  -5.172  1.00  0.00     0.211 HD
ENDBRANCH  21  35
BRANCH  22  37
HETATM   37  C27 UNL     1     -21.910  35.810  -8.062  1.00  0.00    -0.026 A 
HETATM   38  C28 UNL     1     -22.468  36.988  -8.484  1.00  0.00     0.010 A 
HETATM   39  C29 UNL     1     -21.976  37.669  -9.580  1.00  0.00     0.001 A 
HETATM   40  C30 UNL     1     -20.913  37.169 -10.262  1.00  0.00     0.000 A 
HETATM   41  C31 UNL     1     -20.323  35.990  -9.873  1.00  0.00     0.001 A 
HETATM   42  C32 UNL     1     -20.834  35.315  -8.764  1.00  0.00     0.010 A 
ENDBRANCH  22  37
BRANCH  17  43
HETATM   43  O8  UNL     1     -16.681  32.861  -5.035  1.00  0.00    -0.361 OA
ATOM     44  H8  UNL     1     -16.135  32.665  -5.787  1.00  0.00     0.217 HD
ENDBRANCH  17  43
BRANCH   5  45
HETATM   45  O3  UNL     1     -27.727  38.647  -3.499  1.00  0.00    -0.358 OA
ATOM     46  H3  UNL     1     -27.653  38.130  -2.705  1.00  0.00     0.217 HD
ENDBRANCH   5  45
BRANCH   7  47
HETATM   47  O4  UNL     1     -28.153  37.694  -8.194  1.00  0.00    -0.361 OA
ATOM     48  H4  UNL     1     -27.900  38.354  -8.829  1.00  0.00     0.217 HD
ENDBRANCH   7  47
TORSDOF 9
ENDMDL
MODEL 5
REMARK VINA RESULT: -7.198444707      2.210      6.962
REMARK  9 active torsions:
REMARK  status: ('A' for Active; 'I' for Inactive)
REMARK    1  A    between atoms: C3_5  and  O3_6 
REMARK    2  A    between atoms: C5_9  and  O4_10 
REMARK    3  A    between atoms: C10_16  and  O5_17 
REMARK    4  A    between atoms: C11_19  and  C12_20 
REMARK    5  A    between atoms: C15_23  and  C16_24 
REMARK    6  A    between atoms: C16_24  and  O6_25 
REMARK    7  A    between atoms: C21_32  and  O8_33 
REMARK    8  A    between atoms: C25_38  and  O9_39 
REMARK    9  A    between atoms: C26_41  and  C27_42 
ROOT
HETATM    1  O1  UNL     1     -24.277  36.722  -2.200  1.00  0.00    -0.259 OA
HETATM    2  C1  UNL     1     -24.620  35.619  -2.738  1.00  0.00     0.300 A 
HETATM    3  O2  UNL     1     -25.006  34.598  -2.021  1.00  0.00    -0.271 OA
HETATM    4  C2  UNL     1     -25.353  33.481  -2.599  1.00  0.00     0.125 A 
HETATM    5  C3  UNL     1     -25.770  32.381  -1.826  1.00  0.00     0.103 A 
HETATM    6  C4  UNL     1     -26.146  31.181  -2.391  1.00  0.00     0.076 A 
HETATM    7  C5  UNL     1     -26.115  31.044  -3.762  1.00  0.00     0.069 A 
HETATM    8  C6  UNL     1     -25.706  32.122  -4.525  1.00  0.00     0.053 A 
HETATM    9  C7  UNL     1     -25.332  33.320  -3.953  1.00  0.00     0.038 A 
HETATM   10  C8  UNL     1     -24.922  34.401  -4.722  1.00  0.00     0.098 A 
HETATM   11  C9  UNL     1     -24.554  35.586  -4.102  1.00  0.00     0.092 A 
HETATM   12  C10 UNL     1     -24.124  36.723  -4.936  1.00  0.00     0.162 C 
HETATM   13  C11 UNL     1     -22.690  36.980  -5.030  1.00  0.00     0.205 C 
HETATM   14  O7  UNL     1     -22.371  37.749  -6.166  1.00  0.00    -0.337 OA
HETATM   15  C19 UNL     1     -23.317  38.406  -6.933  1.00  0.00     0.082 A 
HETATM   16  C20 UNL     1     -22.944  39.533  -7.617  1.00  0.00     0.074 A 
HETATM   17  C21 UNL     1     -23.855  40.228  -8.399  1.00  0.00     0.068 A 
HETATM   18  C22 UNL     1     -25.135  39.751  -8.464  1.00  0.00     0.037 A 
HETATM   19  C23 UNL     1     -25.509  38.611  -7.771  1.00  0.00     0.016 A 
HETATM   20  C24 UNL     1     -24.628  37.911  -6.996  1.00  0.00     0.016 A 
HETATM   21  C25 UNL     1     -24.926  36.704  -6.230  1.00  0.00     0.156 C 
HETATM   22  C26 UNL     1     -24.893  35.426  -6.979  1.00  0.00     0.204 C 
HETATM   23  O10 UNL     1     -24.869  34.333  -6.081  1.00  0.00    -0.336 OA
ENDROOT
BRANCH  13  24
HETATM   24  C12 UNL     1     -21.751  35.854  -4.896  1.00  0.00    -0.025 A 
HETATM   25  C13 UNL     1     -21.147  35.591  -3.692  1.00  0.00     0.010 A 
HETATM   26  C14 UNL     1     -20.260  34.543  -3.509  1.00  0.00     0.010 A 
HETATM   27  C15 UNL     1     -19.960  33.720  -4.569  1.00  0.00    -0.035 A 
HETATM   28  C17 UNL     1     -20.554  33.966  -5.787  1.00  0.00     0.010 A 
HETATM   29  C18 UNL     1     -21.433  35.016  -5.943  1.00  0.00     0.010 A 
BRANCH  27  30
HETATM   30  C16 UNL     1     -19.003  32.570  -4.420  1.00  0.00     0.202 C 
BRANCH  30  31
HETATM   31  O6  UNL     1     -18.257  32.486  -5.592  1.00  0.00    -0.396 OA
ATOM     32  H6  UNL     1     -18.615  33.115  -6.208  1.00  0.00     0.209 HD
ENDBRANCH  30  31
ENDBRANCH  27  30
ENDBRANCH  13  24
BRANCH  12  33
HETATM   33  O5  UNL     1     -24.690  37.865  -4.268  1.00  0.00    -0.378 OA
ATOM     34  H5  UNL     1     -25.573  37.586  -4.059  1.00  0.00     0.211 HD
ENDBRANCH  12  33
BRANCH  21  35
HETATM   35  O9  UNL     1     -26.274  36.853  -5.793  1.00  0.00    -0.378 OA
ATOM     36  H9  UNL     1     -26.718  36.105  -6.176  1.00  0.00     0.211 HD
ENDBRANCH  21  35
BRANCH  22  37
HETATM   37  C27 UNL     1     -26.074  35.311  -7.871  1.00  0.00    -0.026 A 
HETATM   38  C28 UNL     1     -27.170  34.593  -7.467  1.00  0.00     0.010 A 
HETATM   39  C29 UNL     1     -28.283  34.460  -8.273  1.00  0.00     0.001 A 
HETATM   40  C30 UNL     1     -28.304  35.052  -9.496  1.00  0.00     0.000 A 
HETATM   41  C31 UNL     1     -27.227  35.781  -9.940  1.00  0.00     0.001 A 
HETATM   42  C32 UNL     1     -26.110  35.904  -9.113  1.00  0.00     0.010 A 
ENDBRANCH  22  37
BRANCH  17  43
HETATM   43  O8  UNL     1     -23.446  41.379  -9.088  1.00  0.00    -0.361 OA
ATOM     44  H8  UNL     1     -24.053  41.821  -9.669  1.00  0.00     0.217 HD
ENDBRANCH  17  43
BRANCH   5  45
HETATM   45  O3  UNL     1     -25.787  32.560  -0.451  1.00  0.00    -0.358 OA
ATOM     46  H3  UNL     1     -25.630  33.442  -0.135  1.00  0.00     0.217 HD
ENDBRANCH   5  45
BRANCH   7  47
HETATM   47  O4  UNL     1     -26.491  29.835  -4.352  1.00  0.00    -0.361 OA
ATOM     48  H4  UNL     1     -25.873  29.359  -4.892  1.00  0.00     0.217 HD
ENDBRANCH   7  47
TORSDOF 9
ENDMDL
