MODEL 1
REMARK VINA RESULT: -7.228747089      0.000      0.000
REMARK  0 active torsions:
REMARK  status: ('A' for Active; 'I' for Inactive)
ROOT
HETATM    1  N1  UNL     1       3.292  48.809  -1.082  1.00  0.00    -0.379 N 
ATOM      2  H11 UNL     1       2.947  47.863  -1.239  1.00  0.00     0.158 HD
ATOM      3  H12 UNL     1       3.584  48.994  -0.123  1.00  0.00     0.158 HD
HETATM    4  C1  UNL     1       3.359  49.705  -2.003  1.00  0.00     0.145 C 
HETATM    5  N2  UNL     1       3.840  51.023  -1.786  1.00  0.00    -0.362 N 
ATOM      6  H2  UNL     1       4.677  51.125  -1.212  1.00  0.00     0.162 HD
HETATM    7  C2  UNL     1       3.255  52.218  -2.301  1.00  0.00     0.137 C 
HETATM    8  C3  UNL     1       3.913  53.376  -1.530  1.00  0.00     0.082 C 
HETATM    9  C4  UNL     1       3.467  54.724  -1.974  1.00  0.00     0.157 C 
HETATM   10 BR1  UNL     1       2.209  55.600  -0.809  1.00  0.00    -0.051 Br
HETATM   11  O1  UNL     1       4.493  55.583  -2.451  1.00  0.00    -0.357 OA
HETATM   12  C5  UNL     1       3.724  55.901  -3.604  1.00  0.00     0.166 C 
HETATM   13  C6  UNL     1       4.487  55.732  -4.920  1.00  0.00     0.036 C 
HETATM   14  C7  UNL     1       4.238  54.267  -5.342  1.00  0.00     0.014 C 
HETATM   15  C8  UNL     1       4.146  53.648  -4.012  1.00  0.00     0.081 C 
HETATM   16  C9  UNL     1       3.343  52.437  -3.791  1.00  0.00     0.181 C 
HETATM   17  O2  UNL     1       2.060  52.891  -4.201  1.00  0.00    -0.214 OA
HETATM   18  O3  UNL     1       1.975  54.156  -3.850  1.00  0.00    -0.221 OA
HETATM   19  C10 UNL     1       3.107  54.619  -3.395  1.00  0.00     0.171 C 
HETATM   20  S1  UNL     1       3.813  51.000  -4.753  1.00  0.00    -0.045 SA
HETATM   21  S2  UNL     1       2.840  49.377  -3.709  1.00  0.00    -0.019 SA
ENDROOT
TORSDOF 0
ENDMDL
MODEL 2
REMARK VINA RESULT: -6.673428439      3.656      4.672
REMARK  0 active torsions:
REMARK  status: ('A' for Active; 'I' for Inactive)
ROOT
HETATM    1  N1  UNL     1       5.206  55.251  -0.934  1.00  0.00    -0.379 N 
ATOM      2  H11 UNL     1       6.032  55.756  -0.611  1.00  0.00     0.158 HD
ATOM      3  H12 UNL     1       4.779  54.653  -0.226  1.00  0.00     0.158 HD
HETATM    4  C1  UNL     1       4.734  55.345  -2.126  1.00  0.00     0.145 C 
HETATM    5  N2  UNL     1       3.584  54.643  -2.575  1.00  0.00    -0.362 N 
ATOM      6  H2  UNL     1       2.786  54.602  -1.941  1.00  0.00     0.162 HD
HETATM    7  C2  UNL     1       3.448  53.990  -3.837  1.00  0.00     0.137 C 
HETATM    8  C3  UNL     1       2.193  53.105  -3.720  1.00  0.00     0.082 C 
HETATM    9  C4  UNL     1       1.852  52.380  -4.972  1.00  0.00     0.157 C 
HETATM   10 BR1  UNL     1       2.304  50.509  -4.990  1.00  0.00    -0.051 Br
HETATM   11  O1  UNL     1       0.567  52.659  -5.512  1.00  0.00    -0.357 OA
HETATM   12  C5  UNL     1       1.125  52.858  -6.804  1.00  0.00     0.166 C 
HETATM   13  C6  UNL     1       0.702  54.173  -7.463  1.00  0.00     0.036 C 
HETATM   14  C7  UNL     1       1.759  55.205  -7.012  1.00  0.00     0.014 C 
HETATM   15  C8  UNL     1       2.064  54.667  -5.679  1.00  0.00     0.081 C 
HETATM   16  C9  UNL     1       3.382  54.869  -5.060  1.00  0.00     0.181 C 
HETATM   17  O2  UNL     1       4.226  54.262  -6.030  1.00  0.00    -0.214 OA
HETATM   18  O3  UNL     1       3.562  53.239  -6.523  1.00  0.00    -0.221 OA
HETATM   19  C10 UNL     1       2.330  53.197  -6.096  1.00  0.00     0.171 C 
HETATM   20  S1  UNL     1       3.875  56.573  -4.810  1.00  0.00    -0.045 SA
HETATM   21  S2  UNL     1       5.492  56.408  -3.385  1.00  0.00    -0.019 SA
ENDROOT
TORSDOF 0
ENDMDL
MODEL 3
REMARK VINA RESULT: -6.489655995      1.190      1.283
REMARK  0 active torsions:
REMARK  status: ('A' for Active; 'I' for Inactive)
ROOT
HETATM    1  N1  UNL     1       1.175  48.931  -0.302  1.00  0.00    -0.379 N 
ATOM      2  H11 UNL     1       0.539  48.134  -0.332  1.00  0.00     0.158 HD
ATOM      3  H12 UNL     1       1.533  49.143   0.630  1.00  0.00     0.158 HD
HETATM    4  C1  UNL     1       1.506  49.619  -1.336  1.00  0.00     0.145 C 
HETATM    5  N2  UNL     1       2.393  50.728  -1.294  1.00  0.00    -0.362 N 
ATOM      6  H2  UNL     1       3.231  50.632  -0.720  1.00  0.00     0.162 HD
HETATM    7  C2  UNL     1       2.214  51.963  -1.985  1.00  0.00     0.137 C 
HETATM    8  C3  UNL     1       3.229  52.942  -1.367  1.00  0.00     0.082 C 
HETATM    9  C4  UNL     1       3.232  54.285  -2.005  1.00  0.00     0.157 C 
HETATM   10 BR1  UNL     1       2.352  55.675  -1.004  1.00  0.00    -0.051 Br
HETATM   11  O1  UNL     1       4.469  54.692  -2.573  1.00  0.00    -0.357 OA
HETATM   12  C5  UNL     1       3.818  55.077  -3.777  1.00  0.00     0.166 C 
HETATM   13  C6  UNL     1       4.455  54.488  -5.038  1.00  0.00     0.036 C 
HETATM   14  C7  UNL     1       3.736  53.139  -5.257  1.00  0.00     0.014 C 
HETATM   15  C8  UNL     1       3.479  52.775  -3.856  1.00  0.00     0.081 C 
HETATM   16  C9  UNL     1       2.334  51.932  -3.487  1.00  0.00     0.181 C 
HETATM   17  O2  UNL     1       1.257  52.714  -3.987  1.00  0.00    -0.214 OA
HETATM   18  O3  UNL     1       1.594  53.975  -3.819  1.00  0.00    -0.221 OA
HETATM   19  C10 UNL     1       2.824  54.106  -3.405  1.00  0.00     0.171 C 
HETATM   20  S1  UNL     1       2.291  50.301  -4.228  1.00  0.00    -0.045 SA
HETATM   21  S2  UNL     1       0.870  49.242  -2.992  1.00  0.00    -0.019 SA
ENDROOT
TORSDOF 0
ENDMDL
MODEL 4
REMARK VINA RESULT: -6.426645595      2.781      3.316
REMARK  0 active torsions:
REMARK  status: ('A' for Active; 'I' for Inactive)
ROOT
HETATM    1  N1  UNL     1       0.394  49.408  -2.641  1.00  0.00    -0.379 N 
ATOM      2  H11 UNL     1       0.541  48.606  -2.028  1.00  0.00     0.158 HD
ATOM      3  H12 UNL     1      -0.409  49.315  -3.265  1.00  0.00     0.158 HD
HETATM    4  C1  UNL     1       1.145  50.452  -2.642  1.00  0.00     0.145 C 
HETATM    5  N2  UNL     1       0.940  51.569  -3.495  1.00  0.00    -0.362 N 
ATOM      6  H2  UNL     1      -0.020  51.893  -3.615  1.00  0.00     0.162 HD
HETATM    7  C2  UNL     1       1.960  52.277  -4.198  1.00  0.00     0.137 C 
HETATM    8  C3  UNL     1       1.228  53.157  -5.227  1.00  0.00     0.082 C 
HETATM    9  C4  UNL     1       2.133  54.024  -6.027  1.00  0.00     0.157 C 
HETATM   10 BR1  UNL     1       2.465  53.429  -7.828  1.00  0.00    -0.051 Br
HETATM   11  O1  UNL     1       1.894  55.421  -5.927  1.00  0.00    -0.357 OA
HETATM   12  C5  UNL     1       3.275  55.667  -5.700  1.00  0.00     0.166 C 
HETATM   13  C6  UNL     1       3.554  56.532  -4.468  1.00  0.00     0.036 C 
HETATM   14  C7  UNL     1       3.694  55.532  -3.300  1.00  0.00     0.014 C 
HETATM   15  C8  UNL     1       2.752  54.500  -3.755  1.00  0.00     0.081 C 
HETATM   16  C9  UNL     1       2.923  53.091  -3.372  1.00  0.00     0.181 C 
HETATM   17  O2  UNL     1       4.217  52.828  -3.900  1.00  0.00    -0.214 OA
HETATM   18  O3  UNL     1       4.321  53.524  -5.012  1.00  0.00    -0.221 OA
HETATM   19  C10 UNL     1       3.305  54.322  -5.192  1.00  0.00     0.171 C 
HETATM   20  S1  UNL     1       2.906  52.750  -1.613  1.00  0.00    -0.045 SA
HETATM   21  S2  UNL     1       2.571  50.617  -1.534  1.00  0.00    -0.019 SA
ENDROOT
TORSDOF 0
ENDMDL
MODEL 5
REMARK VINA RESULT: -6.396719062      2.940      3.787
REMARK  0 active torsions:
REMARK  status: ('A' for Active; 'I' for Inactive)
ROOT
HETATM    1  N1  UNL     1       4.170  52.454  -8.239  1.00  0.00    -0.379 N 
ATOM      2  H11 UNL     1       4.259  51.569  -8.738  1.00  0.00     0.158 HD
ATOM      3  H12 UNL     1       4.474  53.267  -8.773  1.00  0.00     0.158 HD
HETATM    4  C1  UNL     1       3.718  52.553  -7.039  1.00  0.00     0.145 C 
HETATM    5  N2  UNL     1       3.592  53.785  -6.344  1.00  0.00    -0.362 N 
ATOM      6  H2  UNL     1       3.224  54.579  -6.867  1.00  0.00     0.162 HD
HETATM    7  C2  UNL     1       3.936  54.008  -4.977  1.00  0.00     0.137 C 
HETATM    8  C3  UNL     1       3.949  55.536  -4.790  1.00  0.00     0.082 C 
HETATM    9  C4  UNL     1       4.235  55.967  -3.396  1.00  0.00     0.157 C 
HETATM   10 BR1  UNL     1       6.017  56.625  -3.086  1.00  0.00    -0.051 Br
HETATM   11  O1  UNL     1       3.225  56.752  -2.777  1.00  0.00    -0.357 OA
HETATM   12  C5  UNL     1       3.269  55.936  -1.613  1.00  0.00     0.166 C 
HETATM   13  C6  UNL     1       1.897  55.428  -1.163  1.00  0.00     0.036 C 
HETATM   14  C7  UNL     1       1.701  54.091  -1.910  1.00  0.00     0.014 C 
HETATM   15  C8  UNL     1       2.431  54.399  -3.148  1.00  0.00     0.081 C 
HETATM   16  C9  UNL     1       3.075  53.339  -3.936  1.00  0.00     0.181 C 
HETATM   17  O2  UNL     1       3.969  52.797  -2.971  1.00  0.00    -0.214 OA
HETATM   18  O3  UNL     1       4.379  53.803  -2.228  1.00  0.00    -0.221 OA
HETATM   19  C10 UNL     1       3.745  54.910  -2.501  1.00  0.00     0.171 C 
HETATM   20  S1  UNL     1       1.991  52.050  -4.547  1.00  0.00    -0.045 SA
HETATM   21  S2  UNL     1       3.176  51.107  -6.088  1.00  0.00    -0.019 SA
ENDROOT
TORSDOF 0
ENDMDL
