MODEL 1
REMARK VINA RESULT: -6.536178572      0.000      0.000
REMARK  1 active torsions:
REMARK  status: ('A' for Active; 'I' for Inactive)
REMARK    1  A    between atoms: C10_17  and  O3_18 
ROOT
HETATM    1  N1  UNL     1       4.962  50.154  -5.238  1.00  0.00    -0.074 NA
HETATM    2  C1  UNL     1       3.674  50.087  -4.649  1.00  0.00     0.165 C 
HETATM    3  N2  UNL     1       3.424  49.413  -3.582  1.00  0.00    -0.267 N 
ATOM      4  H2  UNL     1       4.195  48.906  -3.148  1.00  0.00     0.180 HD
HETATM    5  S1  UNL     1       1.882  49.309  -2.842  1.00  0.00     0.232 S 
HETATM    6  O1  UNL     1       2.007  48.320  -1.693  1.00  0.00    -0.206 OA
HETATM    7  O2  UNL     1       0.812  48.859  -3.793  1.00  0.00    -0.206 OA
HETATM    8  C2  UNL     1       1.367  50.850  -2.126  1.00  0.00     0.173 C 
HETATM    9  C3  UNL     1       2.399  51.415  -1.203  1.00  0.00     0.090 C 
HETATM   10  S2  UNL     1       3.344  52.754  -1.963  1.00  0.00    -0.168 SA
HETATM   11  C4  UNL     1       2.772  54.356  -1.355  1.00  0.00     0.074 C 
HETATM   12  C5  UNL     1       3.007  55.465  -2.341  1.00  0.00     0.010 C 
HETATM   13  C6  UNL     1       4.249  55.298  -3.150  1.00  0.00     0.001 C 
HETATM   14  C7  UNL     1       4.109  55.644  -4.592  1.00  0.00     0.000 C 
HETATM   15  C8  UNL     1       2.851  55.191  -5.232  1.00  0.00     0.002 C 
HETATM   16  C9  UNL     1       3.089  54.497  -6.580  1.00  0.00     0.034 C 
HETATM   17  C10 UNL     1       3.703  53.162  -6.351  1.00  0.00     0.146 C 
HETATM   18  C11 UNL     1       2.877  52.001  -6.780  1.00  0.00     0.179 C 
HETATM   19 CL1  UNL     1       1.433  52.462  -7.702  1.00  0.00    -0.111 Cl
HETATM   20  S3  UNL     1       2.332  50.966  -5.400  1.00  0.00    -0.073 SA
ENDROOT
BRANCH  17  21
HETATM   21  O3  UNL     1       4.973  53.174  -6.970  1.00  0.00    -0.393 OA
ATOM     22  H3  UNL     1       5.621  53.074  -6.283  1.00  0.00     0.210 HD
ENDBRANCH  17  21
TORSDOF 1
ENDMDL
MODEL 2
REMARK VINA RESULT: -6.290874650      1.869      2.180
REMARK  1 active torsions:
REMARK  status: ('A' for Active; 'I' for Inactive)
REMARK    1  A    between atoms: C10_17  and  O3_18 
ROOT
HETATM    1  N1  UNL     1       5.443  48.643  -3.465  1.00  0.00    -0.074 NA
HETATM    2  C1  UNL     1       4.029  48.556  -3.520  1.00  0.00     0.165 C 
HETATM    3  N2  UNL     1       3.306  48.231  -2.506  1.00  0.00    -0.267 N 
ATOM      4  H2  UNL     1       3.783  48.029  -1.627  1.00  0.00     0.180 HD
HETATM    5  S1  UNL     1       1.597  48.115  -2.533  1.00  0.00     0.232 S 
HETATM    6  O1  UNL     1       1.166  47.586  -1.174  1.00  0.00    -0.206 OA
HETATM    7  O2  UNL     1       1.095  47.209  -3.619  1.00  0.00    -0.206 OA
HETATM    8  C2  UNL     1       0.812  49.695  -2.732  1.00  0.00     0.173 C 
HETATM    9  C3  UNL     1       1.293  50.693  -1.728  1.00  0.00     0.090 C 
HETATM   10  S2  UNL     1       2.489  51.853  -2.428  1.00  0.00    -0.168 SA
HETATM   11  C4  UNL     1       1.704  53.445  -2.762  1.00  0.00     0.074 C 
HETATM   12  C5  UNL     1       2.378  54.199  -3.873  1.00  0.00     0.010 C 
HETATM   13  C6  UNL     1       3.853  53.990  -3.935  1.00  0.00     0.001 C 
HETATM   14  C7  UNL     1       4.406  53.822  -5.309  1.00  0.00     0.000 C 
HETATM   15  C8  UNL     1       3.593  52.982  -6.219  1.00  0.00     0.002 C 
HETATM   16  C9  UNL     1       4.432  51.939  -6.970  1.00  0.00     0.034 C 
HETATM   17  C10 UNL     1       4.862  50.873  -6.027  1.00  0.00     0.146 C 
HETATM   18  C11 UNL     1       4.329  49.514  -6.318  1.00  0.00     0.179 C 
HETATM   19 CL1  UNL     1       3.488  49.403  -7.875  1.00  0.00    -0.111 Cl
HETATM   20  S3  UNL     1       3.198  48.906  -5.044  1.00  0.00    -0.073 SA
ENDROOT
BRANCH  17  21
HETATM   21  O3  UNL     1       6.275  50.897  -5.985  1.00  0.00    -0.393 OA
ATOM     22  H3  UNL     1       6.524  51.313  -5.168  1.00  0.00     0.210 HD
ENDBRANCH  17  21
TORSDOF 1
ENDMDL
MODEL 3
REMARK VINA RESULT: -6.270436875      2.604      3.482
REMARK  1 active torsions:
REMARK  status: ('A' for Active; 'I' for Inactive)
REMARK    1  A    between atoms: C10_17  and  O3_18 
ROOT
HETATM    1  N1  UNL     1       5.789  48.667  -2.393  1.00  0.00    -0.074 NA
HETATM    2  C1  UNL     1       4.371  48.664  -2.366  1.00  0.00     0.165 C 
HETATM    3  N2  UNL     1       3.689  48.963  -1.316  1.00  0.00    -0.267 N 
ATOM      4  H2  UNL     1       4.201  49.211  -0.470  1.00  0.00     0.180 HD
HETATM    5  S1  UNL     1       1.977  48.970  -1.245  1.00  0.00     0.232 S 
HETATM    6  O1  UNL     1       1.594  49.252   0.200  1.00  0.00    -0.206 OA
HETATM    7  O2  UNL     1       1.372  47.671  -1.692  1.00  0.00    -0.206 OA
HETATM    8  C2  UNL     1       1.262  50.271  -2.219  1.00  0.00     0.173 C 
HETATM    9  C3  UNL     1       1.846  51.607  -1.890  1.00  0.00     0.090 C 
HETATM   10  S2  UNL     1       3.059  52.150  -3.114  1.00  0.00    -0.168 SA
HETATM   11  C4  UNL     1       2.337  53.392  -4.211  1.00  0.00     0.074 C 
HETATM   12  C5  UNL     1       2.987  53.412  -5.566  1.00  0.00     0.010 C 
HETATM   13  C6  UNL     1       4.444  53.098  -5.539  1.00  0.00     0.001 C 
HETATM   14  C7  UNL     1       4.913  52.205  -6.637  1.00  0.00     0.000 C 
HETATM   15  C8  UNL     1       4.011  51.075  -6.962  1.00  0.00     0.002 C 
HETATM   16  C9  UNL     1       4.756  49.738  -7.079  1.00  0.00     0.034 C 
HETATM   17  C10 UNL     1       5.182  49.286  -5.728  1.00  0.00     0.146 C 
HETATM   18  C11 UNL     1       4.567  48.014  -5.260  1.00  0.00     0.179 C 
HETATM   19 CL1  UNL     1       3.638  47.174  -6.516  1.00  0.00    -0.111 Cl
HETATM   20  S3  UNL     1       3.477  48.234  -3.833  1.00  0.00    -0.073 SA
ENDROOT
BRANCH  17  21
HETATM   21  O3  UNL     1       6.595  49.228  -5.733  1.00  0.00    -0.393 OA
ATOM     22  H3  UNL     1       6.911  50.110  -5.892  1.00  0.00     0.210 HD
ENDBRANCH  17  21
TORSDOF 1
ENDMDL
MODEL 4
REMARK VINA RESULT: -6.219439428      2.605      5.010
REMARK  1 active torsions:
REMARK  status: ('A' for Active; 'I' for Inactive)
REMARK    1  A    between atoms: C10_17  and  O3_18 
ROOT
HETATM    1  N1  UNL     1       0.329  50.280  -5.430  1.00  0.00    -0.074 NA
HETATM    2  C1  UNL     1       1.503  50.688  -6.113  1.00  0.00     0.165 C 
HETATM    3  N2  UNL     1       1.480  51.297  -7.246  1.00  0.00    -0.267 N 
ATOM      4  H2  UNL     1       0.570  51.490  -7.665  1.00  0.00     0.180 HD
HETATM    5  S1  UNL     1       2.876  51.805  -8.100  1.00  0.00     0.232 S 
HETATM    6  O1  UNL     1       2.402  52.361  -9.434  1.00  0.00    -0.206 OA
HETATM    7  O2  UNL     1       3.854  50.690  -8.327  1.00  0.00    -0.206 OA
HETATM    8  C2  UNL     1       3.732  53.126  -7.279  1.00  0.00     0.173 C 
HETATM    9  C3  UNL     1       2.823  54.268  -6.952  1.00  0.00     0.090 C 
HETATM   10  S2  UNL     1       2.335  54.285  -5.213  1.00  0.00    -0.168 SA
HETATM   11  C4  UNL     1       3.270  55.536  -4.306  1.00  0.00     0.074 C 
HETATM   12  C5  UNL     1       3.417  55.202  -2.848  1.00  0.00     0.010 C 
HETATM   13  C6  UNL     1       2.242  54.487  -2.272  1.00  0.00     0.001 C 
HETATM   14  C7  UNL     1       2.579  53.370  -1.346  1.00  0.00     0.000 C 
HETATM   15  C8  UNL     1       3.713  52.516  -1.772  1.00  0.00     0.002 C 
HETATM   16  C9  UNL     1       3.399  51.017  -1.662  1.00  0.00     0.034 C 
HETATM   17  C10 UNL     1       2.433  50.631  -2.724  1.00  0.00     0.146 C 
HETATM   18  C11 UNL     1       2.945  49.658  -3.727  1.00  0.00     0.179 C 
HETATM   19 CL1  UNL     1       4.525  48.972  -3.302  1.00  0.00    -0.111 Cl
HETATM   20  S3  UNL     1       3.085  50.355  -5.390  1.00  0.00    -0.073 SA
ENDROOT
BRANCH  17  21
HETATM   21  O3  UNL     1       1.263  50.170  -2.079  1.00  0.00    -0.393 OA
ATOM     22  H3  UNL     1       0.830  50.930  -1.706  1.00  0.00     0.210 HD
ENDBRANCH  17  21
TORSDOF 1
ENDMDL
MODEL 5
REMARK VINA RESULT: -6.216343366      2.498      3.487
REMARK  1 active torsions:
REMARK  status: ('A' for Active; 'I' for Inactive)
REMARK    1  A    between atoms: C10_17  and  O3_18 
ROOT
HETATM    1  N1  UNL     1       4.910  52.831  -7.114  1.00  0.00    -0.074 NA
HETATM    2  C1  UNL     1       3.553  52.443  -6.981  1.00  0.00     0.165 C 
HETATM    3  N2  UNL     1       3.151  51.230  -7.137  1.00  0.00    -0.267 N 
ATOM      4  H2  UNL     1       3.849  50.523  -7.367  1.00  0.00     0.180 HD
HETATM    5  S1  UNL     1       1.521  50.724  -6.985  1.00  0.00     0.232 S 
HETATM    6  O1  UNL     1       1.475  49.254  -7.370  1.00  0.00    -0.206 OA
HETATM    7  O2  UNL     1       0.586  51.512  -7.855  1.00  0.00    -0.206 OA
HETATM    8  C2  UNL     1       0.931  50.826  -5.313  1.00  0.00     0.173 C 
HETATM    9  C3  UNL     1       1.833  50.118  -4.354  1.00  0.00     0.090 C 
HETATM   10  S2  UNL     1       2.890  51.258  -3.433  1.00  0.00    -0.168 SA
HETATM   11  C4  UNL     1       2.259  51.489  -1.756  1.00  0.00     0.074 C 
HETATM   12  C5  UNL     1       2.641  52.821  -1.174  1.00  0.00     0.010 C 
HETATM   13  C6  UNL     1       3.980  53.309  -1.615  1.00  0.00     0.001 C 
HETATM   14  C7  UNL     1       4.043  54.763  -1.936  1.00  0.00     0.000 C 
HETATM   15  C8  UNL     1       2.880  55.296  -2.683  1.00  0.00     0.002 C 
HETATM   16  C9  UNL     1       3.292  56.163  -3.881  1.00  0.00     0.034 C 
HETATM   17  C10 UNL     1       3.852  55.297  -4.953  1.00  0.00     0.146 C 
HETATM   18  C11 UNL     1       3.079  55.278  -6.224  1.00  0.00     0.179 C 
HETATM   19 CL1  UNL     1       1.781  56.487  -6.280  1.00  0.00    -0.111 Cl
HETATM   20  S3  UNL     1       2.337  53.667  -6.582  1.00  0.00    -0.073 SA
ENDROOT
BRANCH  17  21
HETATM   21  O3  UNL     1       5.195  55.690  -5.148  1.00  0.00    -0.393 OA
ATOM     22  H3  UNL     1       5.268  56.594  -4.866  1.00  0.00     0.210 HD
ENDBRANCH  17  21
TORSDOF 1
ENDMDL
