MODEL 1
REMARK VINA RESULT: -7.666288226      0.000      0.000
REMARK  0 active torsions:
REMARK  status: ('A' for Active; 'I' for Inactive)
ROOT
HETATM    1  N1  UNL     1      -0.260  49.451  -5.738  1.00  0.00    -0.191 NA
HETATM    2  C1  UNL     1       0.376  49.713  -4.812  1.00  0.00     0.100 C 
HETATM    3  C2  UNL     1       1.168  50.005  -3.653  1.00  0.00     0.057 A 
HETATM    4  C3  UNL     1       0.918  49.174  -2.553  1.00  0.00     0.065 A 
HETATM    5  C4  UNL     1       1.621  49.396  -1.391  1.00  0.00     0.118 A 
HETATM    6  F1  UNL     1       1.369  48.581  -0.328  1.00  0.00    -0.206 F 
HETATM    7  C5  UNL     1       2.554  50.409  -1.299  1.00  0.00     0.050 A 
HETATM    8  C6  UNL     1       2.781  51.205  -2.384  1.00  0.00    -0.044 A 
HETATM    9  C7  UNL     1       2.102  51.027  -3.584  1.00  0.00     0.002 A 
HETATM   10  C8  UNL     1       2.573  52.044  -4.588  1.00  0.00     0.108 A 
HETATM   11  N2  UNL     1       1.398  52.623  -5.186  1.00  0.00    -0.316 N 
ATOM     12  H2  UNL     1       0.716  53.047  -4.558  1.00  0.00     0.181 HD
HETATM   13  N3  UNL     1       1.148  52.647  -6.397  1.00  0.00    -0.277 N 
ATOM     14  H3  UNL     1       0.291  53.081  -6.740  1.00  0.00     0.189 HD
HETATM   15  C9  UNL     1       2.066  52.066  -7.296  1.00  0.00     0.203 A 
HETATM   16  N4  UNL     1       1.809  52.071  -8.726  1.00  0.00    -0.062 NA
HETATM   17  N5  UNL     1       3.109  51.541  -6.871  1.00  0.00    -0.351 N 
ATOM     18  H5  UNL     1       3.734  51.135  -7.567  1.00  0.00     0.163 HD
HETATM   19  C10 UNL     1       3.522  51.448  -5.500  1.00  0.00     0.064 A 
HETATM   20  C11 UNL     1       3.811  49.960  -5.309  1.00  0.00     0.034 C 
HETATM   21  C12 UNL     1       5.214  49.699  -5.838  1.00  0.00     0.003 C 
HETATM   22  C13 UNL     1       5.581  51.010  -6.499  1.00  0.00     0.003 C 
HETATM   23  C14 UNL     1       4.919  52.037  -5.534  1.00  0.00     0.034 C 
HETATM   24  C15 UNL     1       3.057  53.108  -3.637  1.00  0.00     0.001 C 
HETATM   25  C16 UNL     1       1.748  53.665  -3.016  1.00  0.00     0.039 C 
HETATM   26  C17 UNL     1       2.021  54.524  -1.820  1.00  0.00     0.168 C 
HETATM   27  O1  UNL     1       3.158  55.287  -2.075  1.00  0.00    -0.391 OA
HETATM   28  C18 UNL     1       3.274  55.523  -3.423  1.00  0.00     0.168 C 
HETATM   29  C19 UNL     1       3.731  54.277  -4.208  1.00  0.00     0.039 C 
HETATM   30  C20 UNL     1       3.704  52.382  -2.530  1.00  0.00     0.052 C 
ENDROOT
TORSDOF 0
ENDMDL
MODEL 2
REMARK VINA RESULT: -7.523790333      2.967      4.668
REMARK  0 active torsions:
REMARK  status: ('A' for Active; 'I' for Inactive)
ROOT
HETATM    1  N1  UNL     1       1.355  49.892  -0.098  1.00  0.00    -0.191 NA
HETATM    2  C1  UNL     1       1.900  50.552  -0.873  1.00  0.00     0.100 C 
HETATM    3  C2  UNL     1       2.599  51.381  -1.811  1.00  0.00     0.057 A 
HETATM    4  C3  UNL     1       3.094  52.577  -1.274  1.00  0.00     0.065 A 
HETATM    5  C4  UNL     1       3.762  53.443  -2.109  1.00  0.00     0.118 A 
HETATM    6  F1  UNL     1       4.239  54.602  -1.575  1.00  0.00    -0.206 F 
HETATM    7  C5  UNL     1       3.946  53.151  -3.445  1.00  0.00     0.050 A 
HETATM    8  C6  UNL     1       3.456  51.980  -3.946  1.00  0.00    -0.044 A 
HETATM    9  C7  UNL     1       2.774  51.067  -3.149  1.00  0.00     0.002 A 
HETATM   10  C8  UNL     1       2.368  49.877  -3.978  1.00  0.00     0.108 A 
HETATM   11  N2  UNL     1       0.982  49.616  -3.690  1.00  0.00    -0.316 N 
ATOM     12  H2  UNL     1       0.323  50.381  -3.836  1.00  0.00     0.181 HD
HETATM   13  N3  UNL     1       0.524  48.543  -3.280  1.00  0.00    -0.277 N 
ATOM     14  H3  UNL     1      -0.475  48.440  -3.103  1.00  0.00     0.189 HD
HETATM   15  C9  UNL     1       1.406  47.464  -3.061  1.00  0.00     0.203 A 
HETATM   16  N4  UNL     1       0.910  46.187  -2.578  1.00  0.00    -0.062 NA
HETATM   17  N5  UNL     1       2.622  47.597  -3.281  1.00  0.00    -0.351 N 
ATOM     18  H5  UNL     1       3.211  46.783  -3.103  1.00  0.00     0.163 HD
HETATM   19  C10 UNL     1       3.280  48.779  -3.760  1.00  0.00     0.064 A 
HETATM   20  C11 UNL     1       4.397  49.009  -2.742  1.00  0.00     0.034 C 
HETATM   21  C12 UNL     1       5.557  48.102  -3.129  1.00  0.00     0.003 C 
HETATM   22  C13 UNL     1       4.969  47.243  -4.228  1.00  0.00     0.003 C 
HETATM   23  C14 UNL     1       4.050  48.265  -4.961  1.00  0.00     0.034 C 
HETATM   24  C15 UNL     1       2.340  50.533  -5.334  1.00  0.00     0.001 C 
HETATM   25  C16 UNL     1       1.104  51.470  -5.261  1.00  0.00     0.039 C 
HETATM   26  C17 UNL     1       1.074  52.441  -6.400  1.00  0.00     0.168 C 
HETATM   27  O1  UNL     1       1.494  51.782  -7.552  1.00  0.00    -0.391 OA
HETATM   28  C18 UNL     1       1.180  50.447  -7.472  1.00  0.00     0.168 C 
HETATM   29  C19 UNL     1       2.095  49.678  -6.499  1.00  0.00     0.039 C 
HETATM   30  C20 UNL     1       3.491  51.451  -5.352  1.00  0.00     0.052 C 
ENDROOT
TORSDOF 0
ENDMDL
MODEL 3
REMARK VINA RESULT: -7.463021805      2.733      4.702
REMARK  0 active torsions:
REMARK  status: ('A' for Active; 'I' for Inactive)
ROOT
HETATM    1  N1  UNL     1       3.703  49.591  -8.266  1.00  0.00    -0.191 NA
HETATM    2  C1  UNL     1       3.036  50.487  -7.977  1.00  0.00     0.100 C 
HETATM    3  C2  UNL     1       2.182  51.588  -7.637  1.00  0.00     0.057 A 
HETATM    4  C3  UNL     1       1.329  52.002  -8.668  1.00  0.00     0.065 A 
HETATM    5  C4  UNL     1       0.487  53.066  -8.434  1.00  0.00     0.118 A 
HETATM    6  F1  UNL     1      -0.338  53.459  -9.445  1.00  0.00    -0.206 F 
HETATM    7  C5  UNL     1       0.475  53.717  -7.218  1.00  0.00     0.050 A 
HETATM    8  C6  UNL     1       1.315  53.295  -6.228  1.00  0.00    -0.044 A 
HETATM    9  C7  UNL     1       2.185  52.226  -6.406  1.00  0.00     0.002 A 
HETATM   10  C8  UNL     1       2.969  51.995  -5.142  1.00  0.00     0.108 A 
HETATM   11  N2  UNL     1       4.352  51.862  -5.521  1.00  0.00    -0.316 N 
ATOM     12  H2  UNL     1       4.766  52.629  -6.050  1.00  0.00     0.181 HD
HETATM   13  N3  UNL     1       5.078  50.896  -5.260  1.00  0.00    -0.277 N 
ATOM     14  H3  UNL     1       6.051  50.882  -5.564  1.00  0.00     0.189 HD
HETATM   15  C9  UNL     1       4.538  49.814  -4.534  1.00  0.00     0.203 A 
HETATM   16  N4  UNL     1       5.356  48.657  -4.208  1.00  0.00    -0.062 NA
HETATM   17  N5  UNL     1       3.352  49.839  -4.165  1.00  0.00    -0.351 N 
ATOM     18  H5  UNL     1       3.017  49.027  -3.646  1.00  0.00     0.163 HD
HETATM   19  C10 UNL     1       2.406  50.893  -4.396  1.00  0.00     0.064 A 
HETATM   20  C11 UNL     1       1.213  50.178  -5.029  1.00  0.00     0.034 C 
HETATM   21  C12 UNL     1       0.394  49.575  -3.897  1.00  0.00     0.003 C 
HETATM   22  C13 UNL     1       1.271  49.796  -2.683  1.00  0.00     0.003 C 
HETATM   23  C14 UNL     1       1.892  51.188  -3.001  1.00  0.00     0.034 C 
HETATM   24  C15 UNL     1       2.885  53.380  -4.556  1.00  0.00     0.001 C 
HETATM   25  C16 UNL     1       3.786  54.229  -5.493  1.00  0.00     0.039 C 
HETATM   26  C17 UNL     1       3.600  55.696  -5.266  1.00  0.00     0.168 C 
HETATM   27  O1  UNL     1       3.459  55.917  -3.898  1.00  0.00    -0.391 OA
HETATM   28  C18 UNL     1       4.144  54.956  -3.194  1.00  0.00     0.168 C 
HETATM   29  C19 UNL     1       3.437  53.587  -3.214  1.00  0.00     0.039 C 
HETATM   30  C20 UNL     1       1.519  53.848  -4.845  1.00  0.00     0.052 C 
ENDROOT
TORSDOF 0
ENDMDL
MODEL 4
REMARK VINA RESULT: -7.399007429      3.237      5.611
REMARK  0 active torsions:
REMARK  status: ('A' for Active; 'I' for Inactive)
ROOT
HETATM    1  N1  UNL     1      -0.771  50.183  -7.446  1.00  0.00    -0.191 NA
HETATM    2  C1  UNL     1       0.303  50.606  -7.429  1.00  0.00     0.100 C 
HETATM    3  C2  UNL     1       1.624  51.162  -7.420  1.00  0.00     0.057 A 
HETATM    4  C3  UNL     1       1.900  52.026  -8.488  1.00  0.00     0.065 A 
HETATM    5  C4  UNL     1       3.152  52.591  -8.568  1.00  0.00     0.118 A 
HETATM    6  F1  UNL     1       3.407  53.430  -9.610  1.00  0.00    -0.206 F 
HETATM    7  C5  UNL     1       4.123  52.319  -7.625  1.00  0.00     0.050 A 
HETATM    8  C6  UNL     1       3.832  51.474  -6.593  1.00  0.00    -0.044 A 
HETATM    9  C7  UNL     1       2.584  50.876  -6.461  1.00  0.00     0.002 A 
HETATM   10  C8  UNL     1       2.565  50.012  -5.228  1.00  0.00     0.108 A 
HETATM   11  N2  UNL     1       2.000  48.745  -5.610  1.00  0.00    -0.316 N 
ATOM     12  H2  UNL     1       2.450  48.244  -6.376  1.00  0.00     0.181 HD
HETATM   13  N3  UNL     1       1.014  48.212  -5.087  1.00  0.00    -0.277 N 
ATOM     14  H3  UNL     1       0.678  47.307  -5.417  1.00  0.00     0.189 HD
HETATM   15  C9  UNL     1       0.361  48.876  -4.028  1.00  0.00     0.203 A 
HETATM   16  N4  UNL     1      -0.802  48.287  -3.387  1.00  0.00    -0.062 NA
HETATM   17  N5  UNL     1       0.777  49.977  -3.630  1.00  0.00    -0.351 N 
ATOM     18  H5  UNL     1       0.265  50.411  -2.862  1.00  0.00     0.163 HD
HETATM   19  C10 UNL     1       1.906  50.700  -4.142  1.00  0.00     0.064 A 
HETATM   20  C11 UNL     1       1.339  52.085  -4.454  1.00  0.00     0.034 C 
HETATM   21  C12 UNL     1       1.318  52.870  -3.151  1.00  0.00     0.003 C 
HETATM   22  C13 UNL     1       1.679  51.827  -2.116  1.00  0.00     0.003 C 
HETATM   23  C14 UNL     1       2.722  50.969  -2.893  1.00  0.00     0.034 C 
HETATM   24  C15 UNL     1       4.041  49.732  -5.115  1.00  0.00     0.001 C 
HETATM   25  C16 UNL     1       4.328  48.792  -6.316  1.00  0.00     0.039 C 
HETATM   26  C17 UNL     1       5.796  48.636  -6.563  1.00  0.00     0.168 C 
HETATM   27  O1  UNL     1       6.445  48.562  -5.334  1.00  0.00    -0.391 OA
HETATM   28  C18 UNL     1       5.608  48.015  -4.392  1.00  0.00     0.168 C 
HETATM   29  C19 UNL     1       4.505  48.992  -3.938  1.00  0.00     0.039 C 
HETATM   30  C20 UNL     1       4.711  50.993  -5.473  1.00  0.00     0.052 C 
ENDROOT
TORSDOF 0
ENDMDL
MODEL 5
REMARK VINA RESULT: -7.378053886      3.224      5.280
REMARK  0 active torsions:
REMARK  status: ('A' for Active; 'I' for Inactive)
ROOT
HETATM    1  N1  UNL     1       5.366  48.603  -1.122  1.00  0.00    -0.191 NA
HETATM    2  C1  UNL     1       5.182  48.679  -2.259  1.00  0.00     0.100 C 
HETATM    3  C2  UNL     1       4.966  48.742  -3.675  1.00  0.00     0.057 A 
HETATM    4  C3  UNL     1       5.947  48.100  -4.442  1.00  0.00     0.065 A 
HETATM    5  C4  UNL     1       5.828  48.128  -5.813  1.00  0.00     0.118 A 
HETATM    6  F1  UNL     1       6.789  47.500  -6.548  1.00  0.00    -0.206 F 
HETATM    7  C5  UNL     1       4.773  48.768  -6.429  1.00  0.00     0.050 A 
HETATM    8  C6  UNL     1       3.828  49.386  -5.661  1.00  0.00    -0.044 A 
HETATM    9  C7  UNL     1       3.896  49.389  -4.272  1.00  0.00     0.002 A 
HETATM   10  C8  UNL     1       2.716  50.136  -3.710  1.00  0.00     0.108 A 
HETATM   11  N2  UNL     1       3.226  51.048  -2.720  1.00  0.00    -0.316 N 
ATOM     12  H2  UNL     1       3.943  51.709  -3.020  1.00  0.00     0.181 HD
HETATM   13  N3  UNL     1       2.868  51.097  -1.537  1.00  0.00    -0.277 N 
ATOM     14  H3  UNL     1       3.280  51.778  -0.899  1.00  0.00     0.189 HD
HETATM   15  C9  UNL     1       1.883  50.195  -1.085  1.00  0.00     0.203 A 
HETATM   16  N4  UNL     1       1.435  50.217   0.297  1.00  0.00    -0.062 NA
HETATM   17  N5  UNL     1       1.385  49.370  -1.869  1.00  0.00    -0.351 N 
ATOM     18  H5  UNL     1       0.678  48.742  -1.485  1.00  0.00     0.163 HD
HETATM   19  C10 UNL     1       1.704  49.210  -3.259  1.00  0.00     0.064 A 
HETATM   20  C11 UNL     1       2.032  47.723  -3.387  1.00  0.00     0.034 C 
HETATM   21  C12 UNL     1       0.712  46.976  -3.516  1.00  0.00     0.003 C 
HETATM   22  C13 UNL     1      -0.318  48.052  -3.245  1.00  0.00     0.003 C 
HETATM   23  C14 UNL     1       0.343  49.289  -3.923  1.00  0.00     0.034 C 
HETATM   24  C15 UNL     1       2.411  51.018  -4.893  1.00  0.00     0.001 C 
HETATM   25  C16 UNL     1       3.599  52.016  -4.921  1.00  0.00     0.039 C 
HETATM   26  C17 UNL     1       3.647  52.789  -6.202  1.00  0.00     0.168 C 
HETATM   27  O1  UNL     1       2.343  53.108  -6.573  1.00  0.00    -0.391 OA
HETATM   28  C18 UNL     1       1.551  53.224  -5.457  1.00  0.00     0.168 C 
HETATM   29  C19 UNL     1       1.213  51.861  -4.823  1.00  0.00     0.039 C 
HETATM   30  C20 UNL     1       2.618  50.172  -6.080  1.00  0.00     0.052 C 
ENDROOT
TORSDOF 0
ENDMDL
