MODEL 1
REMARK VINA RESULT: -9.915615890      0.000      0.000
REMARK  4 active torsions:
REMARK  status: ('A' for Active; 'I' for Inactive)
REMARK    1  A    between atoms: N1_1  and  C1_4 
REMARK    2  A    between atoms: C2_7  and  C3_8 
REMARK       I    between atoms: C3_8  and  N3_10 
REMARK       I    between atoms: N3_10  and  C4_12 
REMARK       I    between atoms: C4_12  and  N4_13 
REMARK       I    between atoms: C4_12  and  N5_17 
REMARK    3  A    between atoms: C6_22  and  C7_23 
REMARK       I    between atoms: C7_23  and  N6_25 
REMARK    4  A    between atoms: N6_25  and  N7_27 
ROOT
HETATM    1  C1  UNL     1      10.793  -9.928  13.177  1.00  0.00     0.677 A 
HETATM    2  N2  UNL     1      10.510  -8.654  12.858  1.00  0.00    -0.186 N 
ATOM      3  H2  UNL     1       9.540  -8.346  12.924  1.00  0.00     0.184 HD
HETATM    4  C2  UNL     1      11.433  -7.761  12.457  1.00  0.00     0.119 A 
HETATM    5  C5  UNL     1      12.745  -8.240  12.380  1.00  0.00     0.071 A 
HETATM    6  C6  UNL     1      13.091  -9.534  12.693  1.00  0.00     0.120 A 
HETATM    7  N8  UNL     1      12.087 -10.355  13.089  1.00  0.00    -0.186 N 
ATOM      8  H8  UNL     1      12.306 -11.322  13.330  1.00  0.00     0.184 HD
ENDROOT
BRANCH   4   9
HETATM    9  C3  UNL     1      11.124  -6.398  12.079  1.00  0.00     0.271 C 
HETATM   10  O1  UNL     1      10.042  -6.159  11.508  1.00  0.00    -0.266 OA
HETATM   11  N3  UNL     1      12.055  -5.366  12.372  1.00  0.00    -0.306 N 
HETATM   12  C4  UNL     1      11.780  -3.993  12.010  1.00  0.00     0.483 C 
ATOM     13  H3  UNL     1      12.929  -5.596  12.844  1.00  0.00     0.166 HD
HETATM   14  N4  UNL     1      11.205  -3.267  13.153  1.00  0.00    -0.033 N 
HETATM   15  N5  UNL     1      12.984  -3.386  11.512  1.00  0.00    -0.033 N 
ATOM     16  H43 UNL     1      10.378  -3.734  13.523  1.00  0.00     0.278 HD
ATOM     17  H42 UNL     1      11.797  -3.330  13.981  1.00  0.00     0.278 HD
ATOM     18  H41 UNL     1      11.011  -2.299  12.898  1.00  0.00     0.278 HD
ATOM     19  H53 UNL     1      13.759  -3.466  12.169  1.00  0.00     0.278 HD
ATOM     20  H52 UNL     1      13.394  -3.915  10.741  1.00  0.00     0.278 HD
ATOM     21  H51 UNL     1      12.790  -2.418  11.256  1.00  0.00     0.278 HD
ENDBRANCH   4   9
BRANCH   1  22
HETATM   22  N1  UNL     1       9.855 -10.740  13.570  1.00  0.00    -0.234 N 
ATOM     23  H12 UNL     1       9.527 -11.489  12.959  1.00  0.00     0.174 HD
ATOM     24  H11 UNL     1       9.437 -10.644  14.495  1.00  0.00     0.174 HD
ENDBRANCH   1  22
BRANCH   6  25
HETATM   25  C7  UNL     1      14.468  -9.990  12.542  1.00  0.00     0.291 C 
HETATM   26  O2  UNL     1      14.712 -11.238  12.629  1.00  0.00    -0.264 OA
HETATM   27  N6  UNL     1      15.548  -9.119  12.306  1.00  0.00    -0.204 N 
ATOM     28  H6  UNL     1      15.376  -8.117  12.220  1.00  0.00     0.196 HD
BRANCH  27  29
HETATM   29  N7  UNL     1      16.844  -9.605  12.189  1.00  0.00    -0.036 N 
HETATM   30  O3  UNL     1      17.632  -9.606  13.136  1.00  0.00    -0.516 OA
HETATM   31  O4  UNL     1      17.257 -10.098  10.972  1.00  0.00    -0.516 OA
ENDBRANCH  27  29
ENDBRANCH   6  25
TORSDOF 4
ENDMDL
MODEL 2
REMARK VINA RESULT: -9.289733749      1.718      5.774
REMARK  4 active torsions:
REMARK  status: ('A' for Active; 'I' for Inactive)
REMARK    1  A    between atoms: N1_1  and  C1_4 
REMARK    2  A    between atoms: C2_7  and  C3_8 
REMARK       I    between atoms: C3_8  and  N3_10 
REMARK       I    between atoms: N3_10  and  C4_12 
REMARK       I    between atoms: C4_12  and  N4_13 
REMARK       I    between atoms: C4_12  and  N5_17 
REMARK    3  A    between atoms: C6_22  and  C7_23 
REMARK       I    between atoms: C7_23  and  N6_25 
REMARK    4  A    between atoms: N6_25  and  N7_27 
ROOT
HETATM    1  C1  UNL     1      10.162  -9.404  12.337  1.00  0.00     0.677 A 
HETATM    2  N2  UNL     1      11.321 -10.083  12.396  1.00  0.00    -0.186 N 
ATOM      3  H2  UNL     1      11.280 -11.101  12.429  1.00  0.00     0.184 HD
HETATM    4  C2  UNL     1      12.531  -9.495  12.416  1.00  0.00     0.119 A 
HETATM    5  C5  UNL     1      12.525  -8.097  12.375  1.00  0.00     0.071 A 
HETATM    6  C6  UNL     1      11.369  -7.352  12.315  1.00  0.00     0.120 A 
HETATM    7  N8  UNL     1      10.201  -8.040  12.297  1.00  0.00    -0.186 N 
ATOM      8  H8  UNL     1       9.323  -7.522  12.252  1.00  0.00     0.184 HD
ENDROOT
BRANCH   4   9
HETATM    9  C3  UNL     1      13.778 -10.223  12.516  1.00  0.00     0.271 C 
HETATM   10  O1  UNL     1      13.749 -11.438  12.794  1.00  0.00    -0.266 OA
HETATM   11  N3  UNL     1      15.003  -9.540  12.290  1.00  0.00    -0.306 N 
HETATM   12  C4  UNL     1      16.268 -10.235  12.381  1.00  0.00     0.483 C 
ATOM     13  H3  UNL     1      14.990  -8.547  12.060  1.00  0.00     0.166 HD
HETATM   14  N4  UNL     1      16.712 -10.670  11.047  1.00  0.00    -0.033 N 
HETATM   15  N5  UNL     1      17.225  -9.389  13.039  1.00  0.00    -0.033 N 
ATOM     16  H43 UNL     1      16.003 -11.231  10.575  1.00  0.00     0.278 HD
ATOM     17  H42 UNL     1      16.752  -9.893  10.388  1.00  0.00     0.278 HD
ATOM     18  H41 UNL     1      17.603 -11.160  11.111  1.00  0.00     0.278 HD
ATOM     19  H53 UNL     1      17.314  -8.480  12.586  1.00  0.00     0.278 HD
ATOM     20  H52 UNL     1      16.895  -9.066  13.949  1.00  0.00     0.278 HD
ATOM     21  H51 UNL     1      18.117  -9.879  13.103  1.00  0.00     0.278 HD
ENDBRANCH   4   9
BRANCH   1  22
HETATM   22  N1  UNL     1       9.024 -10.034  12.309  1.00  0.00    -0.234 N 
ATOM     23  H12 UNL     1       8.646 -10.462  13.155  1.00  0.00     0.174 HD
ATOM     24  H11 UNL     1       8.488 -10.104  11.443  1.00  0.00     0.174 HD
ENDBRANCH   1  22
BRANCH   6  25
HETATM   25  C7  UNL     1      11.425  -5.895  12.329  1.00  0.00     0.291 C 
HETATM   26  O2  UNL     1      10.423  -5.240  11.892  1.00  0.00    -0.264 OA
HETATM   27  N6  UNL     1      12.535  -5.170  12.800  1.00  0.00    -0.204 N 
ATOM     28  H6  UNL     1      13.345  -5.671  13.165  1.00  0.00     0.196 HD
BRANCH  27  29
HETATM   29  N7  UNL     1      12.544  -3.781  12.773  1.00  0.00    -0.036 N 
HETATM   30  O3  UNL     1      13.024  -3.146  11.831  1.00  0.00    -0.516 OA
HETATM   31  O4  UNL     1      12.000  -3.096  13.835  1.00  0.00    -0.516 OA
ENDBRANCH  27  29
ENDBRANCH   6  25
TORSDOF 4
ENDMDL
MODEL 3
REMARK VINA RESULT: -9.080827650      1.388      5.720
REMARK  4 active torsions:
REMARK  status: ('A' for Active; 'I' for Inactive)
REMARK    1  A    between atoms: N1_1  and  C1_4 
REMARK    2  A    between atoms: C2_7  and  C3_8 
REMARK       I    between atoms: C3_8  and  N3_10 
REMARK       I    between atoms: N3_10  and  C4_12 
REMARK       I    between atoms: C4_12  and  N4_13 
REMARK       I    between atoms: C4_12  and  N5_17 
REMARK    3  A    between atoms: C6_22  and  C7_23 
REMARK       I    between atoms: C7_23  and  N6_25 
REMARK    4  A    between atoms: N6_25  and  N7_27 
ROOT
HETATM    1  C1  UNL     1      10.752  -9.935  13.147  1.00  0.00     0.677 A 
HETATM    2  N2  UNL     1      12.043 -10.307  13.097  1.00  0.00    -0.186 N 
ATOM      3  H2  UNL     1      12.279 -11.260  13.372  1.00  0.00     0.184 HD
HETATM    4  C2  UNL     1      13.040  -9.494  12.706  1.00  0.00     0.119 A 
HETATM    5  C5  UNL     1      12.657  -8.197  12.345  1.00  0.00     0.071 A 
HETATM    6  C6  UNL     1      11.352  -7.763  12.379  1.00  0.00     0.120 A 
HETATM    7  N8  UNL     1      10.421  -8.660  12.786  1.00  0.00    -0.186 N 
ATOM      8  H8  UNL     1       9.443  -8.375  12.823  1.00  0.00     0.184 HD
ENDROOT
BRANCH   4   9
HETATM    9  C3  UNL     1      14.434  -9.882  12.685  1.00  0.00     0.271 C 
HETATM   10  O1  UNL     1      14.726 -11.082  12.516  1.00  0.00    -0.266 OA
HETATM   11  N3  UNL     1      15.437  -8.889  12.851  1.00  0.00    -0.306 N 
HETATM   12  C4  UNL     1      16.839  -9.240  12.835  1.00  0.00     0.483 C 
ATOM     13  H3  UNL     1      15.163  -7.916  12.982  1.00  0.00     0.166 HD
HETATM   14  N4  UNL     1      17.405  -9.034  11.493  1.00  0.00    -0.033 N 
HETATM   15  N5  UNL     1      17.525  -8.489  13.851  1.00  0.00    -0.033 N 
ATOM     16  H43 UNL     1      16.880  -9.538  10.778  1.00  0.00     0.278 HD
ATOM     17  H42 UNL     1      17.247  -8.085  11.155  1.00  0.00     0.278 HD
ATOM     18  H41 UNL     1      18.394  -9.282  11.482  1.00  0.00     0.278 HD
ATOM     19  H53 UNL     1      17.376  -7.485  13.757  1.00  0.00     0.278 HD
ATOM     20  H52 UNL     1      17.105  -8.612  14.773  1.00  0.00     0.278 HD
ATOM     21  H51 UNL     1      18.514  -8.737  13.840  1.00  0.00     0.278 HD
ENDBRANCH   4   9
BRANCH   1  22
HETATM   22  N1  UNL     1       9.832 -10.775  13.525  1.00  0.00    -0.234 N 
ATOM     23  H12 UNL     1       8.857 -10.481  13.591  1.00  0.00     0.174 HD
ATOM     24  H11 UNL     1      10.070 -11.740  13.753  1.00  0.00     0.174 HD
ENDBRANCH   1  22
BRANCH   6  25
HETATM   25  C7  UNL     1      11.022  -6.383  12.043  1.00  0.00     0.291 C 
HETATM   26  O2  UNL     1       9.891  -6.137  11.512  1.00  0.00    -0.264 OA
HETATM   27  N6  UNL     1      11.893  -5.302  12.275  1.00  0.00    -0.204 N 
ATOM     28  H6  UNL     1      12.800  -5.472  12.710  1.00  0.00     0.196 HD
BRANCH  27  29
HETATM   29  N7  UNL     1      11.536  -4.008  11.918  1.00  0.00    -0.036 N 
HETATM   30  O3  UNL     1      10.386  -3.584  12.054  1.00  0.00    -0.516 OA
HETATM   31  O4  UNL     1      12.499  -3.177  11.394  1.00  0.00    -0.516 OA
ENDBRANCH  27  29
ENDBRANCH   6  25
TORSDOF 4
ENDMDL
MODEL 4
REMARK VINA RESULT: -9.053310234      2.386      6.322
REMARK  4 active torsions:
REMARK  status: ('A' for Active; 'I' for Inactive)
REMARK    1  A    between atoms: N1_1  and  C1_4 
REMARK    2  A    between atoms: C2_7  and  C3_8 
REMARK       I    between atoms: C3_8  and  N3_10 
REMARK       I    between atoms: N3_10  and  C4_12 
REMARK       I    between atoms: C4_12  and  N4_13 
REMARK       I    between atoms: C4_12  and  N5_17 
REMARK    3  A    between atoms: C6_22  and  C7_23 
REMARK       I    between atoms: C7_23  and  N6_25 
REMARK    4  A    between atoms: N6_25  and  N7_27 
ROOT
HETATM    1  C1  UNL     1      11.593  -5.098  11.968  1.00  0.00     0.677 A 
HETATM    2  N2  UNL     1      12.738  -5.689  12.352  1.00  0.00    -0.186 N 
ATOM      3  H2  UNL     1      13.537  -5.094  12.571  1.00  0.00     0.184 HD
HETATM    4  C2  UNL     1      12.890  -7.021  12.465  1.00  0.00     0.119 A 
HETATM    5  C5  UNL     1      11.763  -7.787  12.149  1.00  0.00     0.071 A 
HETATM    6  C6  UNL     1      10.568  -7.236  11.748  1.00  0.00     0.120 A 
HETATM    7  N8  UNL     1      10.517  -5.883  11.669  1.00  0.00    -0.186 N 
ATOM      8  H8  UNL     1       9.647  -5.438  11.377  1.00  0.00     0.184 HD
ENDROOT
BRANCH   4   9
HETATM    9  C3  UNL     1      14.132  -7.660  12.845  1.00  0.00     0.271 C 
HETATM   10  O1  UNL     1      14.533  -7.552  14.020  1.00  0.00    -0.266 OA
HETATM   11  N3  UNL     1      14.860  -8.399  11.875  1.00  0.00    -0.306 N 
HETATM   12  C4  UNL     1      16.104  -9.051  12.218  1.00  0.00     0.483 C 
ATOM     13  H3  UNL     1      14.501  -8.471  10.923  1.00  0.00     0.166 HD
HETATM   14  N4  UNL     1      15.868 -10.465  12.551  1.00  0.00    -0.033 N 
HETATM   15  N5  UNL     1      17.039  -8.881  11.140  1.00  0.00    -0.033 N 
ATOM     16  H43 UNL     1      15.169 -10.570  13.286  1.00  0.00     0.278 HD
ATOM     17  H42 UNL     1      15.376 -10.954  11.804  1.00  0.00     0.278 HD
ATOM     18  H41 UNL     1      16.745 -10.924  12.794  1.00  0.00     0.278 HD
ATOM     19  H53 UNL     1      16.666  -9.204  10.248  1.00  0.00     0.278 HD
ATOM     20  H52 UNL     1      17.172  -7.900  10.894  1.00  0.00     0.278 HD
ATOM     21  H51 UNL     1      17.917  -9.341  11.383  1.00  0.00     0.278 HD
ENDBRANCH   4   9
BRANCH   1  22
HETATM   22  N1  UNL     1      11.508  -3.802  11.890  1.00  0.00    -0.234 N 
ATOM     23  H12 UNL     1      12.324  -3.216  12.069  1.00  0.00     0.174 HD
ATOM     24  H11 UNL     1      10.627  -3.351  11.642  1.00  0.00     0.174 HD
ENDBRANCH   1  22
BRANCH   6  25
HETATM   25  C7  UNL     1       9.444  -8.089  11.380  1.00  0.00     0.291 C 
HETATM   26  O2  UNL     1       8.728  -7.759  10.379  1.00  0.00    -0.264 OA
HETATM   27  N6  UNL     1       9.107  -9.264  12.077  1.00  0.00    -0.204 N 
ATOM     28  H6  UNL     1       9.672  -9.556  12.874  1.00  0.00     0.196 HD
BRANCH  27  29
HETATM   29  N7  UNL     1       8.014 -10.031  11.694  1.00  0.00    -0.036 N 
HETATM   30  O3  UNL     1       6.854  -9.676  11.915  1.00  0.00    -0.516 OA
HETATM   31  O4  UNL     1       8.238 -11.227  11.051  1.00  0.00    -0.516 OA
ENDBRANCH  27  29
ENDBRANCH   6  25
TORSDOF 4
ENDMDL
MODEL 5
REMARK VINA RESULT: -8.985710267      2.163      3.016
REMARK  4 active torsions:
REMARK  status: ('A' for Active; 'I' for Inactive)
REMARK    1  A    between atoms: N1_1  and  C1_4 
REMARK    2  A    between atoms: C2_7  and  C3_8 
REMARK       I    between atoms: C3_8  and  N3_10 
REMARK       I    between atoms: N3_10  and  C4_12 
REMARK       I    between atoms: C4_12  and  N4_13 
REMARK       I    between atoms: C4_12  and  N5_17 
REMARK    3  A    between atoms: C6_22  and  C7_23 
REMARK       I    between atoms: C7_23  and  N6_25 
REMARK    4  A    between atoms: N6_25  and  N7_27 
ROOT
HETATM    1  C1  UNL     1       8.302  -8.507  10.768  1.00  0.00     0.677 A 
HETATM    2  N2  UNL     1       8.584  -7.199  10.900  1.00  0.00    -0.186 N 
ATOM      3  H2  UNL     1       7.958  -6.526  10.459  1.00  0.00     0.184 HD
HETATM    4  C2  UNL     1       9.645  -6.728  11.580  1.00  0.00     0.119 A 
HETATM    5  C5  UNL     1      10.471  -7.697  12.159  1.00  0.00     0.071 A 
HETATM    6  C6  UNL     1      10.231  -9.048  12.055  1.00  0.00     0.120 A 
HETATM    7  N8  UNL     1       9.134  -9.420  11.350  1.00  0.00    -0.186 N 
ATOM      8  H8  UNL     1       8.922 -10.413  11.252  1.00  0.00     0.184 HD
ENDROOT
BRANCH   4   9
HETATM    9  C3  UNL     1       9.969  -5.322  11.692  1.00  0.00     0.271 C 
HETATM   10  O1  UNL     1       9.049  -4.483  11.644  1.00  0.00    -0.266 OA
HETATM   11  N3  UNL     1      11.325  -4.931  11.861  1.00  0.00    -0.306 N 
HETATM   12  C4  UNL     1      11.686  -3.536  11.978  1.00  0.00     0.483 C 
ATOM     13  H3  UNL     1      12.052  -5.644  11.901  1.00  0.00     0.166 HD
HETATM   14  N4  UNL     1      11.804  -3.153  13.393  1.00  0.00    -0.033 N 
HETATM   15  N5  UNL     1      12.891  -3.297  11.232  1.00  0.00    -0.033 N 
ATOM     16  H43 UNL     1      10.957  -3.371  13.918  1.00  0.00     0.278 HD
ATOM     17  H42 UNL     1      12.453  -3.757  13.898  1.00  0.00     0.278 HD
ATOM     18  H41 UNL     1      12.059  -2.169  13.475  1.00  0.00     0.278 HD
ATOM     19  H53 UNL     1      13.650  -3.918  11.512  1.00  0.00     0.278 HD
ATOM     20  H52 UNL     1      12.811  -3.596  10.260  1.00  0.00     0.278 HD
ATOM     21  H51 UNL     1      13.146  -2.313  11.315  1.00  0.00     0.278 HD
ENDBRANCH   4   9
BRANCH   1  22
HETATM   22  N1  UNL     1       7.252  -8.897  10.106  1.00  0.00    -0.234 N 
ATOM     23  H12 UNL     1       6.667  -9.654  10.460  1.00  0.00     0.174 HD
ATOM     24  H11 UNL     1       6.993  -8.448   9.227  1.00  0.00     0.174 HD
ENDBRANCH   1  22
BRANCH   6  25
HETATM   25  C7  UNL     1      11.158 -10.013  12.635  1.00  0.00     0.291 C 
HETATM   26  O2  UNL     1      10.692 -10.944  13.369  1.00  0.00    -0.264 OA
HETATM   27  N6  UNL     1      12.549  -9.967  12.428  1.00  0.00    -0.204 N 
ATOM     28  H6  UNL     1      12.945  -9.238  11.835  1.00  0.00     0.196 HD
BRANCH  27  29
HETATM   29  N7  UNL     1      13.390 -10.900  13.020  1.00  0.00    -0.036 N 
HETATM   30  O3  UNL     1      13.152 -11.389  14.126  1.00  0.00    -0.516 OA
HETATM   31  O4  UNL     1      14.526 -11.287  12.347  1.00  0.00    -0.516 OA
ENDBRANCH  27  29
ENDBRANCH   6  25
TORSDOF 4
ENDMDL
