MODEL 1
REMARK VINA RESULT: -8.318036145      0.000      0.000
REMARK  8 active torsions:
REMARK  status: ('A' for Active; 'I' for Inactive)
REMARK    1  A    between atoms: C2_2  and  O2_4 
REMARK    2  A    between atoms: O2_4  and  N1_5 
REMARK    3  A    between atoms: N1_5  and  N2_7 
REMARK    4  A    between atoms: C3_8  and  C4_9 
REMARK    5  A    between atoms: C6_16  and  N6_17 
REMARK    6  A    between atoms: C7_20  and  N7_21 
REMARK    7  A    between atoms: N7_21  and  N8_23 
REMARK    8  A    between atoms: N8_23  and  N9_25 
ROOT
HETATM    1  N2  UNL     1      11.980  -6.785  12.799  1.00  0.00    -0.207 N 
HETATM    2  C3  UNL     1      11.720  -5.496  12.498  1.00  0.00     0.166 A 
HETATM    3  C5  UNL     1      10.560  -5.234  11.739  1.00  0.00     0.152 A 
HETATM    4  N4  UNL     1      10.221  -3.903  11.384  1.00  0.00    -0.080 NA
HETATM    5  N5  UNL     1       9.760  -6.235  11.341  1.00  0.00    -0.326 N 
ATOM      6  H5  UNL     1       8.928  -6.019  10.792  1.00  0.00     0.168 HD
HETATM    7  C6  UNL     1      10.031  -7.518  11.647  1.00  0.00     0.148 A 
HETATM    8  C7  UNL     1      11.156  -7.796  12.386  1.00  0.00     0.189 A 
ENDROOT
BRANCH   8   9
HETATM    9  N7  UNL     1      11.468  -8.989  12.709  1.00  0.00    -0.267 N 
ATOM     10  H7  UNL     1      12.199  -9.441  12.161  1.00  0.00     0.190 HD
BRANCH   9  11
HETATM   11  N8  UNL     1      10.903  -9.730  13.744  1.00  0.00    -0.248 N 
ATOM     12  H8  UNL     1      11.214  -9.515  14.691  1.00  0.00     0.207 HD
BRANCH  11  13
HETATM   13  N9  UNL     1       9.972 -10.715  13.608  1.00  0.00    -0.331 N 
ATOM     14  H92 UNL     1       9.548 -11.049  14.474  1.00  0.00     0.178 HD
ATOM     15  H91 UNL     1       9.669 -11.138  12.731  1.00  0.00     0.178 HD
ENDBRANCH  11  13
ENDBRANCH   9  11
ENDBRANCH   8   9
BRANCH   1  16
HETATM   16  N1  UNL     1      13.073  -7.163  13.524  1.00  0.00    -0.189 N 
ATOM     17  H1  UNL     1      13.016  -7.162  14.542  1.00  0.00     0.217 HD
BRANCH  16  18
HETATM   18  O2  UNL     1      14.271  -7.551  12.909  1.00  0.00    -0.184 OA
BRANCH  18  19
HETATM   19  C2  UNL     1      14.905  -8.680  13.360  1.00  0.00     0.279 C 
HETATM   20  C1  UNL     1      16.392  -8.758  13.530  1.00  0.00     0.128 C 
HETATM   21  O1  UNL     1      14.219  -9.693  13.643  1.00  0.00    -0.264 OA
ENDBRANCH  18  19
ENDBRANCH  16  18
ENDBRANCH   1  16
BRANCH   7  22
HETATM   22  N6  UNL     1       9.256  -8.475  11.260  1.00  0.00    -0.382 N 
ATOM     23  H62 UNL     1       8.257  -8.439  11.463  1.00  0.00     0.157 HD
ATOM     24  H61 UNL     1       9.623  -9.277  10.749  1.00  0.00     0.157 HD
ENDBRANCH   7  22
BRANCH   2  25
HETATM   25  C4  UNL     1      12.500  -4.358  12.873  1.00  0.00     0.287 C 
HETATM   26  N3  UNL     1      12.180  -3.398  13.859  1.00  0.00    -0.056 NA
HETATM   27  O3  UNL     1      13.609  -4.186  12.250  1.00  0.00    -0.269 OA
ENDBRANCH   2  25
TORSDOF 8
ENDMDL
MODEL 2
REMARK VINA RESULT: -8.156153763      2.147      4.667
REMARK  8 active torsions:
REMARK  status: ('A' for Active; 'I' for Inactive)
REMARK    1  A    between atoms: C2_2  and  O2_4 
REMARK    2  A    between atoms: O2_4  and  N1_5 
REMARK    3  A    between atoms: N1_5  and  N2_7 
REMARK    4  A    between atoms: C3_8  and  C4_9 
REMARK    5  A    between atoms: C6_16  and  N6_17 
REMARK    6  A    between atoms: C7_20  and  N7_21 
REMARK    7  A    between atoms: N7_21  and  N8_23 
REMARK    8  A    between atoms: N8_23  and  N9_25 
ROOT
HETATM    1  N2  UNL     1      13.459  -8.236  12.453  1.00  0.00    -0.207 N 
HETATM    2  C3  UNL     1      12.835  -9.416  12.654  1.00  0.00     0.166 A 
HETATM    3  C5  UNL     1      11.442  -9.452  12.434  1.00  0.00     0.152 A 
HETATM    4  N4  UNL     1      10.718 -10.657  12.626  1.00  0.00    -0.080 NA
HETATM    5  N5  UNL     1      10.780  -8.353  12.043  1.00  0.00    -0.326 N 
ATOM      6  H5  UNL     1       9.772  -8.406  11.892  1.00  0.00     0.168 HD
HETATM    7  C6  UNL     1      11.413  -7.182  11.846  1.00  0.00     0.148 A 
HETATM    8  C7  UNL     1      12.771  -7.123  12.053  1.00  0.00     0.189 A 
ENDROOT
BRANCH   8   9
HETATM    9  N7  UNL     1      13.430  -6.044  11.884  1.00  0.00    -0.267 N 
ATOM     10  H7  UNL     1      14.253  -6.093  11.284  1.00  0.00     0.190 HD
BRANCH   9  11
HETATM   11  N8  UNL     1      13.126  -4.806  12.444  1.00  0.00    -0.248 N 
ATOM     12  H8  UNL     1      12.972  -4.779  13.452  1.00  0.00     0.207 HD
BRANCH  11  13
HETATM   13  N9  UNL     1      13.017  -3.627  11.771  1.00  0.00    -0.331 N 
ATOM     14  H92 UNL     1      12.082  -3.389  11.439  1.00  0.00     0.178 HD
ATOM     15  H91 UNL     1      13.776  -2.976  11.574  1.00  0.00     0.178 HD
ENDBRANCH  11  13
ENDBRANCH   9  11
ENDBRANCH   8   9
BRANCH   1  16
HETATM   16  N1  UNL     1      14.801  -8.076  12.635  1.00  0.00    -0.189 N 
ATOM     17  H1  UNL     1      15.140  -7.708  13.524  1.00  0.00     0.217 HD
BRANCH  16  18
HETATM   18  O2  UNL     1      15.728  -8.401  11.636  1.00  0.00    -0.184 OA
BRANCH  18  19
HETATM   19  C2  UNL     1      16.986  -8.798  12.011  1.00  0.00     0.279 C 
HETATM   20  C1  UNL     1      17.342  -9.122  13.430  1.00  0.00     0.128 C 
HETATM   21  O1  UNL     1      17.882  -8.895  11.135  1.00  0.00    -0.264 OA
ENDBRANCH  18  19
ENDBRANCH  16  18
ENDBRANCH   1  16
BRANCH   7  22
HETATM   22  N6  UNL     1      10.769  -6.129  11.469  1.00  0.00    -0.382 N 
ATOM     23  H62 UNL     1       9.848  -6.218  11.038  1.00  0.00     0.157 HD
ATOM     24  H61 UNL     1      11.162  -5.196  11.592  1.00  0.00     0.157 HD
ENDBRANCH   7  22
BRANCH   2  25
HETATM   25  C4  UNL     1      13.442 -10.642  13.066  1.00  0.00     0.287 C 
HETATM   26  N3  UNL     1      14.520 -11.308  12.440  1.00  0.00    -0.056 NA
HETATM   27  O3  UNL     1      12.961 -11.201  14.117  1.00  0.00    -0.269 OA
ENDBRANCH   2  25
TORSDOF 8
ENDMDL
MODEL 3
REMARK VINA RESULT: -8.005911836      1.612      4.208
REMARK  8 active torsions:
REMARK  status: ('A' for Active; 'I' for Inactive)
REMARK    1  A    between atoms: C2_2  and  O2_4 
REMARK    2  A    between atoms: O2_4  and  N1_5 
REMARK    3  A    between atoms: N1_5  and  N2_7 
REMARK    4  A    between atoms: C3_8  and  C4_9 
REMARK    5  A    between atoms: C6_16  and  N6_17 
REMARK    6  A    between atoms: C7_20  and  N7_21 
REMARK    7  A    between atoms: N7_21  and  N8_23 
REMARK    8  A    between atoms: N8_23  and  N9_25 
ROOT
HETATM    1  N2  UNL     1      11.954  -7.519  12.770  1.00  0.00    -0.207 N 
HETATM    2  C3  UNL     1      11.206  -8.596  12.451  1.00  0.00     0.166 A 
HETATM    3  C5  UNL     1       9.987  -8.356  11.784  1.00  0.00     0.152 A 
HETATM    4  N4  UNL     1       9.146  -9.440  11.417  1.00  0.00    -0.080 NA
HETATM    5  N5  UNL     1       9.601  -7.107  11.487  1.00  0.00    -0.326 N 
ATOM      6  H5  UNL     1       8.713  -6.961  11.004  1.00  0.00     0.168 HD
HETATM    7  C6  UNL     1      10.355  -6.040  11.810  1.00  0.00     0.148 A 
HETATM    8  C7  UNL     1      11.548  -6.249  12.460  1.00  0.00     0.189 A 
ENDROOT
BRANCH   8   9
HETATM    9  N7  UNL     1      12.309  -5.282  12.794  1.00  0.00    -0.267 N 
ATOM     10  H7  UNL     1      12.311  -5.013  13.778  1.00  0.00     0.190 HD
BRANCH   9  11
HETATM   11  N8  UNL     1      13.137  -4.562  11.938  1.00  0.00    -0.248 N 
ATOM     12  H8  UNL     1      13.959  -5.044  11.574  1.00  0.00     0.207 HD
BRANCH  11  13
HETATM   13  N9  UNL     1      12.952  -3.272  11.541  1.00  0.00    -0.331 N 
ATOM     14  H92 UNL     1      12.181  -2.775  11.987  1.00  0.00     0.178 HD
ATOM     15  H91 UNL     1      13.510  -2.771  10.849  1.00  0.00     0.178 HD
ENDBRANCH  11  13
ENDBRANCH   9  11
ENDBRANCH   8   9
BRANCH   1  16
HETATM   16  N1  UNL     1      13.150  -7.623  13.418  1.00  0.00    -0.189 N 
ATOM     17  H1  UNL     1      13.156  -7.813  14.420  1.00  0.00     0.217 HD
BRANCH  16  18
HETATM   18  O2  UNL     1      14.371  -7.474  12.747  1.00  0.00    -0.184 OA
BRANCH  18  19
HETATM   19  C2  UNL     1      15.405  -8.314  13.070  1.00  0.00     0.279 C 
HETATM   20  C1  UNL     1      16.224  -9.023  12.034  1.00  0.00     0.128 C 
HETATM   21  O1  UNL     1      15.683  -8.502  14.280  1.00  0.00    -0.264 OA
ENDBRANCH  18  19
ENDBRANCH  16  18
ENDBRANCH   1  16
BRANCH   7  22
HETATM   22  N6  UNL     1       9.977  -4.841  11.520  1.00  0.00    -0.382 N 
ATOM     23  H62 UNL     1       9.619  -4.225  12.250  1.00  0.00     0.157 HD
ATOM     24  H61 UNL     1      10.027  -4.488  10.564  1.00  0.00     0.157 HD
ENDBRANCH   7  22
BRANCH   2  25
HETATM   25  C4  UNL     1      11.523  -9.964  12.718  1.00  0.00     0.287 C 
HETATM   26  N3  UNL     1      12.572 -10.718  12.146  1.00  0.00    -0.056 NA
HETATM   27  O3  UNL     1      10.779 -10.576  13.566  1.00  0.00    -0.269 OA
ENDBRANCH   2  25
TORSDOF 8
ENDMDL
MODEL 4
REMARK VINA RESULT: -7.948058927      1.117      1.191
REMARK  8 active torsions:
REMARK  status: ('A' for Active; 'I' for Inactive)
REMARK    1  A    between atoms: C2_2  and  O2_4 
REMARK    2  A    between atoms: O2_4  and  N1_5 
REMARK    3  A    between atoms: N1_5  and  N2_7 
REMARK    4  A    between atoms: C3_8  and  C4_9 
REMARK    5  A    between atoms: C6_16  and  N6_17 
REMARK    6  A    between atoms: C7_20  and  N7_21 
REMARK    7  A    between atoms: N7_21  and  N8_23 
REMARK    8  A    between atoms: N8_23  and  N9_25 
ROOT
HETATM    1  N2  UNL     1      12.276  -6.937  12.541  1.00  0.00    -0.207 N 
HETATM    2  C3  UNL     1      11.798  -5.684  12.397  1.00  0.00     0.166 A 
HETATM    3  C5  UNL     1      10.476  -5.552  11.923  1.00  0.00     0.152 A 
HETATM    4  N4  UNL     1       9.904  -4.265  11.744  1.00  0.00    -0.080 NA
HETATM    5  N5  UNL     1       9.739  -6.634  11.632  1.00  0.00    -0.326 N 
ATOM      6  H5  UNL     1       8.785  -6.511  11.291  1.00  0.00     0.168 HD
HETATM    7  C6  UNL     1      10.227  -7.880  11.781  1.00  0.00     0.148 A 
HETATM    8  C7  UNL     1      11.513  -8.033  12.242  1.00  0.00     0.189 A 
ENDROOT
BRANCH   8   9
HETATM    9  N7  UNL     1      12.035  -9.185  12.404  1.00  0.00    -0.267 N 
ATOM     10  H7  UNL     1      12.640  -9.529  11.659  1.00  0.00     0.190 HD
BRANCH   9  11
HETATM   11  N8  UNL     1      11.854 -10.015  13.508  1.00  0.00    -0.248 N 
ATOM     12  H8  UNL     1      10.936 -10.002  13.951  1.00  0.00     0.207 HD
BRANCH  11  13
HETATM   13  N9  UNL     1      12.790 -10.842  14.050  1.00  0.00    -0.331 N 
ATOM     14  H92 UNL     1      12.712 -11.828  13.800  1.00  0.00     0.178 HD
ATOM     15  H91 UNL     1      13.548 -10.564  14.674  1.00  0.00     0.178 HD
ENDBRANCH  11  13
ENDBRANCH   9  11
ENDBRANCH   8   9
BRANCH   1  16
HETATM   16  N1  UNL     1      13.540  -7.193  12.988  1.00  0.00    -0.189 N 
ATOM     17  H1  UNL     1      13.779  -6.969  13.954  1.00  0.00     0.217 HD
BRANCH  16  18
HETATM   18  O2  UNL     1      14.519  -7.754  12.157  1.00  0.00    -0.184 OA
BRANCH  18  19
HETATM   19  C2  UNL     1      15.390  -8.668  12.692  1.00  0.00     0.279 C 
HETATM   20  C1  UNL     1      16.704  -9.003  12.054  1.00  0.00     0.128 C 
HETATM   21  O1  UNL     1      15.081  -9.253  13.760  1.00  0.00    -0.264 OA
ENDBRANCH  18  19
ENDBRANCH  16  18
ENDBRANCH   1  16
BRANCH   7  22
HETATM   22  N6  UNL     1       9.511  -8.916  11.500  1.00  0.00    -0.382 N 
ATOM     23  H62 UNL     1       9.959  -9.814  11.316  1.00  0.00     0.157 HD
ATOM     24  H61 UNL     1       8.494  -8.860  11.458  1.00  0.00     0.157 HD
ENDBRANCH   7  22
BRANCH   2  25
HETATM   25  C4  UNL     1      12.494  -4.468  12.677  1.00  0.00     0.287 C 
HETATM   26  N3  UNL     1      13.602  -3.944  11.975  1.00  0.00    -0.056 NA
HETATM   27  O3  UNL     1      12.071  -3.775  13.671  1.00  0.00    -0.269 OA
ENDBRANCH   2  25
TORSDOF 8
ENDMDL
MODEL 5
REMARK VINA RESULT: -7.716034040      2.457      4.179
REMARK  8 active torsions:
REMARK  status: ('A' for Active; 'I' for Inactive)
REMARK    1  A    between atoms: C2_2  and  O2_4 
REMARK    2  A    between atoms: O2_4  and  N1_5 
REMARK    3  A    between atoms: N1_5  and  N2_7 
REMARK    4  A    between atoms: C3_8  and  C4_9 
REMARK    5  A    between atoms: C6_16  and  N6_17 
REMARK    6  A    between atoms: C7_20  and  N7_21 
REMARK    7  A    between atoms: N7_21  and  N8_23 
REMARK    8  A    between atoms: N8_23  and  N9_25 
ROOT
HETATM    1  N2  UNL     1      11.155  -7.090  11.971  1.00  0.00    -0.207 N 
HETATM    2  C3  UNL     1      11.246  -5.750  12.096  1.00  0.00     0.166 A 
HETATM    3  C5  UNL     1      12.409  -5.240  12.712  1.00  0.00     0.152 A 
HETATM    4  N4  UNL     1      12.575  -3.840  12.880  1.00  0.00    -0.080 NA
HETATM    5  N5  UNL     1      13.372  -6.064  13.149  1.00  0.00    -0.326 N 
ATOM      6  H5  UNL     1      14.203  -5.670  13.591  1.00  0.00     0.168 HD
HETATM    7  C6  UNL     1      13.270  -7.400  13.018  1.00  0.00     0.148 A 
HETATM    8  C7  UNL     1      12.146  -7.920  12.420  1.00  0.00     0.189 A 
ENDROOT
BRANCH   8   9
HETATM    9  N7  UNL     1      11.988  -9.175  12.266  1.00  0.00    -0.267 N 
ATOM     10  H7  UNL     1      12.094  -9.544  11.321  1.00  0.00     0.190 HD
BRANCH   9  11
HETATM   11  N8  UNL     1      11.683 -10.089  13.272  1.00  0.00    -0.248 N 
ATOM     12  H8  UNL     1      12.455 -10.640  13.646  1.00  0.00     0.207 HD
BRANCH  11  13
HETATM   13  N9  UNL     1      10.449 -10.315  13.802  1.00  0.00    -0.331 N 
ATOM     14  H92 UNL     1       9.835 -10.922  13.258  1.00  0.00     0.178 HD
ATOM     15  H91 UNL     1      10.094  -9.936  14.680  1.00  0.00     0.178 HD
ENDBRANCH  11  13
ENDBRANCH   9  11
ENDBRANCH   8   9
BRANCH   1  16
HETATM   16  N1  UNL     1      10.079  -7.701  11.396  1.00  0.00    -0.189 N 
ATOM     17  H1  UNL     1       9.933  -7.606  10.391  1.00  0.00     0.217 HD
BRANCH  16  18
HETATM   18  O2  UNL     1       9.168  -8.456  12.148  1.00  0.00    -0.184 OA
BRANCH  18  19
HETATM   19  C2  UNL     1       8.213  -9.183  11.485  1.00  0.00     0.279 C 
HETATM   20  C1  UNL     1       7.467  -8.647  10.301  1.00  0.00     0.128 C 
HETATM   21  O1  UNL     1       7.945 -10.345  11.881  1.00  0.00    -0.264 OA
ENDBRANCH  18  19
ENDBRANCH  16  18
ENDBRANCH   1  16
BRANCH   7  22
HETATM   22  N6  UNL     1      14.202  -8.186  13.440  1.00  0.00    -0.382 N 
ATOM     23  H62 UNL     1      15.135  -7.820  13.630  1.00  0.00     0.157 HD
ATOM     24  H61 UNL     1      14.027  -9.180  13.592  1.00  0.00     0.157 HD
ENDBRANCH   7  22
BRANCH   2  25
HETATM   25  C4  UNL     1      10.283  -4.785  11.666  1.00  0.00     0.287 C 
HETATM   26  N3  UNL     1       8.878  -4.931  11.668  1.00  0.00    -0.056 NA
HETATM   27  O3  UNL     1      10.739  -3.666  11.231  1.00  0.00    -0.269 OA
ENDBRANCH   2  25
TORSDOF 8
ENDMDL
