MODEL 1
REMARK VINA RESULT: -8.315417341      0.000      0.000
REMARK  8 active torsions:
REMARK  status: ('A' for Active; 'I' for Inactive)
REMARK    1  A    between atoms: C2_2  and  C5_5 
REMARK    2  A    between atoms: C5_5  and  O1_6 
REMARK    3  A    between atoms: O1_6  and  C6_7 
REMARK       I    between atoms: C6_7  and  N1_9 
REMARK    4  A    between atoms: N1_9  and  S1_11 
REMARK    5  A    between atoms: S1_11  and  C7_14 
REMARK    6  A    between atoms: C10_17  and  C11_18 
REMARK       I    between atoms: C11_18  and  N2_20 
REMARK    7  A    between atoms: N2_20  and  C12_22 
REMARK    8  A    between atoms: C15_25  and  C16_26 
ROOT
HETATM    1  C7  UNL     1      24.509  83.528  -0.112  1.00  0.00     0.080 A 
HETATM    2  C8  UNL     1      24.960  84.329   0.947  1.00  0.00     0.026 A 
HETATM    3  C9  UNL     1      24.139  84.552   2.048  1.00  0.00     0.018 A 
HETATM    4  C10 UNL     1      22.887  84.023   2.168  1.00  0.00     0.032 A 
HETATM    5  C19 UNL     1      22.437  83.224   1.102  1.00  0.00     0.018 A 
HETATM    6  C20 UNL     1      23.228  82.998   0.018  1.00  0.00     0.026 A 
ENDROOT
BRANCH   4   7
HETATM    7  C11 UNL     1      22.041  84.192   3.350  1.00  0.00     0.256 C 
HETATM    8  O5  UNL     1      22.715  84.211   4.455  1.00  0.00    -0.267 OA
HETATM    9  N2  UNL     1      20.668  84.324   3.389  1.00  0.00    -0.323 N 
ATOM     10  H2  UNL     1      20.164  84.314   2.502  1.00  0.00     0.169 HD
BRANCH   9  11
HETATM   11  C12 UNL     1      19.918  84.473   4.562  1.00  0.00     0.035 A 
HETATM   12  C13 UNL     1      18.927  83.598   4.968  1.00  0.00     0.030 A 
HETATM   13  C14 UNL     1      18.233  83.740   6.182  1.00  0.00     0.018 A 
HETATM   14  C15 UNL     1      18.508  84.786   7.043  1.00  0.00     0.048 A 
HETATM   15  C17 UNL     1      19.503  85.677   6.641  1.00  0.00     0.018 A 
HETATM   16  C18 UNL     1      20.160  85.519   5.468  1.00  0.00     0.030 A 
BRANCH  14  17
HETATM   17  C16 UNL     1      17.779  84.940   8.335  1.00  0.00     0.417 C 
HETATM   18  F1  UNL     1      16.740  84.042   8.454  1.00  0.00    -0.166 F 
HETATM   19  F2  UNL     1      17.336  86.248   8.420  1.00  0.00    -0.166 F 
HETATM   20  F3  UNL     1      18.725  84.657   9.323  1.00  0.00    -0.166 F 
ENDBRANCH  14  17
ENDBRANCH   9  11
ENDBRANCH   4   7
BRANCH   1  21
HETATM   21  S1  UNL     1      25.524  83.049  -1.436  1.00  0.00     0.267 S 
HETATM   22  O3  UNL     1      24.966  83.613  -2.754  1.00  0.00    -0.200 OA
HETATM   23  O4  UNL     1      26.866  83.755  -1.230  1.00  0.00    -0.200 OA
BRANCH  21  24
HETATM   24  N1  UNL     1      25.760  81.389  -1.658  1.00  0.00    -0.226 N 
HETATM   25  C6  UNL     1      26.284  80.631  -0.592  1.00  0.00     0.374 C 
HETATM   26  O2  UNL     1      26.523  81.178   0.506  1.00  0.00    -0.237 OA
ATOM     27  H1  UNL     1      25.528  80.945  -2.546  1.00  0.00     0.184 HD
BRANCH  25  28
HETATM   28  O1  UNL     1      26.553  79.291  -0.748  1.00  0.00    -0.303 OA
BRANCH  28  29
HETATM   29  C5  UNL     1      25.526  78.493  -1.351  1.00  0.00     0.189 C 
BRANCH  29  30
HETATM   30  C2  UNL     1      26.165  77.622  -2.401  1.00  0.00    -0.029 C 
HETATM   31  C1  UNL     1      25.134  77.055  -3.350  1.00  0.00     0.016 C 
HETATM   32  C3  UNL     1      26.830  76.447  -1.689  1.00  0.00     0.016 C 
HETATM   33  C4  UNL     1      27.218  78.333  -3.210  1.00  0.00     0.016 C 
ENDBRANCH  29  30
ENDBRANCH  28  29
ENDBRANCH  25  28
ENDBRANCH  21  24
ENDBRANCH   1  21
TORSDOF 8
ENDMDL
MODEL 2
REMARK VINA RESULT: -8.134559633      6.948      8.686
REMARK  8 active torsions:
REMARK  status: ('A' for Active; 'I' for Inactive)
REMARK    1  A    between atoms: C2_2  and  C5_5 
REMARK    2  A    between atoms: C5_5  and  O1_6 
REMARK    3  A    between atoms: O1_6  and  C6_7 
REMARK       I    between atoms: C6_7  and  N1_9 
REMARK    4  A    between atoms: N1_9  and  S1_11 
REMARK    5  A    between atoms: S1_11  and  C7_14 
REMARK    6  A    between atoms: C10_17  and  C11_18 
REMARK       I    between atoms: C11_18  and  N2_20 
REMARK    7  A    between atoms: N2_20  and  C12_22 
REMARK    8  A    between atoms: C15_25  and  C16_26 
ROOT
HETATM    1  C7  UNL     1      17.212  79.765  -0.882  1.00  0.00     0.080 A 
HETATM    2  C8  UNL     1      18.150  80.808  -0.845  1.00  0.00     0.026 A 
HETATM    3  C9  UNL     1      18.505  81.379   0.373  1.00  0.00     0.018 A 
HETATM    4  C10 UNL     1      17.987  80.976   1.569  1.00  0.00     0.032 A 
HETATM    5  C19 UNL     1      17.044  79.933   1.527  1.00  0.00     0.018 A 
HETATM    6  C20 UNL     1      16.685  79.366   0.343  1.00  0.00     0.026 A 
ENDROOT
BRANCH   4   7
HETATM    7  C11 UNL     1      18.404  81.520   2.862  1.00  0.00     0.256 C 
HETATM    8  O5  UNL     1      19.371  80.851   3.404  1.00  0.00    -0.267 OA
HETATM    9  N2  UNL     1      17.887  82.619   3.518  1.00  0.00    -0.323 N 
ATOM     10  H2  UNL     1      17.132  83.131   3.063  1.00  0.00     0.169 HD
BRANCH   9  11
HETATM   11  C12 UNL     1      18.329  83.080   4.764  1.00  0.00     0.035 A 
HETATM   12  C13 UNL     1      17.921  82.557   5.976  1.00  0.00     0.030 A 
HETATM   13  C14 UNL     1      18.429  83.000   7.209  1.00  0.00     0.018 A 
HETATM   14  C15 UNL     1      19.376  84.005   7.272  1.00  0.00     0.048 A 
HETATM   15  C17 UNL     1      19.792  84.544   6.054  1.00  0.00     0.018 A 
HETATM   16  C18 UNL     1      19.290  84.099   4.878  1.00  0.00     0.030 A 
BRANCH  14  17
HETATM   17  C16 UNL     1      19.923  84.478   8.576  1.00  0.00     0.417 C 
HETATM   18  F1  UNL     1      18.932  84.655   9.520  1.00  0.00    -0.166 F 
HETATM   19  F2  UNL     1      20.623  85.648   8.346  1.00  0.00    -0.166 F 
HETATM   20  F3  UNL     1      20.768  83.454   9.008  1.00  0.00    -0.166 F 
ENDBRANCH  14  17
ENDBRANCH   9  11
ENDBRANCH   4   7
BRANCH   1  21
HETATM   21  S1  UNL     1      16.844  78.875  -2.325  1.00  0.00     0.267 S 
HETATM   22  O3  UNL     1      17.931  79.123  -3.385  1.00  0.00    -0.200 OA
HETATM   23  O4  UNL     1      16.966  77.393  -1.963  1.00  0.00    -0.200 OA
BRANCH  21  24
HETATM   24  N1  UNL     1      15.349  79.181  -3.054  1.00  0.00    -0.226 N 
HETATM   25  C6  UNL     1      15.081  80.480  -3.529  1.00  0.00     0.374 C 
HETATM   26  O2  UNL     1      15.957  81.369  -3.448  1.00  0.00    -0.237 OA
ATOM     27  H1  UNL     1      14.655  78.440  -3.148  1.00  0.00     0.184 HD
BRANCH  25  28
HETATM   28  O1  UNL     1      13.856  80.792  -4.071  1.00  0.00    -0.303 OA
BRANCH  28  29
HETATM   29  C5  UNL     1      13.739  82.073  -4.704  1.00  0.00     0.189 C 
BRANCH  29  30
HETATM   30  C2  UNL     1      12.719  82.880  -3.943  1.00  0.00    -0.029 C 
HETATM   31  C1  UNL     1      11.959  83.813  -4.859  1.00  0.00     0.016 C 
HETATM   32  C3  UNL     1      13.468  83.740  -2.929  1.00  0.00     0.016 C 
HETATM   33  C4  UNL     1      11.725  82.034  -3.192  1.00  0.00     0.016 C 
ENDBRANCH  29  30
ENDBRANCH  28  29
ENDBRANCH  25  28
ENDBRANCH  21  24
ENDBRANCH   1  21
TORSDOF 8
ENDMDL
MODEL 3
REMARK VINA RESULT: -8.110177012      1.065      1.414
REMARK  8 active torsions:
REMARK  status: ('A' for Active; 'I' for Inactive)
REMARK    1  A    between atoms: C2_2  and  C5_5 
REMARK    2  A    between atoms: C5_5  and  O1_6 
REMARK    3  A    between atoms: O1_6  and  C6_7 
REMARK       I    between atoms: C6_7  and  N1_9 
REMARK    4  A    between atoms: N1_9  and  S1_11 
REMARK    5  A    between atoms: S1_11  and  C7_14 
REMARK    6  A    between atoms: C10_17  and  C11_18 
REMARK       I    between atoms: C11_18  and  N2_20 
REMARK    7  A    between atoms: N2_20  and  C12_22 
REMARK    8  A    between atoms: C15_25  and  C16_26 
ROOT
HETATM    1  C7  UNL     1      24.621  83.804   0.021  1.00  0.00     0.080 A 
HETATM    2  C8  UNL     1      24.929  84.550   1.167  1.00  0.00     0.026 A 
HETATM    3  C9  UNL     1      23.997  84.663   2.194  1.00  0.00     0.018 A 
HETATM    4  C10 UNL     1      22.766  84.075   2.156  1.00  0.00     0.032 A 
HETATM    5  C19 UNL     1      22.460  83.331   1.003  1.00  0.00     0.018 A 
HETATM    6  C20 UNL     1      23.361  83.213  -0.010  1.00  0.00     0.026 A 
ENDROOT
BRANCH   4   7
HETATM    7  C11 UNL     1      21.804  84.127   3.257  1.00  0.00     0.256 C 
HETATM    8  O5  UNL     1      21.133  83.029   3.395  1.00  0.00    -0.267 OA
HETATM    9  N2  UNL     1      21.564  85.182   4.114  1.00  0.00    -0.323 N 
ATOM     10  H2  UNL     1      22.113  86.032   3.987  1.00  0.00     0.169 HD
BRANCH   9  11
HETATM   11  C12 UNL     1      20.616  85.167   5.145  1.00  0.00     0.035 A 
HETATM   12  C13 UNL     1      19.252  85.059   4.947  1.00  0.00     0.030 A 
HETATM   13  C14 UNL     1      18.331  84.985   6.005  1.00  0.00     0.018 A 
HETATM   14  C15 UNL     1      18.750  85.023   7.322  1.00  0.00     0.048 A 
HETATM   15  C17 UNL     1      20.125  85.136   7.533  1.00  0.00     0.018 A 
HETATM   16  C18 UNL     1      20.995  85.204   6.498  1.00  0.00     0.030 A 
BRANCH  14  17
HETATM   17  C16 UNL     1      17.779  84.941   8.450  1.00  0.00     0.417 C 
HETATM   18  F1  UNL     1      16.828  83.963   8.245  1.00  0.00    -0.166 F 
HETATM   19  F2  UNL     1      17.202  86.188   8.608  1.00  0.00    -0.166 F 
HETATM   20  F3  UNL     1      18.544  84.589   9.564  1.00  0.00    -0.166 F 
ENDBRANCH  14  17
ENDBRANCH   9  11
ENDBRANCH   4   7
BRANCH   1  21
HETATM   21  S1  UNL     1      25.780  83.459  -1.224  1.00  0.00     0.267 S 
HETATM   22  O3  UNL     1      25.222  83.887  -2.592  1.00  0.00    -0.200 OA
HETATM   23  O4  UNL     1      26.976  84.380  -0.971  1.00  0.00    -0.200 OA
BRANCH  21  24
HETATM   24  N1  UNL     1      26.294  81.854  -1.369  1.00  0.00    -0.226 N 
HETATM   25  C6  UNL     1      26.674  81.157  -0.205  1.00  0.00     0.374 C 
HETATM   26  O2  UNL     1      26.587  81.711   0.913  1.00  0.00    -0.237 OA
ATOM     27  H1  UNL     1      26.327  81.400  -2.281  1.00  0.00     0.184 HD
BRANCH  25  28
HETATM   28  O1  UNL     1      27.159  79.873  -0.281  1.00  0.00    -0.303 OA
BRANCH  28  29
HETATM   29  C5  UNL     1      27.202  79.276  -1.584  1.00  0.00     0.189 C 
BRANCH  29  30
HETATM   30  C2  UNL     1      27.883  77.938  -1.465  1.00  0.00    -0.029 C 
HETATM   31  C1  UNL     1      28.521  77.763  -0.105  1.00  0.00     0.016 C 
HETATM   32  C3  UNL     1      28.998  77.888  -2.505  1.00  0.00     0.016 C 
HETATM   33  C4  UNL     1      26.962  76.772  -1.713  1.00  0.00     0.016 C 
ENDBRANCH  29  30
ENDBRANCH  28  29
ENDBRANCH  25  28
ENDBRANCH  21  24
ENDBRANCH   1  21
TORSDOF 8
ENDMDL
MODEL 4
REMARK VINA RESULT: -8.099874878      7.076      8.883
REMARK  8 active torsions:
REMARK  status: ('A' for Active; 'I' for Inactive)
REMARK    1  A    between atoms: C2_2  and  C5_5 
REMARK    2  A    between atoms: C5_5  and  O1_6 
REMARK    3  A    between atoms: O1_6  and  C6_7 
REMARK       I    between atoms: C6_7  and  N1_9 
REMARK    4  A    between atoms: N1_9  and  S1_11 
REMARK    5  A    between atoms: S1_11  and  C7_14 
REMARK    6  A    between atoms: C10_17  and  C11_18 
REMARK       I    between atoms: C11_18  and  N2_20 
REMARK    7  A    between atoms: N2_20  and  C12_22 
REMARK    8  A    between atoms: C15_25  and  C16_26 
ROOT
HETATM    1  C7  UNL     1      17.173  79.233  -0.901  1.00  0.00     0.080 A 
HETATM    2  C8  UNL     1      16.609  78.747   0.288  1.00  0.00     0.026 A 
HETATM    3  C9  UNL     1      16.814  79.430   1.484  1.00  0.00     0.018 A 
HETATM    4  C10 UNL     1      17.548  80.576   1.575  1.00  0.00     0.032 A 
HETATM    5  C19 UNL     1      18.116  81.057   0.381  1.00  0.00     0.018 A 
HETATM    6  C20 UNL     1      17.925  80.400  -0.795  1.00  0.00     0.026 A 
ENDROOT
BRANCH   4   7
HETATM    7  C11 UNL     1      17.713  81.341   2.811  1.00  0.00     0.256 C 
HETATM    8  O5  UNL     1      17.902  82.605   2.602  1.00  0.00    -0.267 OA
HETATM    9  N2  UNL     1      17.686  80.863   4.105  1.00  0.00    -0.323 N 
ATOM     10  H2  UNL     1      17.527  79.865   4.240  1.00  0.00     0.169 HD
BRANCH   9  11
HETATM   11  C12 UNL     1      17.861  81.654   5.248  1.00  0.00     0.035 A 
HETATM   12  C13 UNL     1      18.434  82.913   5.242  1.00  0.00     0.030 A 
HETATM   13  C14 UNL     1      18.541  83.708   6.395  1.00  0.00     0.018 A 
HETATM   14  C15 UNL     1      18.075  83.261   7.617  1.00  0.00     0.048 A 
HETATM   15  C17 UNL     1      17.499  81.990   7.635  1.00  0.00     0.018 A 
HETATM   16  C18 UNL     1      17.405  81.242   6.511  1.00  0.00     0.030 A 
BRANCH  14  17
HETATM   17  C16 UNL     1      18.181  84.101   8.844  1.00  0.00     0.417 C 
HETATM   18  F1  UNL     1      19.476  84.509   9.083  1.00  0.00    -0.166 F 
HETATM   19  F2  UNL     1      17.672  83.373   9.905  1.00  0.00    -0.166 F 
HETATM   20  F3  UNL     1      17.402  85.230   8.581  1.00  0.00    -0.166 F 
ENDBRANCH  14  17
ENDBRANCH   9  11
ENDBRANCH   4   7
BRANCH   1  21
HETATM   21  S1  UNL     1      16.825  78.554  -2.460  1.00  0.00     0.267 S 
HETATM   22  O3  UNL     1      17.918  78.961  -3.463  1.00  0.00    -0.200 OA
HETATM   23  O4  UNL     1      16.959  77.037  -2.312  1.00  0.00    -0.200 OA
BRANCH  21  24
HETATM   24  N1  UNL     1      15.333  78.949  -3.151  1.00  0.00    -0.226 N 
HETATM   25  C6  UNL     1      15.093  80.285  -3.526  1.00  0.00     0.374 C 
HETATM   26  O2  UNL     1      15.990  81.145  -3.387  1.00  0.00    -0.237 OA
ATOM     27  H1  UNL     1      14.621  78.233  -3.294  1.00  0.00     0.184 HD
BRANCH  25  28
HETATM   28  O1  UNL     1      13.872  80.665  -4.033  1.00  0.00    -0.303 OA
BRANCH  28  29
HETATM   29  C5  UNL     1      13.808  81.951  -4.663  1.00  0.00     0.189 C 
BRANCH  29  30
HETATM   30  C2  UNL     1      12.805  82.790  -3.913  1.00  0.00    -0.029 C 
HETATM   31  C1  UNL     1      12.035  83.695  -4.849  1.00  0.00     0.016 C 
HETATM   32  C3  UNL     1      13.575  83.680  -2.943  1.00  0.00     0.016 C 
HETATM   33  C4  UNL     1      11.819  81.976  -3.118  1.00  0.00     0.016 C 
ENDBRANCH  29  30
ENDBRANCH  28  29
ENDBRANCH  25  28
ENDBRANCH  21  24
ENDBRANCH   1  21
TORSDOF 8
ENDMDL
MODEL 5
REMARK VINA RESULT: -8.064186693      1.010      1.473
REMARK  8 active torsions:
REMARK  status: ('A' for Active; 'I' for Inactive)
REMARK    1  A    between atoms: C2_2  and  C5_5 
REMARK    2  A    between atoms: C5_5  and  O1_6 
REMARK    3  A    between atoms: O1_6  and  C6_7 
REMARK       I    between atoms: C6_7  and  N1_9 
REMARK    4  A    between atoms: N1_9  and  S1_11 
REMARK    5  A    between atoms: S1_11  and  C7_14 
REMARK    6  A    between atoms: C10_17  and  C11_18 
REMARK       I    between atoms: C11_18  and  N2_20 
REMARK    7  A    between atoms: N2_20  and  C12_22 
REMARK    8  A    between atoms: C15_25  and  C16_26 
ROOT
HETATM    1  C7  UNL     1      24.792  83.596  -0.040  1.00  0.00     0.080 A 
HETATM    2  C8  UNL     1      23.486  83.114  -0.213  1.00  0.00     0.026 A 
HETATM    3  C9  UNL     1      22.572  83.193   0.833  1.00  0.00     0.018 A 
HETATM    4  C10 UNL     1      22.873  83.728   2.051  1.00  0.00     0.032 A 
HETATM    5  C19 UNL     1      24.184  84.206   2.222  1.00  0.00     0.018 A 
HETATM    6  C20 UNL     1      25.090  84.134   1.209  1.00  0.00     0.026 A 
ENDROOT
BRANCH   4   7
HETATM    7  C11 UNL     1      21.903  83.881   3.136  1.00  0.00     0.256 C 
HETATM    8  O5  UNL     1      21.141  82.845   3.284  1.00  0.00    -0.267 OA
HETATM    9  N2  UNL     1      21.737  84.971   3.967  1.00  0.00    -0.323 N 
ATOM     10  H2  UNL     1      22.356  85.770   3.833  1.00  0.00     0.169 HD
BRANCH   9  11
HETATM   11  C12 UNL     1      20.777  85.055   4.983  1.00  0.00     0.035 A 
HETATM   12  C13 UNL     1      19.413  84.958   4.775  1.00  0.00     0.030 A 
HETATM   13  C14 UNL     1      18.477  84.985   5.822  1.00  0.00     0.018 A 
HETATM   14  C15 UNL     1      18.881  85.118   7.138  1.00  0.00     0.048 A 
HETATM   15  C17 UNL     1      20.255  85.221   7.359  1.00  0.00     0.018 A 
HETATM   16  C18 UNL     1      21.138  85.191   6.334  1.00  0.00     0.030 A 
BRANCH  14  17
HETATM   17  C16 UNL     1      17.893  85.144   8.254  1.00  0.00     0.417 C 
HETATM   18  F1  UNL     1      16.887  84.218   8.077  1.00  0.00    -0.166 F 
HETATM   19  F2  UNL     1      17.393  86.429   8.353  1.00  0.00    -0.166 F 
HETATM   20  F3  UNL     1      18.623  84.793   9.393  1.00  0.00    -0.166 F 
ENDBRANCH  14  17
ENDBRANCH   9  11
ENDBRANCH   4   7
BRANCH   1  21
HETATM   21  S1  UNL     1      25.940  83.704  -1.337  1.00  0.00     0.267 S 
HETATM   22  O3  UNL     1      25.346  84.525  -2.495  1.00  0.00    -0.200 OA
HETATM   23  O4  UNL     1      27.110  84.539  -0.811  1.00  0.00    -0.200 OA
BRANCH  21  24
HETATM   24  N1  UNL     1      26.502  82.248  -1.987  1.00  0.00    -0.226 N 
HETATM   25  C6  UNL     1      26.947  81.241  -1.108  1.00  0.00     0.374 C 
HETATM   26  O2  UNL     1      26.882  81.416   0.128  1.00  0.00    -0.237 OA
ATOM     27  H1  UNL     1      26.517  82.101  -2.996  1.00  0.00     0.184 HD
BRANCH  25  28
HETATM   28  O1  UNL     1      27.472  80.066  -1.593  1.00  0.00    -0.303 OA
BRANCH  28  29
HETATM   29  C5  UNL     1      26.549  79.146  -2.190  1.00  0.00     0.189 C 
BRANCH  29  30
HETATM   30  C2  UNL     1      26.531  77.891  -1.356  1.00  0.00    -0.029 C 
HETATM   31  C1  UNL     1      26.412  76.656  -2.220  1.00  0.00     0.016 C 
HETATM   32  C3  UNL     1      25.298  77.946  -0.459  1.00  0.00     0.016 C 
HETATM   33  C4  UNL     1      27.742  77.741  -0.474  1.00  0.00     0.016 C 
ENDBRANCH  29  30
ENDBRANCH  28  29
ENDBRANCH  25  28
ENDBRANCH  21  24
ENDBRANCH   1  21
TORSDOF 8
ENDMDL
