MODEL 1
REMARK VINA RESULT: -7.935937330      0.000      0.000
REMARK  8 active torsions:
REMARK  status: ('A' for Active; 'I' for Inactive)
REMARK    1  A    between atoms: C2_2  and  C3_3 
REMARK    2  A    between atoms: C3_3  and  C4_4 
REMARK    3  A    between atoms: C4_4  and  C5_5 
REMARK    4  A    between atoms: C11_17  and  C12_18 
REMARK    5  A    between atoms: C12_18  and  C13_19 
REMARK    6  A    between atoms: C13_19  and  C14_20 
REMARK    7  A    between atoms: C14_20  and  O3_21 
REMARK    8  A    between atoms: N2_23  and  O4_25 
ROOT
HETATM    1  C4  UNL     1      19.172  83.426   3.231  1.00  0.00     0.051 C 
HETATM    2  C9  UNL     1      18.977  84.939   3.588  1.00  0.00     0.191 C 
HETATM    3  F3  UNL     1      17.729  85.171   4.113  1.00  0.00    -0.248 F 
HETATM    4  C10 UNL     1      19.977  84.753   4.690  1.00  0.00     0.035 C 
HETATM    5  C11 UNL     1      19.499  85.312   6.046  1.00  0.00     0.006 C 
HETATM    6  C15 UNL     1      19.074  84.127   6.799  1.00  0.00    -0.015 C 
HETATM    7  C16 UNL     1      20.211  83.620   7.659  1.00  0.00     0.020 C 
HETATM    8  C17 UNL     1      17.801  84.359   7.602  1.00  0.00     0.022 C 
HETATM    9  C18 UNL     1      17.528  83.107   8.403  1.00  0.00     0.084 C 
HETATM   10  C19 UNL     1      17.266  82.038   7.405  1.00  0.00     0.149 C 
HETATM   11  O5  UNL     1      16.452  81.111   7.656  1.00  0.00    -0.293 OA
HETATM   12  C20 UNL     1      17.985  82.116   6.142  1.00  0.00     0.054 C 
HETATM   13  C21 UNL     1      18.840  83.054   5.789  1.00  0.00    -0.062 C 
HETATM   14  C22 UNL     1      19.670  83.299   4.674  1.00  0.00     0.040 C 
ENDROOT
BRANCH   1  15
HETATM   15  C3  UNL     1      17.849  82.851   3.049  1.00  0.00    -0.011 C 
BRANCH  15  16
HETATM   16  C2  UNL     1      17.589  81.556   2.467  1.00  0.00    -0.013 C 
HETATM   17  C1  UNL     1      17.822  80.341   2.853  1.00  0.00     0.011 C 
ENDBRANCH  15  16
ENDBRANCH   1  15
BRANCH   1  18
HETATM   18  C5  UNL     1      20.329  83.190   2.388  1.00  0.00     0.244 C 
HETATM   19  O1  UNL     1      21.513  83.559   3.160  1.00  0.00    -0.289 OA
HETATM   20  C6  UNL     1      22.523  83.452   2.174  1.00  0.00     0.367 C 
HETATM   21  O2  UNL     1      23.678  83.958   2.229  1.00  0.00    -0.238 OA
HETATM   22  N1  UNL     1      22.022  82.667   1.085  1.00  0.00    -0.267 N 
HETATM   23  C7  UNL     1      22.525  82.538  -0.229  1.00  0.00     0.161 C 
HETATM   24  C8  UNL     1      20.815  82.019   1.726  1.00  0.00     0.355 C 
HETATM   25  F1  UNL     1      21.491  81.064   2.484  1.00  0.00    -0.179 F 
HETATM   26  F2  UNL     1      20.142  81.503   0.662  1.00  0.00    -0.179 F 
ENDBRANCH   1  18
BRANCH   5  27
HETATM   27  C12 UNL     1      20.529  86.225   6.595  1.00  0.00     0.014 C 
BRANCH  27  28
HETATM   28  C13 UNL     1      21.702  86.447   5.713  1.00  0.00     0.086 C 
BRANCH  28  29
HETATM   29  C14 UNL     1      22.803  85.478   5.984  1.00  0.00     0.135 C 
HETATM   30  N2  UNL     1      23.473  85.009   5.005  1.00  0.00    -0.251 N 
ATOM     31  H2  UNL     1      23.240  85.309   4.059  1.00  0.00     0.196 HD
BRANCH  29  32
HETATM   32  O3  UNL     1      23.060  85.118   7.284  1.00  0.00    -0.348 OA
ATOM     33  H3  UNL     1      23.382  84.242   7.460  1.00  0.00     0.219 HD
ENDBRANCH  29  32
BRANCH  30  34
HETATM   34  O4  UNL     1      24.494  84.118   5.185  1.00  0.00    -0.288 OA
ATOM     35  H4  UNL     1      24.356  83.267   5.583  1.00  0.00     0.244 HD
ENDBRANCH  30  34
ENDBRANCH  28  29
ENDBRANCH  27  28
ENDBRANCH   5  27
TORSDOF 8
ENDMDL
MODEL 2
REMARK VINA RESULT: -7.919392313      2.925      5.236
REMARK  8 active torsions:
REMARK  status: ('A' for Active; 'I' for Inactive)
REMARK    1  A    between atoms: C2_2  and  C3_3 
REMARK    2  A    between atoms: C3_3  and  C4_4 
REMARK    3  A    between atoms: C4_4  and  C5_5 
REMARK    4  A    between atoms: C11_17  and  C12_18 
REMARK    5  A    between atoms: C12_18  and  C13_19 
REMARK    6  A    between atoms: C13_19  and  C14_20 
REMARK    7  A    between atoms: C14_20  and  O3_21 
REMARK    8  A    between atoms: N2_23  and  O4_25 
ROOT
HETATM    1  C4  UNL     1      19.864  82.244   1.564  1.00  0.00     0.051 C 
HETATM    2  C9  UNL     1      19.539  81.195   2.682  1.00  0.00     0.191 C 
HETATM    3  F3  UNL     1      20.562  81.103   3.594  1.00  0.00    -0.248 F 
HETATM    4  C10 UNL     1      18.482  82.136   3.181  1.00  0.00     0.035 C 
HETATM    5  C11 UNL     1      18.553  82.378   4.702  1.00  0.00     0.006 C 
HETATM    6  C15 UNL     1      19.191  83.692   4.832  1.00  0.00    -0.015 C 
HETATM    7  C16 UNL     1      18.140  84.776   4.931  1.00  0.00     0.020 C 
HETATM    8  C17 UNL     1      20.195  83.755   5.976  1.00  0.00     0.022 C 
HETATM    9  C18 UNL     1      20.704  85.175   6.064  1.00  0.00     0.084 C 
HETATM   10  C19 UNL     1      21.426  85.426   4.791  1.00  0.00     0.149 C 
HETATM   11  O5  UNL     1      22.431  86.184   4.762  1.00  0.00    -0.293 OA
HETATM   12  C20 UNL     1      20.922  84.762   3.598  1.00  0.00     0.054 C 
HETATM   13  C21 UNL     1      19.891  83.944   3.539  1.00  0.00    -0.062 C 
HETATM   14  C22 UNL     1      19.210  83.247   2.517  1.00  0.00     0.040 C 
ENDROOT
BRANCH   1  15
HETATM   15  C3  UNL     1      21.311  82.387   1.516  1.00  0.00    -0.011 C 
BRANCH  15  16
HETATM   16  C2  UNL     1      22.062  82.729   0.332  1.00  0.00    -0.013 C 
HETATM   17  C1  UNL     1      23.078  83.503   0.111  1.00  0.00     0.011 C 
ENDBRANCH  15  16
ENDBRANCH   1  15
BRANCH   1  18
HETATM   18  C5  UNL     1      18.978  82.141   0.421  1.00  0.00     0.244 C 
HETATM   19  O1  UNL     1      19.198  80.830  -0.184  1.00  0.00    -0.289 OA
HETATM   20  C6  UNL     1      18.419  80.941  -1.362  1.00  0.00     0.367 C 
HETATM   21  O2  UNL     1      18.507  80.212  -2.389  1.00  0.00    -0.238 OA
HETATM   22  N1  UNL     1      17.498  82.028  -1.203  1.00  0.00    -0.267 N 
HETATM   23  C7  UNL     1      16.744  82.710  -2.184  1.00  0.00     0.161 C 
HETATM   24  C8  UNL     1      17.557  82.241   0.293  1.00  0.00     0.355 C 
HETATM   25  F1  UNL     1      16.780  81.147   0.672  1.00  0.00    -0.179 F 
HETATM   26  F2  UNL     1      16.935  83.441   0.457  1.00  0.00    -0.179 F 
ENDBRANCH   1  18
BRANCH   5  27
HETATM   27  C12 UNL     1      17.224  82.122   5.307  1.00  0.00     0.014 C 
BRANCH  27  28
HETATM   28  C13 UNL     1      17.175  80.973   6.245  1.00  0.00     0.086 C 
BRANCH  28  29
HETATM   29  C14 UNL     1      17.481  81.378   7.648  1.00  0.00     0.135 C 
HETATM   30  N2  UNL     1      17.383  82.607   7.975  1.00  0.00    -0.251 N 
ATOM     31  H2  UNL     1      17.097  83.285   7.269  1.00  0.00     0.196 HD
BRANCH  29  32
HETATM   32  O3  UNL     1      17.862  80.411   8.545  1.00  0.00    -0.348 OA
ATOM     33  H3  UNL     1      17.846  80.617   9.473  1.00  0.00     0.219 HD
ENDBRANCH  29  32
BRANCH  30  34
HETATM   34  O4  UNL     1      17.649  83.044   9.243  1.00  0.00    -0.288 OA
ATOM     35  H4  UNL     1      17.267  83.839   9.593  1.00  0.00     0.244 HD
ENDBRANCH  30  34
ENDBRANCH  28  29
ENDBRANCH  27  28
ENDBRANCH   5  27
TORSDOF 8
ENDMDL
MODEL 3
REMARK VINA RESULT: -7.874711708      2.658      5.439
REMARK  8 active torsions:
REMARK  status: ('A' for Active; 'I' for Inactive)
REMARK    1  A    between atoms: C2_2  and  C3_3 
REMARK    2  A    between atoms: C3_3  and  C4_4 
REMARK    3  A    between atoms: C4_4  and  C5_5 
REMARK    4  A    between atoms: C11_17  and  C12_18 
REMARK    5  A    between atoms: C12_18  and  C13_19 
REMARK    6  A    between atoms: C13_19  and  C14_20 
REMARK    7  A    between atoms: C14_20  and  O3_21 
REMARK    8  A    between atoms: N2_23  and  O4_25 
ROOT
HETATM    1  C4  UNL     1      22.249  83.195   2.441  1.00  0.00     0.051 C 
HETATM    2  C9  UNL     1      21.445  81.851   2.377  1.00  0.00     0.191 C 
HETATM    3  F3  UNL     1      21.216  81.346   3.634  1.00  0.00    -0.248 F 
HETATM    4  C10 UNL     1      20.259  82.646   1.914  1.00  0.00     0.035 C 
HETATM    5  C11 UNL     1      18.969  82.322   2.693  1.00  0.00     0.006 C 
HETATM    6  C15 UNL     1      18.822  83.438   3.633  1.00  0.00    -0.015 C 
HETATM    7  C16 UNL     1      17.932  84.508   3.039  1.00  0.00     0.020 C 
HETATM    8  C17 UNL     1      18.350  82.996   5.012  1.00  0.00     0.022 C 
HETATM    9  C18 UNL     1      18.145  84.237   5.849  1.00  0.00     0.084 C 
HETATM   10  C19 UNL     1      19.487  84.858   5.988  1.00  0.00     0.149 C 
HETATM   11  O5  UNL     1      19.800  85.479   7.037  1.00  0.00    -0.293 OA
HETATM   12  C20 UNL     1      20.406  84.712   4.869  1.00  0.00     0.054 C 
HETATM   13  C21 UNL     1      20.169  84.069   3.745  1.00  0.00    -0.062 C 
HETATM   14  C22 UNL     1      20.868  83.849   2.538  1.00  0.00     0.040 C 
ENDROOT
BRANCH   1  15
HETATM   15  C3  UNL     1      22.961  83.211   3.709  1.00  0.00    -0.011 C 
BRANCH  15  16
HETATM   16  C2  UNL     1      23.680  84.348   4.232  1.00  0.00    -0.013 C 
HETATM   17  C1  UNL     1      23.904  84.789   5.431  1.00  0.00     0.011 C 
ENDBRANCH  15  16
ENDBRANCH   1  15
BRANCH   1  18
HETATM   18  C5  UNL     1      22.789  83.590   1.154  1.00  0.00     0.244 C 
HETATM   19  O1  UNL     1      24.241  83.666   1.296  1.00  0.00    -0.289 OA
HETATM   20  C6  UNL     1      24.606  84.223   0.046  1.00  0.00     0.367 C 
HETATM   21  O2  UNL     1      25.703  84.782  -0.231  1.00  0.00    -0.238 OA
HETATM   22  N1  UNL     1      23.517  84.052  -0.870  1.00  0.00    -0.267 N 
HETATM   23  C7  UNL     1      23.284  84.689  -2.109  1.00  0.00     0.161 C 
HETATM   24  C8  UNL     1      22.694  83.008  -0.149  1.00  0.00     0.355 C 
HETATM   25  F1  UNL     1      23.493  81.902  -0.439  1.00  0.00    -0.179 F 
HETATM   26  F2  UNL     1      21.513  83.026  -0.825  1.00  0.00    -0.179 F 
ENDBRANCH   1  18
BRANCH   5  27
HETATM   27  C12 UNL     1      17.884  81.992   1.739  1.00  0.00     0.014 C 
BRANCH  27  28
HETATM   28  C13 UNL     1      17.223  80.684   1.971  1.00  0.00     0.086 C 
BRANCH  28  29
HETATM   29  C14 UNL     1      17.693  79.638   1.017  1.00  0.00     0.135 C 
HETATM   30  N2  UNL     1      17.343  78.426   1.203  1.00  0.00    -0.251 N 
ATOM     31  H2  UNL     1      16.749  78.200   2.001  1.00  0.00     0.196 HD
BRANCH  29  32
HETATM   32  O3  UNL     1      18.492  80.014  -0.034  1.00  0.00    -0.348 OA
ATOM     33  H3  UNL     1      19.115  80.720   0.096  1.00  0.00     0.219 HD
ENDBRANCH  29  32
BRANCH  30  34
HETATM   34  O4  UNL     1      17.739  77.419   0.367  1.00  0.00    -0.288 OA
ATOM     35  H4  UNL     1      17.739  76.509   0.638  1.00  0.00     0.244 HD
ENDBRANCH  30  34
ENDBRANCH  28  29
ENDBRANCH  27  28
ENDBRANCH   5  27
TORSDOF 8
ENDMDL
MODEL 4
REMARK VINA RESULT: -7.764169858      2.655      5.361
REMARK  8 active torsions:
REMARK  status: ('A' for Active; 'I' for Inactive)
REMARK    1  A    between atoms: C2_2  and  C3_3 
REMARK    2  A    between atoms: C3_3  and  C4_4 
REMARK    3  A    between atoms: C4_4  and  C5_5 
REMARK    4  A    between atoms: C11_17  and  C12_18 
REMARK    5  A    between atoms: C12_18  and  C13_19 
REMARK    6  A    between atoms: C13_19  and  C14_20 
REMARK    7  A    between atoms: C14_20  and  O3_21 
REMARK    8  A    between atoms: N2_23  and  O4_25 
ROOT
HETATM    1  C4  UNL     1      22.289  83.241   2.486  1.00  0.00     0.051 C 
HETATM    2  C9  UNL     1      21.502  81.888   2.411  1.00  0.00     0.191 C 
HETATM    3  F3  UNL     1      21.263  81.380   3.665  1.00  0.00    -0.248 F 
HETATM    4  C10 UNL     1      20.313  82.670   1.934  1.00  0.00     0.035 C 
HETATM    5  C11 UNL     1      19.017  82.331   2.697  1.00  0.00     0.006 C 
HETATM    6  C15 UNL     1      18.845  83.445   3.635  1.00  0.00    -0.015 C 
HETATM    7  C16 UNL     1      17.950  84.504   3.030  1.00  0.00     0.020 C 
HETATM    8  C17 UNL     1      18.361  82.997   5.008  1.00  0.00     0.022 C 
HETATM    9  C18 UNL     1      18.131  84.235   5.842  1.00  0.00     0.084 C 
HETATM   10  C19 UNL     1      19.464  84.871   5.998  1.00  0.00     0.149 C 
HETATM   11  O5  UNL     1      19.757  85.496   7.051  1.00  0.00    -0.293 OA
HETATM   12  C20 UNL     1      20.399  84.736   4.891  1.00  0.00     0.054 C 
HETATM   13  C21 UNL     1      20.183  84.091   3.764  1.00  0.00    -0.062 C 
HETATM   14  C22 UNL     1      20.900  83.879   2.566  1.00  0.00     0.040 C 
ENDROOT
BRANCH   1  15
HETATM   15  C3  UNL     1      22.985  83.265   3.762  1.00  0.00    -0.011 C 
BRANCH  15  16
HETATM   16  C2  UNL     1      23.641  84.425   4.318  1.00  0.00    -0.013 C 
HETATM   17  C1  UNL     1      23.871  84.827   5.529  1.00  0.00     0.011 C 
ENDBRANCH  15  16
ENDBRANCH   1  15
BRANCH   1  18
HETATM   18  C5  UNL     1      22.841  83.643   1.205  1.00  0.00     0.244 C 
HETATM   19  O1  UNL     1      24.292  83.716   1.360  1.00  0.00    -0.289 OA
HETATM   20  C6  UNL     1      24.668  84.280   0.117  1.00  0.00     0.367 C 
HETATM   21  O2  UNL     1      25.769  84.838  -0.148  1.00  0.00    -0.238 OA
HETATM   22  N1  UNL     1      23.587  84.115  -0.810  1.00  0.00    -0.267 N 
HETATM   23  C7  UNL     1      23.365  84.760  -2.047  1.00  0.00     0.161 C 
HETATM   24  C8  UNL     1      22.756  83.068  -0.102  1.00  0.00     0.355 C 
HETATM   25  F1  UNL     1      23.555  81.963  -0.391  1.00  0.00    -0.179 F 
HETATM   26  F2  UNL     1      21.581  83.093  -0.788  1.00  0.00    -0.179 F 
ENDBRANCH   1  18
BRANCH   5  27
HETATM   27  C12 UNL     1      17.948  81.989   1.728  1.00  0.00     0.014 C 
BRANCH  27  28
HETATM   28  C13 UNL     1      18.347  82.074   0.301  1.00  0.00     0.086 C 
BRANCH  28  29
HETATM   29  C14 UNL     1      17.556  83.096  -0.445  1.00  0.00     0.135 C 
HETATM   30  N2  UNL     1      16.308  83.211  -0.207  1.00  0.00    -0.251 N 
ATOM     31  H2  UNL     1      15.880  82.600   0.488  1.00  0.00     0.196 HD
BRANCH  29  32
HETATM   32  O3  UNL     1      18.200  83.883  -1.368  1.00  0.00    -0.348 OA
ATOM     33  H3  UNL     1      18.237  83.590  -2.270  1.00  0.00     0.219 HD
ENDBRANCH  29  32
BRANCH  30  34
HETATM   34  O4  UNL     1      15.528  84.127  -0.855  1.00  0.00    -0.288 OA
ATOM     35  H4  UNL     1      14.606  83.973  -1.026  1.00  0.00     0.244 HD
ENDBRANCH  30  34
ENDBRANCH  28  29
ENDBRANCH  27  28
ENDBRANCH   5  27
TORSDOF 8
ENDMDL
MODEL 5
REMARK VINA RESULT: -7.692186398      2.699      6.984
REMARK  8 active torsions:
REMARK  status: ('A' for Active; 'I' for Inactive)
REMARK    1  A    between atoms: C2_2  and  C3_3 
REMARK    2  A    between atoms: C3_3  and  C4_4 
REMARK    3  A    between atoms: C4_4  and  C5_5 
REMARK    4  A    between atoms: C11_17  and  C12_18 
REMARK    5  A    between atoms: C12_18  and  C13_19 
REMARK    6  A    between atoms: C13_19  and  C14_20 
REMARK    7  A    between atoms: C14_20  and  O3_21 
REMARK    8  A    between atoms: N2_23  and  O4_25 
ROOT
HETATM    1  C4  UNL     1      19.873  84.743   4.898  1.00  0.00     0.051 C 
HETATM    2  C9  UNL     1      18.569  84.640   4.035  1.00  0.00     0.191 C 
HETATM    3  F3  UNL     1      18.757  85.168   2.781  1.00  0.00    -0.248 F 
HETATM    4  C10 UNL     1      18.769  83.154   4.008  1.00  0.00     0.035 C 
HETATM    5  C11 UNL     1      18.662  82.552   2.592  1.00  0.00     0.006 C 
HETATM    6  C15 UNL     1      20.053  82.325   2.187  1.00  0.00    -0.015 C 
HETATM    7  C16 UNL     1      20.469  80.909   2.518  1.00  0.00     0.020 C 
HETATM    8  C17 UNL     1      20.311  82.677   0.728  1.00  0.00     0.022 C 
HETATM    9  C18 UNL     1      21.742  82.309   0.412  1.00  0.00     0.084 C 
HETATM   10  C19 UNL     1      22.583  83.188   1.263  1.00  0.00     0.149 C 
HETATM   11  O5  UNL     1      23.705  83.591   0.857  1.00  0.00    -0.293 OA
HETATM   12  C20 UNL     1      22.053  83.555   2.568  1.00  0.00     0.054 C 
HETATM   13  C21 UNL     1      20.889  83.194   3.065  1.00  0.00    -0.062 C 
HETATM   14  C22 UNL     1      20.210  83.379   4.289  1.00  0.00     0.040 C 
ENDROOT
BRANCH   1  15
HETATM   15  C3  UNL     1      20.678  85.816   4.336  1.00  0.00    -0.011 C 
BRANCH  15  16
HETATM   16  C2  UNL     1      21.951  86.248   4.862  1.00  0.00    -0.013 C 
HETATM   17  C1  UNL     1      23.126  85.704   4.918  1.00  0.00     0.011 C 
ENDBRANCH  15  16
ENDBRANCH   1  15
BRANCH   1  18
HETATM   18  C5  UNL     1      19.636  84.503   6.309  1.00  0.00     0.244 C 
HETATM   19  O1  UNL     1      20.937  84.495   6.974  1.00  0.00    -0.289 OA
HETATM   20  C6  UNL     1      20.571  84.081   8.278  1.00  0.00     0.367 C 
HETATM   21  O2  UNL     1      21.346  83.614   9.158  1.00  0.00    -0.238 OA
HETATM   22  N1  UNL     1      19.161  84.278   8.445  1.00  0.00    -0.267 N 
HETATM   23  C7  UNL     1      18.296  83.750   9.430  1.00  0.00     0.161 C 
HETATM   24  C8  UNL     1      18.859  85.201   7.286  1.00  0.00     0.355 C 
HETATM   25  F1  UNL     1      19.381  86.372   7.833  1.00  0.00    -0.179 F 
HETATM   26  F2  UNL     1      17.499  85.181   7.225  1.00  0.00    -0.179 F 
ENDBRANCH   1  18
BRANCH   5  27
HETATM   27  C12 UNL     1      17.687  81.435   2.602  1.00  0.00     0.014 C 
BRANCH  27  28
HETATM   28  C13 UNL     1      17.060  81.141   1.290  1.00  0.00     0.086 C 
BRANCH  28  29
HETATM   29  C14 UNL     1      17.595  79.890   0.676  1.00  0.00     0.135 C 
HETATM   30  N2  UNL     1      17.205  78.763   1.126  1.00  0.00    -0.251 N 
ATOM     31  H2  UNL     1      16.535  78.742   1.895  1.00  0.00     0.196 HD
BRANCH  29  32
HETATM   32  O3  UNL     1      18.495  79.994  -0.355  1.00  0.00    -0.348 OA
ATOM     33  H3  UNL     1      19.364  80.332  -0.171  1.00  0.00     0.219 HD
ENDBRANCH  29  32
BRANCH  30  34
HETATM   34  O4  UNL     1      17.657  77.580   0.609  1.00  0.00    -0.288 OA
ATOM     35  H4  UNL     1      18.271  77.548  -0.114  1.00  0.00     0.244 HD
ENDBRANCH  30  34
ENDBRANCH  28  29
ENDBRANCH  27  28
ENDBRANCH   5  27
TORSDOF 8
ENDMDL
