MODEL 1
REMARK VINA RESULT: -8.649568936      0.000      0.000
REMARK  7 active torsions:
REMARK  status: ('A' for Active; 'I' for Inactive)
REMARK       I    between atoms: C1_2  and  N1_3 
REMARK    1  A    between atoms: C1_2  and  C11_22 
REMARK    2  A    between atoms: N1_3  and  C2_5 
REMARK    3  A    between atoms: C7_10  and  S1_11 
REMARK    4  A    between atoms: S1_11  and  N2_14 
REMARK    5  A    between atoms: N2_14  and  C8_16 
REMARK    6  A    between atoms: C14_25  and  O4_26 
REMARK    7  A    between atoms: O4_26  and  C15_27 
ROOT
HETATM    1  C2  UNL     1      19.391  82.118  -0.032  1.00  0.00     0.058 A 
HETATM    2  C3  UNL     1      18.362  81.961  -0.938  1.00  0.00     0.031 A 
HETATM    3  C4  UNL     1      18.654  81.497  -2.230  1.00  0.00     0.002 A 
HETATM    4  C5  UNL     1      19.926  81.197  -2.616  1.00  0.00     0.002 A 
HETATM    5  C6  UNL     1      20.926  81.367  -1.683  1.00  0.00     0.027 A 
HETATM    6  C7  UNL     1      20.703  81.814  -0.410  1.00  0.00     0.106 A 
ENDROOT
BRANCH   1   7
HETATM    7  N1  UNL     1      19.187  82.591   1.262  1.00  0.00    -0.322 N 
HETATM    8  C1  UNL     1      18.304  82.137   2.249  1.00  0.00     0.256 C 
HETATM    9  O1  UNL     1      17.545  81.158   2.030  1.00  0.00    -0.267 OA
ATOM     10  H1  UNL     1      19.766  83.386   1.530  1.00  0.00     0.169 HD
BRANCH   8  11
HETATM   11  C11 UNL     1      18.225  82.778   3.580  1.00  0.00     0.032 A 
HETATM   12  C12 UNL     1      18.090  81.965   4.680  1.00  0.00     0.020 A 
HETATM   13  C13 UNL     1      18.002  82.464   5.968  1.00  0.00     0.038 A 
HETATM   14  C14 UNL     1      18.050  83.831   6.170  1.00  0.00     0.078 A 
HETATM   15  C16 UNL     1      18.186  84.643   5.066  1.00  0.00     0.038 A 
HETATM   16  C17 UNL     1      18.273  84.122   3.773  1.00  0.00     0.020 A 
BRANCH  14  17
HETATM   17  O4  UNL     1      17.967  84.392   7.442  1.00  0.00    -0.255 OA
BRANCH  17  18
HETATM   18  C15 UNL     1      19.175  84.641   8.160  1.00  0.00     0.530 C 
HETATM   19  F1  UNL     1      19.759  85.814   7.801  1.00  0.00    -0.144 F 
HETATM   20  F2  UNL     1      20.087  83.598   7.957  1.00  0.00    -0.144 F 
HETATM   21  F3  UNL     1      18.862  84.659   9.499  1.00  0.00    -0.144 F 
ENDBRANCH  17  18
ENDBRANCH  14  17
ENDBRANCH   8  11
ENDBRANCH   1   7
BRANCH   6  22
HETATM   22  S1  UNL     1      22.000  81.983   0.702  1.00  0.00     0.266 S 
HETATM   23  O2  UNL     1      23.188  81.126   0.361  1.00  0.00    -0.200 OA
HETATM   24  O3  UNL     1      21.526  81.460   2.059  1.00  0.00    -0.200 OA
BRANCH  22  25
HETATM   25  N2  UNL     1      22.464  83.608   0.967  1.00  0.00    -0.260 N 
ATOM     26  H2  UNL     1      22.642  84.239   0.185  1.00  0.00     0.181 HD
BRANCH  25  27
HETATM   27  C8  UNL     1      22.583  84.016   2.205  1.00  0.00     0.158 A 
HETATM   28  N3  UNL     1      21.677  84.515   3.037  1.00  0.00    -0.345 N 
HETATM   29  C9  UNL     1      22.034  84.855   4.239  1.00  0.00     0.097 A 
ATOM     30  H3  UNL     1      20.709  84.629   2.736  1.00  0.00     0.167 HD
HETATM   31  C10 UNL     1      23.349  84.681   4.590  1.00  0.00     0.070 A 
HETATM   32  S2  UNL     1      24.011  84.027   3.160  1.00  0.00    -0.064 SA
ENDBRANCH  25  27
ENDBRANCH  22  25
ENDBRANCH   6  22
TORSDOF 7
ENDMDL
MODEL 2
REMARK VINA RESULT: -8.570355681      2.318      4.459
REMARK  7 active torsions:
REMARK  status: ('A' for Active; 'I' for Inactive)
REMARK       I    between atoms: C1_2  and  N1_3 
REMARK    1  A    between atoms: C1_2  and  C11_22 
REMARK    2  A    between atoms: N1_3  and  C2_5 
REMARK    3  A    between atoms: C7_10  and  S1_11 
REMARK    4  A    between atoms: S1_11  and  N2_14 
REMARK    5  A    between atoms: N2_14  and  C8_16 
REMARK    6  A    between atoms: C14_25  and  O4_26 
REMARK    7  A    between atoms: O4_26  and  C15_27 
ROOT
HETATM    1  C2  UNL     1      23.354  83.782  -0.080  1.00  0.00     0.058 A 
HETATM    2  C3  UNL     1      24.280  84.532  -0.777  1.00  0.00     0.031 A 
HETATM    3  C4  UNL     1      24.623  84.151  -2.084  1.00  0.00     0.002 A 
HETATM    4  C5  UNL     1      24.067  83.061  -2.685  1.00  0.00     0.002 A 
HETATM    5  C6  UNL     1      23.147  82.339  -1.956  1.00  0.00     0.027 A 
HETATM    6  C7  UNL     1      22.773  82.660  -0.681  1.00  0.00     0.106 A 
ENDROOT
BRANCH   1   7
HETATM    7  N1  UNL     1      22.974  84.082   1.226  1.00  0.00    -0.322 N 
HETATM    8  C1  UNL     1      23.755  84.168   2.384  1.00  0.00     0.256 C 
HETATM    9  O1  UNL     1      24.995  83.965   2.339  1.00  0.00    -0.267 OA
ATOM     10  H1  UNL     1      21.980  84.266   1.358  1.00  0.00     0.169 HD
BRANCH   8  11
HETATM   11  C11 UNL     1      23.165  84.498   3.701  1.00  0.00     0.032 A 
HETATM   12  C12 UNL     1      21.833  84.832   3.744  1.00  0.00     0.020 A 
HETATM   13  C13 UNL     1      21.186  85.162   4.923  1.00  0.00     0.038 A 
HETATM   14  C14 UNL     1      21.897  85.160   6.109  1.00  0.00     0.078 A 
HETATM   15  C16 UNL     1      23.231  84.824   6.062  1.00  0.00     0.038 A 
HETATM   16  C17 UNL     1      23.868  84.494   4.864  1.00  0.00     0.020 A 
BRANCH  14  17
HETATM   17  O4  UNL     1      21.302  85.482   7.326  1.00  0.00    -0.255 OA
BRANCH  17  18
HETATM   18  C15 UNL     1      20.762  84.428   8.124  1.00  0.00     0.530 C 
HETATM   19  F1  UNL     1      21.730  83.654   8.682  1.00  0.00    -0.144 F 
HETATM   20  F2  UNL     1      19.917  83.618   7.356  1.00  0.00    -0.144 F 
HETATM   21  F3  UNL     1      19.995  85.008   9.107  1.00  0.00    -0.144 F 
ENDBRANCH  17  18
ENDBRANCH  14  17
ENDBRANCH   8  11
ENDBRANCH   1   7
BRANCH   6  22
HETATM   22  S1  UNL     1      21.606  81.720   0.156  1.00  0.00     0.266 S 
HETATM   23  O2  UNL     1      22.129  81.130   1.437  1.00  0.00    -0.200 OA
HETATM   24  O3  UNL     1      21.266  80.509  -0.714  1.00  0.00    -0.200 OA
BRANCH  22  25
HETATM   25  N2  UNL     1      20.126  82.539   0.411  1.00  0.00    -0.260 N 
ATOM     26  H2  UNL     1      19.840  83.312  -0.191  1.00  0.00     0.181 HD
BRANCH  25  27
HETATM   27  C8  UNL     1      19.371  82.143   1.404  1.00  0.00     0.158 A 
HETATM   28  N3  UNL     1      18.990  80.923   1.762  1.00  0.00    -0.345 N 
HETATM   29  C9  UNL     1      18.226  80.772   2.802  1.00  0.00     0.097 A 
ATOM     30  H3  UNL     1      19.294  80.111   1.224  1.00  0.00     0.167 HD
HETATM   31  C10 UNL     1      17.847  81.899   3.487  1.00  0.00     0.070 A 
HETATM   32  S2  UNL     1      18.617  83.131   2.592  1.00  0.00    -0.064 SA
ENDBRANCH  25  27
ENDBRANCH  22  25
ENDBRANCH   6  22
TORSDOF 7
ENDMDL
MODEL 3
REMARK VINA RESULT: -8.344902131      3.370      5.386
REMARK  7 active torsions:
REMARK  status: ('A' for Active; 'I' for Inactive)
REMARK       I    between atoms: C1_2  and  N1_3 
REMARK    1  A    between atoms: C1_2  and  C11_22 
REMARK    2  A    between atoms: N1_3  and  C2_5 
REMARK    3  A    between atoms: C7_10  and  S1_11 
REMARK    4  A    between atoms: S1_11  and  N2_14 
REMARK    5  A    between atoms: N2_14  and  C8_16 
REMARK    6  A    between atoms: C14_25  and  O4_26 
REMARK    7  A    between atoms: O4_26  and  C15_27 
ROOT
HETATM    1  C2  UNL     1      16.985  80.196   1.109  1.00  0.00     0.058 A 
HETATM    2  C3  UNL     1      16.736  78.868   1.394  1.00  0.00     0.031 A 
HETATM    3  C4  UNL     1      16.581  77.960   0.335  1.00  0.00     0.002 A 
HETATM    4  C5  UNL     1      16.669  78.351  -0.967  1.00  0.00     0.002 A 
HETATM    5  C6  UNL     1      16.918  79.685  -1.211  1.00  0.00     0.027 A 
HETATM    6  C7  UNL     1      17.079  80.616  -0.222  1.00  0.00     0.106 A 
ENDROOT
BRANCH   1   7
HETATM    7  N1  UNL     1      17.132  81.162   2.101  1.00  0.00    -0.322 N 
HETATM    8  C1  UNL     1      18.237  81.447   2.911  1.00  0.00     0.256 C 
HETATM    9  O1  UNL     1      19.303  80.789   2.797  1.00  0.00    -0.267 OA
ATOM     10  H1  UNL     1      16.314  81.749   2.260  1.00  0.00     0.169 HD
BRANCH   8  11
HETATM   11  C11 UNL     1      18.204  82.523   3.927  1.00  0.00     0.032 A 
HETATM   12  C12 UNL     1      18.239  83.824   3.487  1.00  0.00     0.020 A 
HETATM   13  C13 UNL     1      18.218  84.903   4.355  1.00  0.00     0.038 A 
HETATM   14  C14 UNL     1      18.159  84.676   5.718  1.00  0.00     0.078 A 
HETATM   15  C16 UNL     1      18.123  83.371   6.154  1.00  0.00     0.038 A 
HETATM   16  C17 UNL     1      18.146  82.294   5.265  1.00  0.00     0.020 A 
BRANCH  14  17
HETATM   17  O4  UNL     1      18.134  85.720   6.639  1.00  0.00    -0.255 OA
BRANCH  17  18
HETATM   18  C15 UNL     1      19.363  86.142   7.229  1.00  0.00     0.530 C 
HETATM   19  F1  UNL     1      19.328  87.442   7.624  1.00  0.00    -0.144 F 
HETATM   20  F2  UNL     1      20.421  85.968   6.330  1.00  0.00    -0.144 F 
HETATM   21  F3  UNL     1      19.602  85.327   8.310  1.00  0.00    -0.144 F 
ENDBRANCH  17  18
ENDBRANCH  14  17
ENDBRANCH   8  11
ENDBRANCH   1   7
BRANCH   6  22
HETATM   22  S1  UNL     1      17.405  82.257  -0.605  1.00  0.00     0.266 S 
HETATM   23  O2  UNL     1      18.780  82.700  -0.185  1.00  0.00    -0.200 OA
HETATM   24  O3  UNL     1      16.453  83.129   0.215  1.00  0.00    -0.200 OA
BRANCH  22  25
HETATM   25  N2  UNL     1      17.101  82.649  -2.242  1.00  0.00    -0.260 N 
ATOM     26  H2  UNL     1      17.864  82.732  -2.915  1.00  0.00     0.181 HD
BRANCH  25  27
HETATM   27  C8  UNL     1      15.859  82.838  -2.605  1.00  0.00     0.158 A 
HETATM   28  N3  UNL     1      14.962  83.719  -2.177  1.00  0.00    -0.345 N 
HETATM   29  C9  UNL     1      13.770  83.719  -2.695  1.00  0.00     0.097 A 
ATOM     30  H3  UNL     1      15.207  84.390  -1.449  1.00  0.00     0.167 HD
HETATM   31  C10 UNL     1      13.496  82.794  -3.671  1.00  0.00     0.070 A 
HETATM   32  S2  UNL     1      14.981  81.965  -3.797  1.00  0.00    -0.064 SA
ENDBRANCH  25  27
ENDBRANCH  22  25
ENDBRANCH   6  22
TORSDOF 7
ENDMDL
MODEL 4
REMARK VINA RESULT: -8.342785611      2.428      3.606
REMARK  7 active torsions:
REMARK  status: ('A' for Active; 'I' for Inactive)
REMARK       I    between atoms: C1_2  and  N1_3 
REMARK    1  A    between atoms: C1_2  and  C11_22 
REMARK    2  A    between atoms: N1_3  and  C2_5 
REMARK    3  A    between atoms: C7_10  and  S1_11 
REMARK    4  A    between atoms: S1_11  and  N2_14 
REMARK    5  A    between atoms: N2_14  and  C8_16 
REMARK    6  A    between atoms: C14_25  and  O4_26 
REMARK    7  A    between atoms: O4_26  and  C15_27 
ROOT
HETATM    1  C2  UNL     1      17.021  80.246   1.038  1.00  0.00     0.058 A 
HETATM    2  C3  UNL     1      16.780  78.940   1.415  1.00  0.00     0.031 A 
HETATM    3  C4  UNL     1      16.586  77.968   0.422  1.00  0.00     0.002 A 
HETATM    4  C5  UNL     1      16.629  78.276  -0.905  1.00  0.00     0.002 A 
HETATM    5  C6  UNL     1      16.872  79.590  -1.241  1.00  0.00     0.027 A 
HETATM    6  C7  UNL     1      17.069  80.581  -0.319  1.00  0.00     0.106 A 
ENDROOT
BRANCH   1   7
HETATM    7  N1  UNL     1      17.205  81.272   1.961  1.00  0.00    -0.322 N 
HETATM    8  C1  UNL     1      18.043  81.325   3.081  1.00  0.00     0.256 C 
HETATM    9  O1  UNL     1      18.780  80.350   3.377  1.00  0.00    -0.267 OA
ATOM     10  H1  UNL     1      16.647  82.109   1.797  1.00  0.00     0.169 HD
BRANCH   8  11
HETATM   11  C11 UNL     1      18.100  82.515   3.959  1.00  0.00     0.032 A 
HETATM   12  C12 UNL     1      18.080  82.315   5.318  1.00  0.00     0.020 A 
HETATM   13  C13 UNL     1      18.125  83.360   6.225  1.00  0.00     0.038 A 
HETATM   14  C14 UNL     1      18.190  84.660   5.757  1.00  0.00     0.078 A 
HETATM   15  C16 UNL     1      18.210  84.857   4.396  1.00  0.00     0.038 A 
HETATM   16  C17 UNL     1      18.165  83.791   3.495  1.00  0.00     0.020 A 
BRANCH  14  17
HETATM   17  O4  UNL     1      18.238  85.752   6.621  1.00  0.00    -0.255 OA
BRANCH  17  18
HETATM   18  C15 UNL     1      19.493  86.116   7.195  1.00  0.00     0.530 C 
HETATM   19  F1  UNL     1      20.518  86.008   6.309  1.00  0.00    -0.144 F 
HETATM   20  F2  UNL     1      19.769  85.317   8.311  1.00  0.00    -0.144 F 
HETATM   21  F3  UNL     1      19.384  87.415   7.635  1.00  0.00    -0.144 F 
ENDBRANCH  17  18
ENDBRANCH  14  17
ENDBRANCH   8  11
ENDBRANCH   1   7
BRANCH   6  22
HETATM   22  S1  UNL     1      17.385  82.193  -0.816  1.00  0.00     0.266 S 
HETATM   23  O2  UNL     1      17.010  83.217   0.222  1.00  0.00    -0.200 OA
HETATM   24  O3  UNL     1      16.477  82.505  -2.007  1.00  0.00    -0.200 OA
BRANCH  22  25
HETATM   25  N2  UNL     1      18.984  82.435  -1.374  1.00  0.00    -0.260 N 
ATOM     26  H2  UNL     1      19.168  82.750  -2.326  1.00  0.00     0.181 HD
BRANCH  25  27
HETATM   27  C8  UNL     1      19.965  82.201  -0.540  1.00  0.00     0.158 A 
HETATM   28  N3  UNL     1      20.154  82.621   0.705  1.00  0.00    -0.345 N 
HETATM   29  C9  UNL     1      21.221  82.252   1.349  1.00  0.00     0.097 A 
ATOM     30  H3  UNL     1      19.467  83.228   1.153  1.00  0.00     0.167 HD
HETATM   31  C10 UNL     1      22.111  81.436   0.697  1.00  0.00     0.070 A 
HETATM   32  S2  UNL     1      21.360  81.237  -0.822  1.00  0.00    -0.064 SA
ENDBRANCH  25  27
ENDBRANCH  22  25
ENDBRANCH   6  22
TORSDOF 7
ENDMDL
MODEL 5
REMARK VINA RESULT: -8.319728895      3.272      4.606
REMARK  7 active torsions:
REMARK  status: ('A' for Active; 'I' for Inactive)
REMARK       I    between atoms: C1_2  and  N1_3 
REMARK    1  A    between atoms: C1_2  and  C11_22 
REMARK    2  A    between atoms: N1_3  and  C2_5 
REMARK    3  A    between atoms: C7_10  and  S1_11 
REMARK    4  A    between atoms: S1_11  and  N2_14 
REMARK    5  A    between atoms: N2_14  and  C8_16 
REMARK    6  A    between atoms: C14_25  and  O4_26 
REMARK    7  A    between atoms: O4_26  and  C15_27 
ROOT
HETATM    1  C2  UNL     1      16.982  80.254   0.982  1.00  0.00     0.058 A 
HETATM    2  C3  UNL     1      16.627  78.963   1.319  1.00  0.00     0.031 A 
HETATM    3  C4  UNL     1      16.467  78.010   0.302  1.00  0.00     0.002 A 
HETATM    4  C5  UNL     1      16.652  78.323  -1.012  1.00  0.00     0.002 A 
HETATM    5  C6  UNL     1      17.005  79.622  -1.308  1.00  0.00     0.027 A 
HETATM    6  C7  UNL     1      17.176  80.593  -0.362  1.00  0.00     0.106 A 
ENDROOT
BRANCH   1   7
HETATM    7  N1  UNL     1      17.142  81.261   1.930  1.00  0.00    -0.322 N 
HETATM    8  C1  UNL     1      18.221  81.520   2.783  1.00  0.00     0.256 C 
HETATM    9  O1  UNL     1      19.246  80.792   2.761  1.00  0.00    -0.267 OA
ATOM     10  H1  UNL     1      16.357  81.906   2.015  1.00  0.00     0.169 HD
BRANCH   8  11
HETATM   11  C11 UNL     1      18.206  82.649   3.739  1.00  0.00     0.032 A 
HETATM   12  C12 UNL     1      18.171  82.356   5.081  1.00  0.00     0.020 A 
HETATM   13  C13 UNL     1      18.150  83.338   6.057  1.00  0.00     0.038 A 
HETATM   14  C14 UNL     1      18.165  84.669   5.679  1.00  0.00     0.078 A 
HETATM   15  C16 UNL     1      18.201  84.959   4.334  1.00  0.00     0.038 A 
HETATM   16  C17 UNL     1      18.221  83.955   3.363  1.00  0.00     0.020 A 
BRANCH  14  17
HETATM   17  O4  UNL     1      18.146  85.701   6.615  1.00  0.00    -0.255 OA
BRANCH  17  18
HETATM   18  C15 UNL     1      19.377  86.104   7.214  1.00  0.00     0.530 C 
HETATM   19  F1  UNL     1      20.422  86.032   6.348  1.00  0.00    -0.144 F 
HETATM   20  F2  UNL     1      19.658  85.311   8.333  1.00  0.00    -0.144 F 
HETATM   21  F3  UNL     1      19.217  87.397   7.654  1.00  0.00    -0.144 F 
ENDBRANCH  17  18
ENDBRANCH  14  17
ENDBRANCH   8  11
ENDBRANCH   1   7
BRANCH   6  22
HETATM   22  S1  UNL     1      17.635  82.185  -0.808  1.00  0.00     0.266 S 
HETATM   23  O2  UNL     1      19.009  82.564  -0.325  1.00  0.00    -0.200 OA
HETATM   24  O3  UNL     1      16.695  83.162  -0.098  1.00  0.00    -0.200 OA
BRANCH  22  25
HETATM   25  N2  UNL     1      17.458  82.503  -2.480  1.00  0.00    -0.260 N 
ATOM     26  H2  UNL     1      17.144  81.776  -3.124  1.00  0.00     0.181 HD
BRANCH  25  27
HETATM   27  C8  UNL     1      17.739  83.707  -2.907  1.00  0.00     0.158 A 
HETATM   28  N3  UNL     1      18.470  84.667  -2.354  1.00  0.00    -0.345 N 
HETATM   29  C9  UNL     1      18.611  85.800  -2.975  1.00  0.00     0.097 A 
ATOM     30  H3  UNL     1      18.917  84.517  -1.450  1.00  0.00     0.167 HD
HETATM   31  C10 UNL     1      17.986  85.947  -4.188  1.00  0.00     0.070 A 
HETATM   32  S2  UNL     1      17.223  84.434  -4.376  1.00  0.00    -0.064 SA
ENDBRANCH  25  27
ENDBRANCH  22  25
ENDBRANCH   6  22
TORSDOF 7
ENDMDL
