MODEL 1
REMARK VINA RESULT: -8.264638646      0.000      0.000
REMARK  7 active torsions:
REMARK  status: ('A' for Active; 'I' for Inactive)
REMARK    1  A    between atoms: C4_7  and  O1_8 
REMARK    2  A    between atoms: O1_8  and  C5_9 
REMARK       I    between atoms: C5_9  and  N2_11 
REMARK    3  A    between atoms: N2_11  and  C6_13 
REMARK    4  A    between atoms: C6_13  and  C9_16 
REMARK    5  A    between atoms: C9_16  and  C10_17 
REMARK       I    between atoms: C10_17  and  N3_19 
REMARK    6  A    between atoms: N5_25  and  C14_27 
REMARK    7  A    between atoms: C14_27  and  C16_29 
ROOT
HETATM    1  C1  UNL     1      23.163  82.856   0.076  1.00  0.00     0.057 C 
HETATM    2  C2  UNL     1      21.999  82.612   0.999  1.00  0.00    -0.012 A 
HETATM    3  S1  UNL     1      21.800  83.132   2.600  1.00  0.00    -0.076 SA
HETATM    4  C3  UNL     1      20.264  82.460   2.917  1.00  0.00     0.092 A 
HETATM    5  N1  UNL     1      19.459  82.475   4.026  1.00  0.00    -0.315 N 
ATOM      6  H1  UNL     1      19.761  82.961   4.870  1.00  0.00     0.170 HD
HETATM    7  C4  UNL     1      18.266  81.847   3.999  1.00  0.00     0.235 A 
HETATM    8  N4  UNL     1      17.933  81.237   2.877  1.00  0.00    -0.307 N 
ATOM      9  H4  UNL     1      17.031  80.762   2.857  1.00  0.00     0.171 HD
HETATM   10  C13 UNL     1      18.677  81.186   1.755  1.00  0.00     0.118 A 
HETATM   11  N5  UNL     1      18.285  80.578   0.720  1.00  0.00    -0.362 N 
ATOM     12  H5  UNL     1      18.929  80.603  -0.070  1.00  0.00     0.161 HD
HETATM   13  C17 UNL     1      19.935  81.833   1.745  1.00  0.00     0.049 A 
HETATM   14  C18 UNL     1      20.850  81.917   0.744  1.00  0.00    -0.032 A 
HETATM   15  C19 UNL     1      20.654  81.282  -0.626  1.00  0.00     0.050 C 
ENDROOT
BRANCH   7  16
HETATM   16  O1  UNL     1      17.470  81.878   5.137  1.00  0.00    -0.228 OA
BRANCH  16  17
HETATM   17  C5  UNL     1      17.872  82.478   6.308  1.00  0.00     0.368 C 
HETATM   18  O2  UNL     1      17.770  81.800   7.366  1.00  0.00    -0.238 OA
HETATM   19  N2  UNL     1      18.388  83.802   6.379  1.00  0.00    -0.328 N 
ATOM     20  H2  UNL     1      18.474  84.356   5.527  1.00  0.00     0.165 HD
BRANCH  19  21
HETATM   21  C6  UNL     1      18.791  84.369   7.637  1.00  0.00     0.036 C 
HETATM   22  C7  UNL     1      17.567  84.791   8.395  1.00  0.00     0.038 C 
HETATM   23  C8  UNL     1      19.534  83.292   8.390  1.00  0.00     0.038 C 
BRANCH  21  24
HETATM   24  C9  UNL     1      19.668  85.588   7.433  1.00  0.00     0.133 C 
BRANCH  24  25
HETATM   25  C10 UNL     1      20.707  85.296   6.429  1.00  0.00     0.221 C 
HETATM   26  O3  UNL     1      20.426  85.250   5.220  1.00  0.00    -0.273 OA
HETATM   27  N3  UNL     1      22.035  85.069   6.853  1.00  0.00    -0.361 N 
HETATM   28  C11 UNL     1      22.392  85.119   8.279  1.00  0.00     0.152 C 
HETATM   29  C12 UNL     1      23.055  84.783   5.893  1.00  0.00     0.152 C 
ENDBRANCH  24  25
ENDBRANCH  21  24
ENDBRANCH  19  21
ENDBRANCH  16  17
ENDBRANCH   7  16
BRANCH  11  30
HETATM   30  C14 UNL     1      17.085  79.869   0.497  1.00  0.00     0.186 C 
HETATM   31  C15 UNL     1      17.058  78.475   1.073  1.00  0.00     0.041 C 
BRANCH  30  32
HETATM   32  C16 UNL     1      16.784  79.758  -0.977  1.00  0.00     0.407 C 
HETATM   33  F1  UNL     1      16.953  78.490  -1.469  1.00  0.00    -0.169 F 
HETATM   34  F2  UNL     1      17.594  80.609  -1.709  1.00  0.00    -0.169 F 
HETATM   35  F3  UNL     1      15.474  80.115  -1.265  1.00  0.00    -0.169 F 
ENDBRANCH  30  32
ENDBRANCH  11  30
TORSDOF 7
ENDMDL
MODEL 2
REMARK VINA RESULT: -8.232172330      4.096      7.700
REMARK  7 active torsions:
REMARK  status: ('A' for Active; 'I' for Inactive)
REMARK    1  A    between atoms: C4_7  and  O1_8 
REMARK    2  A    between atoms: O1_8  and  C5_9 
REMARK       I    between atoms: C5_9  and  N2_11 
REMARK    3  A    between atoms: N2_11  and  C6_13 
REMARK    4  A    between atoms: C6_13  and  C9_16 
REMARK    5  A    between atoms: C9_16  and  C10_17 
REMARK       I    between atoms: C10_17  and  N3_19 
REMARK    6  A    between atoms: N5_25  and  C14_27 
REMARK    7  A    between atoms: C14_27  and  C16_29 
ROOT
HETATM    1  C1  UNL     1      24.319  84.394   2.616  1.00  0.00     0.057 C 
HETATM    2  C2  UNL     1      22.958  83.759   2.521  1.00  0.00    -0.012 A 
HETATM    3  S1  UNL     1      22.394  82.646   1.374  1.00  0.00    -0.076 SA
HETATM    4  C3  UNL     1      20.804  82.434   1.957  1.00  0.00     0.092 A 
HETATM    5  N1  UNL     1      19.755  81.667   1.523  1.00  0.00    -0.315 N 
ATOM      6  H1  UNL     1      19.861  81.077   0.697  1.00  0.00     0.170 HD
HETATM    7  C4  UNL     1      18.584  81.692   2.189  1.00  0.00     0.235 A 
HETATM    8  N4  UNL     1      18.512  82.475   3.250  1.00  0.00    -0.307 N 
ATOM      9  H4  UNL     1      17.626  82.493   3.754  1.00  0.00     0.171 HD
HETATM   10  C13 UNL     1      19.505  83.251   3.727  1.00  0.00     0.118 A 
HETATM   11  N5  UNL     1      19.354  83.974   4.751  1.00  0.00    -0.362 N 
ATOM     12  H5  UNL     1      20.171  84.521   5.022  1.00  0.00     0.161 HD
HETATM   13  C17 UNL     1      20.749  83.251   3.054  1.00  0.00     0.049 A 
HETATM   14  C18 UNL     1      21.882  83.943   3.343  1.00  0.00    -0.032 A 
HETATM   15  C19 UNL     1      22.002  84.897   4.524  1.00  0.00     0.050 C 
ENDROOT
BRANCH   7  16
HETATM   16  O1  UNL     1      17.537  80.904   1.728  1.00  0.00    -0.228 OA
BRANCH  16  17
HETATM   17  C5  UNL     1      17.355  80.616   0.396  1.00  0.00     0.368 C 
HETATM   18  O2  UNL     1      17.809  79.518  -0.024  1.00  0.00    -0.238 OA
HETATM   19  N2  UNL     1      16.690  81.485  -0.514  1.00  0.00    -0.328 N 
ATOM     20  H2  UNL     1      16.320  82.376  -0.182  1.00  0.00     0.165 HD
BRANCH  19  21
HETATM   21  C6  UNL     1      16.532  81.123  -1.897  1.00  0.00     0.036 C 
HETATM   22  C7  UNL     1      17.887  80.871  -2.491  1.00  0.00     0.038 C 
HETATM   23  C8  UNL     1      15.697  79.867  -1.933  1.00  0.00     0.038 C 
BRANCH  21  24
HETATM   24  C9  UNL     1      15.868  82.236  -2.682  1.00  0.00     0.133 C 
BRANCH  24  25
HETATM   25  C10 UNL     1      16.486  83.530  -2.339  1.00  0.00     0.221 C 
HETATM   26  O3  UNL     1      16.317  84.036  -1.217  1.00  0.00    -0.273 OA
HETATM   27  N3  UNL     1      17.279  84.196  -3.301  1.00  0.00    -0.361 N 
HETATM   28  C11 UNL     1      17.494  83.616  -4.635  1.00  0.00     0.152 C 
HETATM   29  C12 UNL     1      17.885  85.451  -2.985  1.00  0.00     0.152 C 
ENDBRANCH  24  25
ENDBRANCH  21  24
ENDBRANCH  19  21
ENDBRANCH  16  17
ENDBRANCH   7  16
BRANCH  11  30
HETATM   30  C14 UNL     1      18.220  84.136   5.575  1.00  0.00     0.186 C 
HETATM   31  C15 UNL     1      18.056  85.515   6.162  1.00  0.00     0.041 C 
BRANCH  30  32
HETATM   32  C16 UNL     1      18.235  83.153   6.721  1.00  0.00     0.407 C 
HETATM   33  F1  UNL     1      19.451  83.077   7.349  1.00  0.00    -0.169 F 
HETATM   34  F2  UNL     1      17.902  81.883   6.284  1.00  0.00    -0.169 F 
HETATM   35  F3  UNL     1      17.312  83.488   7.701  1.00  0.00    -0.169 F 
ENDBRANCH  30  32
ENDBRANCH  11  30
TORSDOF 7
ENDMDL
MODEL 3
REMARK VINA RESULT: -8.166859653      4.155      7.648
REMARK  7 active torsions:
REMARK  status: ('A' for Active; 'I' for Inactive)
REMARK    1  A    between atoms: C4_7  and  O1_8 
REMARK    2  A    between atoms: O1_8  and  C5_9 
REMARK       I    between atoms: C5_9  and  N2_11 
REMARK    3  A    between atoms: N2_11  and  C6_13 
REMARK    4  A    between atoms: C6_13  and  C9_16 
REMARK    5  A    between atoms: C9_16  and  C10_17 
REMARK       I    between atoms: C10_17  and  N3_19 
REMARK    6  A    between atoms: N5_25  and  C14_27 
REMARK    7  A    between atoms: C14_27  and  C16_29 
ROOT
HETATM    1  C1  UNL     1      19.685  86.069   7.352  1.00  0.00     0.057 C 
HETATM    2  C2  UNL     1      20.308  85.493   6.108  1.00  0.00    -0.012 A 
HETATM    3  S1  UNL     1      21.907  85.647   5.565  1.00  0.00    -0.076 SA
HETATM    4  C3  UNL     1      21.797  84.728   4.131  1.00  0.00     0.092 A 
HETATM    5  N1  UNL     1      22.715  84.412   3.164  1.00  0.00    -0.315 N 
ATOM      6  H1  UNL     1      23.674  84.751   3.238  1.00  0.00     0.170 HD
HETATM    7  C4  UNL     1      22.348  83.651   2.113  1.00  0.00     0.235 A 
HETATM    8  N4  UNL     1      21.093  83.243   2.075  1.00  0.00    -0.307 N 
ATOM      9  H4  UNL     1      20.815  82.668   1.280  1.00  0.00     0.171 HD
HETATM   10  C13 UNL     1      20.145  83.519   2.991  1.00  0.00     0.118 A 
HETATM   11  N5  UNL     1      18.963  83.090   2.881  1.00  0.00    -0.362 N 
ATOM     12  H5  UNL     1      18.328  83.360   3.632  1.00  0.00     0.161 HD
HETATM   13  C17 UNL     1      20.492  84.314   4.108  1.00  0.00     0.049 A 
HETATM   14  C18 UNL     1      19.718  84.720   5.148  1.00  0.00    -0.032 A 
HETATM   15  C19 UNL     1      18.246  84.356   5.288  1.00  0.00     0.050 C 
ENDROOT
BRANCH   7  16
HETATM   16  O1  UNL     1      23.298  83.345   1.147  1.00  0.00    -0.228 OA
BRANCH  16  17
HETATM   17  C5  UNL     1      23.293  82.160   0.449  1.00  0.00     0.368 C 
HETATM   18  O2  UNL     1      22.620  81.209   0.932  1.00  0.00    -0.238 OA
HETATM   19  N2  UNL     1      23.997  81.961  -0.772  1.00  0.00    -0.328 N 
ATOM     20  H2  UNL     1      24.542  82.725  -1.169  1.00  0.00     0.165 HD
BRANCH  19  21
HETATM   21  C6  UNL     1      23.948  80.695  -1.453  1.00  0.00     0.036 C 
HETATM   22  C7  UNL     1      22.525  80.397  -1.823  1.00  0.00     0.038 C 
HETATM   23  C8  UNL     1      24.800  80.827  -2.691  1.00  0.00     0.038 C 
BRANCH  21  24
HETATM   24  C9  UNL     1      24.453  79.576  -0.564  1.00  0.00     0.133 C 
BRANCH  24  25
HETATM   25  C10 UNL     1      25.911  79.699  -0.384  1.00  0.00     0.221 C 
HETATM   26  O3  UNL     1      26.405  80.730   0.101  1.00  0.00    -0.273 OA
HETATM   27  N3  UNL     1      26.749  78.628  -0.766  1.00  0.00    -0.361 N 
HETATM   28  C11 UNL     1      26.187  77.396  -1.342  1.00  0.00     0.152 C 
HETATM   29  C12 UNL     1      28.165  78.730  -0.599  1.00  0.00     0.152 C 
ENDBRANCH  24  25
ENDBRANCH  21  24
ENDBRANCH  19  21
ENDBRANCH  16  17
ENDBRANCH   7  16
BRANCH  11  30
HETATM   30  C14 UNL     1      18.391  82.290   1.867  1.00  0.00     0.186 C 
HETATM   31  C15 UNL     1      17.457  83.021   0.936  1.00  0.00     0.041 C 
BRANCH  30  32
HETATM   32  C16 UNL     1      17.628  81.129   2.457  1.00  0.00     0.407 C 
HETATM   33  F1  UNL     1      16.584  80.715   1.671  1.00  0.00    -0.169 F 
HETATM   34  F2  UNL     1      17.121  81.456   3.702  1.00  0.00    -0.169 F 
HETATM   35  F3  UNL     1      18.440  80.018   2.640  1.00  0.00    -0.169 F 
ENDBRANCH  30  32
ENDBRANCH  11  30
TORSDOF 7
ENDMDL
MODEL 4
REMARK VINA RESULT: -8.136857411      3.984      7.709
REMARK  7 active torsions:
REMARK  status: ('A' for Active; 'I' for Inactive)
REMARK    1  A    between atoms: C4_7  and  O1_8 
REMARK    2  A    between atoms: O1_8  and  C5_9 
REMARK       I    between atoms: C5_9  and  N2_11 
REMARK    3  A    between atoms: N2_11  and  C6_13 
REMARK    4  A    between atoms: C6_13  and  C9_16 
REMARK    5  A    between atoms: C9_16  and  C10_17 
REMARK       I    between atoms: C10_17  and  N3_19 
REMARK    6  A    between atoms: N5_25  and  C14_27 
REMARK    7  A    between atoms: C14_27  and  C16_29 
ROOT
HETATM    1  C1  UNL     1      24.238  84.531   2.788  1.00  0.00     0.057 C 
HETATM    2  C2  UNL     1      22.870  83.910   2.699  1.00  0.00    -0.012 A 
HETATM    3  S1  UNL     1      22.282  82.822   1.540  1.00  0.00    -0.076 SA
HETATM    4  C3  UNL     1      20.698  82.615   2.139  1.00  0.00     0.092 A 
HETATM    5  N1  UNL     1      19.636  81.864   1.705  1.00  0.00    -0.315 N 
ATOM      6  H1  UNL     1      19.726  81.288   0.868  1.00  0.00     0.170 HD
HETATM    7  C4  UNL     1      18.473  81.889   2.386  1.00  0.00     0.235 A 
HETATM    8  N4  UNL     1      18.422  82.654   3.460  1.00  0.00    -0.307 N 
ATOM      9  H4  UNL     1      17.542  82.673   3.975  1.00  0.00     0.171 HD
HETATM   10  C13 UNL     1      19.427  83.414   3.938  1.00  0.00     0.118 A 
HETATM   11  N5  UNL     1      19.295  84.121   4.976  1.00  0.00    -0.362 N 
ATOM     12  H5  UNL     1      20.120  84.655   5.246  1.00  0.00     0.161 HD
HETATM   13  C17 UNL     1      20.662  83.414   3.250  1.00  0.00     0.049 A 
HETATM   14  C18 UNL     1      21.805  84.090   3.537  1.00  0.00    -0.032 A 
HETATM   15  C19 UNL     1      21.949  85.023   4.732  1.00  0.00     0.050 C 
ENDROOT
BRANCH   7  16
HETATM   16  O1  UNL     1      17.413  81.119   1.924  1.00  0.00    -0.228 OA
BRANCH  16  17
HETATM   17  C5  UNL     1      17.316  80.696   0.619  1.00  0.00     0.368 C 
HETATM   18  O2  UNL     1      17.756  79.545   0.351  1.00  0.00    -0.238 OA
HETATM   19  N2  UNL     1      16.750  81.482  -0.424  1.00  0.00    -0.328 N 
ATOM     20  H2  UNL     1      16.392  82.413  -0.215  1.00  0.00     0.165 HD
BRANCH  19  21
HETATM   21  C6  UNL     1      16.678  80.979  -1.769  1.00  0.00     0.036 C 
HETATM   22  C7  UNL     1      16.012  79.634  -1.751  1.00  0.00     0.038 C 
HETATM   23  C8  UNL     1      15.858  81.964  -2.566  1.00  0.00     0.038 C 
BRANCH  21  24
HETATM   24  C9  UNL     1      18.061  80.817  -2.369  1.00  0.00     0.133 C 
BRANCH  24  25
HETATM   25  C10 UNL     1      18.743  82.123  -2.415  1.00  0.00     0.221 C 
HETATM   26  O3  UNL     1      19.088  82.695  -1.368  1.00  0.00    -0.273 OA
HETATM   27  N3  UNL     1      19.006  82.723  -3.667  1.00  0.00    -0.361 N 
HETATM   28  C11 UNL     1      18.607  82.063  -4.920  1.00  0.00     0.152 C 
HETATM   29  C12 UNL     1      19.666  83.989  -3.730  1.00  0.00     0.152 C 
ENDBRANCH  24  25
ENDBRANCH  21  24
ENDBRANCH  19  21
ENDBRANCH  16  17
ENDBRANCH   7  16
BRANCH  11  30
HETATM   30  C14 UNL     1      18.172  84.279   5.816  1.00  0.00     0.186 C 
HETATM   31  C15 UNL     1      18.049  85.638   6.458  1.00  0.00     0.041 C 
BRANCH  30  32
HETATM   32  C16 UNL     1      18.172  83.252   6.922  1.00  0.00     0.407 C 
HETATM   33  F1  UNL     1      17.816  81.999   6.495  1.00  0.00    -0.169 F 
HETATM   34  F2  UNL     1      17.301  83.619   7.933  1.00  0.00    -0.169 F 
HETATM   35  F3  UNL     1      19.424  83.122   7.507  1.00  0.00    -0.169 F 
ENDBRANCH  30  32
ENDBRANCH  11  30
TORSDOF 7
ENDMDL
MODEL 5
REMARK VINA RESULT: -8.098501298      3.103      4.341
REMARK  7 active torsions:
REMARK  status: ('A' for Active; 'I' for Inactive)
REMARK    1  A    between atoms: C4_7  and  O1_8 
REMARK    2  A    between atoms: O1_8  and  C5_9 
REMARK       I    between atoms: C5_9  and  N2_11 
REMARK    3  A    between atoms: N2_11  and  C6_13 
REMARK    4  A    between atoms: C6_13  and  C9_16 
REMARK    5  A    between atoms: C9_16  and  C10_17 
REMARK       I    between atoms: C10_17  and  N3_19 
REMARK    6  A    between atoms: N5_25  and  C14_27 
REMARK    7  A    between atoms: C14_27  and  C16_29 
ROOT
HETATM    1  C1  UNL     1      18.027  80.733  -1.570  1.00  0.00     0.057 C 
HETATM    2  C2  UNL     1      17.988  80.898  -0.075  1.00  0.00    -0.012 A 
HETATM    3  S1  UNL     1      17.008  80.089   1.048  1.00  0.00    -0.076 SA
HETATM    4  C3  UNL     1      17.566  80.830   2.481  1.00  0.00     0.092 A 
HETATM    5  N1  UNL     1      17.222  80.670   3.798  1.00  0.00    -0.315 N 
ATOM      6  H1  UNL     1      16.501  79.998   4.060  1.00  0.00     0.170 HD
HETATM    7  C4  UNL     1      17.839  81.402   4.747  1.00  0.00     0.235 A 
HETATM    8  N4  UNL     1      18.764  82.254   4.342  1.00  0.00    -0.307 N 
ATOM      9  H4  UNL     1      19.230  82.807   5.060  1.00  0.00     0.171 HD
HETATM   10  C13 UNL     1      19.147  82.457   3.067  1.00  0.00     0.118 A 
HETATM   11  N5  UNL     1      20.042  83.293   2.763  1.00  0.00    -0.362 N 
ATOM     12  H5  UNL     1      20.252  83.365   1.768  1.00  0.00     0.161 HD
HETATM   13  C17 UNL     1      18.523  81.707   2.044  1.00  0.00     0.049 A 
HETATM   14  C18 UNL     1      18.738  81.737   0.703  1.00  0.00    -0.032 A 
HETATM   15  C19 UNL     1      19.761  82.649   0.039  1.00  0.00     0.050 C 
ENDROOT
BRANCH   7  16
HETATM   16  O1  UNL     1      17.472  81.221   6.074  1.00  0.00    -0.228 OA
BRANCH  16  17
HETATM   17  C5  UNL     1      17.769  82.133   7.059  1.00  0.00     0.368 C 
HETATM   18  O2  UNL     1      17.908  81.692   8.231  1.00  0.00    -0.238 OA
HETATM   19  N2  UNL     1      17.926  83.527   6.820  1.00  0.00    -0.328 N 
ATOM     20  H2  UNL     1      17.816  83.892   5.874  1.00  0.00     0.165 HD
BRANCH  19  21
HETATM   21  C6  UNL     1      18.239  84.429   7.896  1.00  0.00     0.036 C 
HETATM   22  C7  UNL     1      18.320  85.825   7.352  1.00  0.00     0.038 C 
HETATM   23  C8  UNL     1      17.121  84.318   8.903  1.00  0.00     0.038 C 
BRANCH  21  24
HETATM   24  C9  UNL     1      19.573  84.086   8.527  1.00  0.00     0.133 C 
BRANCH  24  25
HETATM   25  C10 UNL     1      20.650  84.225   7.531  1.00  0.00     0.221 C 
HETATM   26  O3  UNL     1      20.495  83.817   6.368  1.00  0.00    -0.273 OA
HETATM   27  N3  UNL     1      21.869  84.832   7.909  1.00  0.00    -0.361 N 
HETATM   28  C11 UNL     1      22.075  85.323   9.280  1.00  0.00     0.152 C 
HETATM   29  C12 UNL     1      22.925  84.974   6.955  1.00  0.00     0.152 C 
ENDBRANCH  24  25
ENDBRANCH  21  24
ENDBRANCH  19  21
ENDBRANCH  16  17
ENDBRANCH   7  16
BRANCH  11  30
HETATM   30  C14 UNL     1      20.795  84.144   3.601  1.00  0.00     0.186 C 
HETATM   31  C15 UNL     1      20.288  85.563   3.681  1.00  0.00     0.041 C 
BRANCH  30  32
HETATM   32  C16 UNL     1      22.238  84.202   3.162  1.00  0.00     0.407 C 
HETATM   33  F1  UNL     1      22.390  84.176   1.800  1.00  0.00    -0.169 F 
HETATM   34  F2  UNL     1      22.954  83.142   3.690  1.00  0.00    -0.169 F 
HETATM   35  F3  UNL     1      22.866  85.359   3.601  1.00  0.00    -0.169 F 
ENDBRANCH  30  32
ENDBRANCH  11  30
TORSDOF 7
ENDMDL
