MODEL 1
REMARK VINA RESULT: -7.467592169      0.000      0.000
REMARK  8 active torsions:
REMARK  status: ('A' for Active; 'I' for Inactive)
REMARK    1  A    between atoms: C2_2  and  C3_4 
REMARK    2  A    between atoms: C12_13  and  O1_14 
REMARK    3  A    between atoms: C13_16  and  O2_17 
REMARK    4  A    between atoms: O2_17  and  C14_18 
REMARK    5  A    between atoms: C17_22  and  C18_23 
REMARK    6  A    between atoms: C18_23  and  N1_24 
REMARK    7  A    between atoms: N1_24  and  C19_27 
REMARK    8  A    between atoms: C19_27  and  C20_28 
ROOT
HETATM    1  C3  UNL     1      18.334  82.623  -0.438  1.00  0.00     0.038 C 
HETATM    2  C4  UNL     1      17.138  83.574  -0.250  1.00  0.00     0.011 C 
HETATM    3  C5  UNL     1      17.212  83.752   1.253  1.00  0.00     0.007 C 
HETATM    4  C6  UNL     1      17.468  82.326   1.720  1.00  0.00     0.003 C 
HETATM    5  C7  UNL     1      18.009  81.563   0.546  1.00  0.00    -0.031 C 
HETATM    6  C8  UNL     1      16.968  80.640  -0.051  1.00  0.00     0.016 C 
HETATM    7  C9  UNL     1      19.238  80.776   0.912  1.00  0.00     0.011 C 
HETATM    8  C10 UNL     1      20.220  81.605   1.635  1.00  0.00     0.009 C 
HETATM    9  C11 UNL     1      19.660  82.001   2.988  1.00  0.00     0.026 C 
HETATM   10  C12 UNL     1      20.491  83.137   3.447  1.00  0.00     0.156 C 
HETATM   11  C13 UNL     1      20.119  83.553   4.857  1.00  0.00     0.190 C 
HETATM   12  C16 UNL     1      18.700  83.334   5.106  1.00  0.00    -0.050 C 
HETATM   13  C17 UNL     1      18.170  83.093   6.283  1.00  0.00     0.006 C 
HETATM   14  C21 UNL     1      17.784  83.358   3.907  1.00  0.00     0.046 C 
HETATM   15  C22 UNL     1      18.176  82.178   2.993  1.00  0.00    -0.030 C 
HETATM   16  C23 UNL     1      17.579  80.975   3.734  1.00  0.00     0.016 C 
ENDROOT
BRANCH  11  17
HETATM   17  O2  UNL     1      20.548  84.882   5.091  1.00  0.00    -0.309 OA
BRANCH  17  18
HETATM   18  C14 UNL     1      21.717  85.242   5.658  1.00  0.00     0.255 C 
HETATM   19  C15 UNL     1      22.865  85.710   4.833  1.00  0.00     0.126 C 
HETATM   20  O3  UNL     1      21.861  85.190   6.886  1.00  0.00    -0.266 OA
ENDBRANCH  17  18
ENDBRANCH  11  17
BRANCH  13  21
HETATM   21  C18 UNL     1      18.868  82.992   7.572  1.00  0.00     0.260 C 
BRANCH  21  22
HETATM   22  N1  UNL     1      19.169  84.354   8.005  1.00  0.00    -0.064 N 
ATOM     23  H12 UNL     1      19.778  84.372   8.824  1.00  0.00     0.277 HD
ATOM     24  H11 UNL     1      19.785  84.838   7.352  1.00  0.00     0.277 HD
BRANCH  22  25
HETATM   25  C19 UNL     1      17.917  85.088   8.232  1.00  0.00     0.349 C 
BRANCH  25  26
HETATM   26  C20 UNL     1      18.072  86.417   7.507  1.00  0.00     0.411 C 
HETATM   27  F1  UNL     1      17.333  87.415   8.108  1.00  0.00    -0.169 F 
HETATM   28  F2  UNL     1      19.437  86.699   7.527  1.00  0.00    -0.169 F 
HETATM   29  F3  UNL     1      17.705  86.212   6.197  1.00  0.00    -0.169 F 
ENDBRANCH  25  26
ENDBRANCH  22  25
ENDBRANCH  21  22
ENDBRANCH  13  21
BRANCH  10  30
HETATM   30  O1  UNL     1      20.660  84.191   2.587  1.00  0.00    -0.392 OA
ATOM     31  H1  UNL     1      20.665  85.066   2.956  1.00  0.00     0.210 HD
ENDBRANCH  10  30
BRANCH   1  32
HETATM   32  C2  UNL     1      18.523  82.244  -1.824  1.00  0.00     0.007 C 
HETATM   33  C1  UNL     1      17.699  82.711  -2.747  1.00  0.00     0.032 C 
HETATM   34 CL1  UNL     1      19.783  81.175  -2.424  1.00  0.00    -0.089 Cl
ENDBRANCH   1  32
TORSDOF 8
ENDMDL
MODEL 2
REMARK VINA RESULT: -7.238431741      4.446      7.543
REMARK  8 active torsions:
REMARK  status: ('A' for Active; 'I' for Inactive)
REMARK    1  A    between atoms: C2_2  and  C3_4 
REMARK    2  A    between atoms: C12_13  and  O1_14 
REMARK    3  A    between atoms: C13_16  and  O2_17 
REMARK    4  A    between atoms: O2_17  and  C14_18 
REMARK    5  A    between atoms: C17_22  and  C18_23 
REMARK    6  A    between atoms: C18_23  and  N1_24 
REMARK    7  A    between atoms: N1_24  and  C19_27 
REMARK    8  A    between atoms: C19_27  and  C20_28 
ROOT
HETATM    1  C3  UNL     1      19.548  83.703   6.960  1.00  0.00     0.038 C 
HETATM    2  C4  UNL     1      18.399  82.690   7.117  1.00  0.00     0.011 C 
HETATM    3  C5  UNL     1      18.085  82.462   5.651  1.00  0.00     0.007 C 
HETATM    4  C6  UNL     1      18.130  83.881   5.102  1.00  0.00     0.003 C 
HETATM    5  C7  UNL     1      18.918  84.710   6.074  1.00  0.00    -0.031 C 
HETATM    6  C8  UNL     1      18.021  85.604   6.905  1.00  0.00     0.016 C 
HETATM    7  C9  UNL     1      19.962  85.541   5.379  1.00  0.00     0.011 C 
HETATM    8  C10 UNL     1      20.763  84.735   4.440  1.00  0.00     0.009 C 
HETATM    9  C11 UNL     1      19.890  84.264   3.293  1.00  0.00     0.026 C 
HETATM   10  C12 UNL     1      20.633  83.153   2.655  1.00  0.00     0.156 C 
HETATM   11  C13 UNL     1      19.926  82.669   1.403  1.00  0.00     0.190 C 
HETATM   12  C16 UNL     1      18.482  82.811   1.534  1.00  0.00    -0.050 C 
HETATM   13  C17 UNL     1      17.648  82.985   0.534  1.00  0.00     0.006 C 
HETATM   14  C21 UNL     1      17.916  82.787   2.933  1.00  0.00     0.046 C 
HETATM   15  C22 UNL     1      18.469  84.016   3.684  1.00  0.00    -0.030 C 
HETATM   16  C23 UNL     1      17.633  85.163   3.101  1.00  0.00     0.016 C 
ENDROOT
BRANCH  11  17
HETATM   17  O2  UNL     1      20.352  81.354   1.094  1.00  0.00    -0.309 OA
BRANCH  17  18
HETATM   18  C14 UNL     1      21.220  81.018   0.119  1.00  0.00     0.255 C 
HETATM   19  C15 UNL     1      22.688  80.986   0.366  1.00  0.00     0.126 C 
HETATM   20  O3  UNL     1      20.810  80.728  -1.013  1.00  0.00    -0.266 OA
ENDBRANCH  17  18
ENDBRANCH  11  17
BRANCH  13  21
HETATM   21  C18 UNL     1      17.977  83.072  -0.896  1.00  0.00     0.260 C 
BRANCH  21  22
HETATM   22  N1  UNL     1      18.058  81.705  -1.402  1.00  0.00    -0.064 N 
ATOM     23  H12 UNL     1      18.564  81.651  -2.287  1.00  0.00     0.277 HD
ATOM     24  H11 UNL     1      18.681  81.123  -0.841  1.00  0.00     0.277 HD
BRANCH  22  25
HETATM   25  C19 UNL     1      16.709  81.133  -1.502  1.00  0.00     0.349 C 
BRANCH  25  26
HETATM   26  C20 UNL     1      16.734  79.850  -0.686  1.00  0.00     0.411 C 
HETATM   27  F1  UNL     1      16.384  78.754  -1.447  1.00  0.00    -0.169 F 
HETATM   28  F2  UNL     1      18.034  79.743  -0.192  1.00  0.00    -0.169 F 
HETATM   29  F3  UNL     1      15.892  80.032   0.387  1.00  0.00    -0.169 F 
ENDBRANCH  25  26
ENDBRANCH  22  25
ENDBRANCH  21  22
ENDBRANCH  13  21
BRANCH  10  30
HETATM   30  O1  UNL     1      21.080  82.140   3.463  1.00  0.00    -0.392 OA
ATOM     31  H1  UNL     1      22.007  81.934   3.440  1.00  0.00     0.210 HD
ENDBRANCH  10  30
BRANCH   1  32
HETATM   32  C2  UNL     1      20.074  84.140   8.238  1.00  0.00     0.007 C 
HETATM   33  C1  UNL     1      19.459  83.785   9.353  1.00  0.00     0.032 C 
HETATM   34 CL1  UNL     1      21.500  85.144   8.462  1.00  0.00    -0.089 Cl
ENDBRANCH   1  32
TORSDOF 8
ENDMDL
MODEL 3
REMARK VINA RESULT: -6.739776059      4.535      7.696
REMARK  8 active torsions:
REMARK  status: ('A' for Active; 'I' for Inactive)
REMARK    1  A    between atoms: C2_2  and  C3_4 
REMARK    2  A    between atoms: C12_13  and  O1_14 
REMARK    3  A    between atoms: C13_16  and  O2_17 
REMARK    4  A    between atoms: O2_17  and  C14_18 
REMARK    5  A    between atoms: C17_22  and  C18_23 
REMARK    6  A    between atoms: C18_23  and  N1_24 
REMARK    7  A    between atoms: N1_24  and  C19_27 
REMARK    8  A    between atoms: C19_27  and  C20_28 
ROOT
HETATM    1  C3  UNL     1      19.445  83.650   6.980  1.00  0.00     0.038 C 
HETATM    2  C4  UNL     1      18.267  82.665   7.091  1.00  0.00     0.011 C 
HETATM    3  C5  UNL     1      17.985  82.467   5.614  1.00  0.00     0.007 C 
HETATM    4  C6  UNL     1      18.081  83.892   5.088  1.00  0.00     0.003 C 
HETATM    5  C7  UNL     1      18.864  84.686   6.093  1.00  0.00    -0.031 C 
HETATM    6  C8  UNL     1      17.969  85.591   6.914  1.00  0.00     0.016 C 
HETATM    7  C9  UNL     1      19.947  85.500   5.438  1.00  0.00     0.011 C 
HETATM    8  C10 UNL     1      20.752  84.686   4.508  1.00  0.00     0.009 C 
HETATM    9  C11 UNL     1      19.898  84.255   3.332  1.00  0.00     0.026 C 
HETATM   10  C12 UNL     1      20.629  83.134   2.697  1.00  0.00     0.156 C 
HETATM   11  C13 UNL     1      19.943  82.688   1.419  1.00  0.00     0.190 C 
HETATM   12  C16 UNL     1      18.501  82.866   1.515  1.00  0.00    -0.050 C 
HETATM   13  C17 UNL     1      17.698  83.076   0.496  1.00  0.00     0.006 C 
HETATM   14  C21 UNL     1      17.897  82.836   2.897  1.00  0.00     0.046 C 
HETATM   15  C22 UNL     1      18.461  84.039   3.682  1.00  0.00    -0.030 C 
HETATM   16  C23 UNL     1      17.671  85.215   3.095  1.00  0.00     0.016 C 
ENDROOT
BRANCH  11  17
HETATM   17  O2  UNL     1      20.343  81.367   1.101  1.00  0.00    -0.309 OA
BRANCH  17  18
HETATM   18  C14 UNL     1      21.149  81.015   0.080  1.00  0.00     0.255 C 
HETATM   19  C15 UNL     1      22.627  80.945   0.249  1.00  0.00     0.126 C 
HETATM   20  O3  UNL     1      20.673  80.740  -1.030  1.00  0.00    -0.266 OA
ENDBRANCH  17  18
ENDBRANCH  11  17
BRANCH  13  21
HETATM   21  C18 UNL     1      18.066  83.176  -0.924  1.00  0.00     0.260 C 
BRANCH  21  22
HETATM   22  N1  UNL     1      16.930  83.773  -1.620  1.00  0.00    -0.064 N 
ATOM     23  H12 UNL     1      16.270  84.210  -0.976  1.00  0.00     0.277 HD
ATOM     24  H11 UNL     1      17.197  84.607  -2.146  1.00  0.00     0.277 HD
BRANCH  22  25
HETATM   25  C19 UNL     1      16.286  82.765  -2.472  1.00  0.00     0.349 C 
BRANCH  25  26
HETATM   26  C20 UNL     1      14.951  83.361  -2.891  1.00  0.00     0.411 C 
HETATM   27  F1  UNL     1      14.027  82.381  -3.190  1.00  0.00    -0.169 F 
HETATM   28  F2  UNL     1      14.539  84.153  -1.821  1.00  0.00    -0.169 F 
HETATM   29  F3  UNL     1      15.193  84.193  -3.960  1.00  0.00    -0.169 F 
ENDBRANCH  25  26
ENDBRANCH  22  25
ENDBRANCH  21  22
ENDBRANCH  13  21
BRANCH  10  30
HETATM   30  O1  UNL     1      21.028  82.099   3.500  1.00  0.00    -0.392 OA
ATOM     31  H1  UNL     1      21.189  82.288   4.417  1.00  0.00     0.210 HD
ENDBRANCH  10  30
BRANCH   1  32
HETATM   32  C2  UNL     1      19.948  84.054   8.278  1.00  0.00     0.007 C 
HETATM   33  C1  UNL     1      19.246  83.780   9.364  1.00  0.00     0.032 C 
HETATM   34 CL1  UNL     1      21.453  84.916   8.562  1.00  0.00    -0.089 Cl
ENDBRANCH   1  32
TORSDOF 8
ENDMDL
MODEL 4
REMARK VINA RESULT: -6.661656155      4.587      7.835
REMARK  8 active torsions:
REMARK  status: ('A' for Active; 'I' for Inactive)
REMARK    1  A    between atoms: C2_2  and  C3_4 
REMARK    2  A    between atoms: C12_13  and  O1_14 
REMARK    3  A    between atoms: C13_16  and  O2_17 
REMARK    4  A    between atoms: O2_17  and  C14_18 
REMARK    5  A    between atoms: C17_22  and  C18_23 
REMARK    6  A    between atoms: C18_23  and  N1_24 
REMARK    7  A    between atoms: N1_24  and  C19_27 
REMARK    8  A    between atoms: C19_27  and  C20_28 
ROOT
HETATM    1  C3  UNL     1      19.706  83.686   6.861  1.00  0.00     0.038 C 
HETATM    2  C4  UNL     1      18.353  83.017   7.166  1.00  0.00     0.011 C 
HETATM    3  C5  UNL     1      17.853  82.838   5.746  1.00  0.00     0.007 C 
HETATM    4  C6  UNL     1      18.213  84.178   5.121  1.00  0.00     0.003 C 
HETATM    5  C7  UNL     1      19.278  84.798   5.978  1.00  0.00    -0.031 C 
HETATM    6  C8  UNL     1      18.726  85.920   6.832  1.00  0.00     0.016 C 
HETATM    7  C9  UNL     1      20.431  85.304   5.155  1.00  0.00     0.011 C 
HETATM    8  C10 UNL     1      20.903  84.287   4.197  1.00  0.00     0.009 C 
HETATM    9  C11 UNL     1      19.833  84.030   3.153  1.00  0.00     0.026 C 
HETATM   10  C12 UNL     1      20.198  82.744   2.516  1.00  0.00     0.156 C 
HETATM   11  C13 UNL     1      19.275  82.427   1.355  1.00  0.00     0.190 C 
HETATM   12  C16 UNL     1      17.937  82.948   1.598  1.00  0.00    -0.050 C 
HETATM   13  C17 UNL     1      17.086  83.306   0.663  1.00  0.00     0.006 C 
HETATM   14  C21 UNL     1      17.518  83.115   3.038  1.00  0.00     0.046 C 
HETATM   15  C22 UNL     1      18.440  84.177   3.674  1.00  0.00    -0.030 C 
HETATM   16  C23 UNL     1      17.879  85.485   3.103  1.00  0.00     0.016 C 
ENDROOT
BRANCH  11  17
HETATM   17  O2  UNL     1      19.313  81.038   1.081  1.00  0.00    -0.309 OA
BRANCH  17  18
HETATM   18  C14 UNL     1      18.246  80.263   0.802  1.00  0.00     0.255 C 
HETATM   19  C15 UNL     1      17.372  79.730   1.884  1.00  0.00     0.126 C 
HETATM   20  O3  UNL     1      17.969  79.975  -0.370  1.00  0.00    -0.266 OA
ENDBRANCH  17  18
ENDBRANCH  11  17
BRANCH  13  21
HETATM   21  C18 UNL     1      17.289  83.262  -0.792  1.00  0.00     0.260 C 
BRANCH  21  22
HETATM   22  N1  UNL     1      16.224  82.432  -1.349  1.00  0.00    -0.064 N 
ATOM     23  H12 UNL     1      16.360  81.442  -1.141  1.00  0.00     0.277 HD
ATOM     24  H11 UNL     1      15.338  82.565  -0.861  1.00  0.00     0.277 HD
BRANCH  22  25
HETATM   25  C19 UNL     1      16.105  82.682  -2.791  1.00  0.00     0.349 C 
BRANCH  25  26
HETATM   26  C20 UNL     1      14.765  83.375  -2.988  1.00  0.00     0.411 C 
HETATM   27  F1  UNL     1      14.394  84.094  -1.871  1.00  0.00    -0.169 F 
HETATM   28  F2  UNL     1      14.926  84.196  -4.103  1.00  0.00    -0.169 F 
HETATM   29  F3  UNL     1      13.847  82.403  -3.312  1.00  0.00    -0.169 F 
ENDBRANCH  25  26
ENDBRANCH  22  25
ENDBRANCH  21  22
ENDBRANCH  13  21
BRANCH  10  30
HETATM   30  O1  UNL     1      20.441  81.673   3.336  1.00  0.00    -0.392 OA
ATOM     31  H1  UNL     1      20.515  81.839   4.268  1.00  0.00     0.210 HD
ENDBRANCH  10  30
BRANCH   1  32
HETATM   32  C2  UNL     1      20.445  84.007   8.065  1.00  0.00     0.007 C 
HETATM   33  C1  UNL     1      19.944  83.681   9.245  1.00  0.00     0.032 C 
HETATM   34 CL1  UNL     1      21.999  84.827   8.117  1.00  0.00    -0.089 Cl
ENDBRANCH   1  32
TORSDOF 8
ENDMDL
MODEL 5
REMARK VINA RESULT: -6.632426803      4.521      7.651
REMARK  8 active torsions:
REMARK  status: ('A' for Active; 'I' for Inactive)
REMARK    1  A    between atoms: C2_2  and  C3_4 
REMARK    2  A    between atoms: C12_13  and  O1_14 
REMARK    3  A    between atoms: C13_16  and  O2_17 
REMARK    4  A    between atoms: O2_17  and  C14_18 
REMARK    5  A    between atoms: C17_22  and  C18_23 
REMARK    6  A    between atoms: C18_23  and  N1_24 
REMARK    7  A    between atoms: N1_24  and  C19_27 
REMARK    8  A    between atoms: C19_27  and  C20_28 
ROOT
HETATM    1  C3  UNL     1      19.453  83.616   6.892  1.00  0.00     0.038 C 
HETATM    2  C4  UNL     1      18.284  82.621   7.000  1.00  0.00     0.011 C 
HETATM    3  C5  UNL     1      18.007  82.420   5.523  1.00  0.00     0.007 C 
HETATM    4  C6  UNL     1      18.092  83.846   4.997  1.00  0.00     0.003 C 
HETATM    5  C7  UNL     1      18.865  84.647   6.003  1.00  0.00    -0.031 C 
HETATM    6  C8  UNL     1      17.960  85.543   6.822  1.00  0.00     0.016 C 
HETATM    7  C9  UNL     1      19.942  85.470   5.350  1.00  0.00     0.011 C 
HETATM    8  C10 UNL     1      20.756  84.664   4.422  1.00  0.00     0.009 C 
HETATM    9  C11 UNL     1      19.908  84.225   3.244  1.00  0.00     0.026 C 
HETATM   10  C12 UNL     1      20.651  83.111   2.611  1.00  0.00     0.156 C 
HETATM   11  C13 UNL     1      19.972  82.658   1.332  1.00  0.00     0.190 C 
HETATM   12  C16 UNL     1      18.527  82.823   1.424  1.00  0.00    -0.050 C 
HETATM   13  C17 UNL     1      17.725  83.025   0.404  1.00  0.00     0.006 C 
HETATM   14  C21 UNL     1      17.921  82.788   2.806  1.00  0.00     0.046 C 
HETATM   15  C22 UNL     1      18.473  83.996   3.591  1.00  0.00    -0.030 C 
HETATM   16  C23 UNL     1      17.673  85.165   3.002  1.00  0.00     0.016 C 
ENDROOT
BRANCH  11  17
HETATM   17  O2  UNL     1      20.384  81.340   1.015  1.00  0.00    -0.309 OA
BRANCH  17  18
HETATM   18  C14 UNL     1      21.213  80.998   0.009  1.00  0.00     0.255 C 
HETATM   19  C15 UNL     1      22.682  80.883   0.221  1.00  0.00     0.126 C 
HETATM   20  O3  UNL     1      20.765  80.770  -1.123  1.00  0.00    -0.266 OA
ENDBRANCH  17  18
ENDBRANCH  11  17
BRANCH  13  21
HETATM   21  C18 UNL     1      18.095  83.128  -1.015  1.00  0.00     0.260 C 
BRANCH  21  22
HETATM   22  N1  UNL     1      17.110  83.997  -1.653  1.00  0.00    -0.064 N 
ATOM     23  H12 UNL     1      16.165  83.823  -1.311  1.00  0.00     0.277 HD
ATOM     24  H11 UNL     1      17.201  84.967  -1.352  1.00  0.00     0.277 HD
BRANCH  22  25
HETATM   25  C19 UNL     1      17.203  83.861  -3.113  1.00  0.00     0.349 C 
BRANCH  25  26
HETATM   26  C20 UNL     1      17.845  85.145  -3.615  1.00  0.00     0.411 C 
HETATM   27  F1  UNL     1      17.897  86.109  -2.630  1.00  0.00    -0.169 F 
HETATM   28  F2  UNL     1      19.119  84.783  -4.052  1.00  0.00    -0.169 F 
HETATM   29  F3  UNL     1      17.126  85.558  -4.713  1.00  0.00    -0.169 F 
ENDBRANCH  25  26
ENDBRANCH  22  25
ENDBRANCH  21  22
ENDBRANCH  13  21
BRANCH  10  30
HETATM   30  O1  UNL     1      21.057  82.079   3.415  1.00  0.00    -0.392 OA
ATOM     31  H1  UNL     1      20.681  82.022   4.285  1.00  0.00     0.210 HD
ENDBRANCH  10  30
BRANCH   1  32
HETATM   32  C2  UNL     1      19.950  84.025   8.190  1.00  0.00     0.007 C 
HETATM   33  C1  UNL     1      19.288  83.678   9.281  1.00  0.00     0.032 C 
HETATM   34 CL1  UNL     1      21.396  84.983   8.471  1.00  0.00    -0.089 Cl
ENDBRANCH   1  32
TORSDOF 8
ENDMDL
