MODEL 1
REMARK VINA RESULT: -8.974728992      0.000      0.000
REMARK  10 active torsions:
REMARK  status: ('A' for Active; 'I' for Inactive)
REMARK    1  A    between atoms: S1_2  and  N1_4 
REMARK    2  A    between atoms: S1_2  and  C4_12 
REMARK    3  A    between atoms: N1_4  and  C1_6 
REMARK    4  A    between atoms: C7_15  and  C8_16 
REMARK    5  A    between atoms: C9_17  and  C10_18 
REMARK    6  A    between atoms: C10_18  and  C11_19 
REMARK    7  A    between atoms: C11_19  and  C12_20 
REMARK    8  A    between atoms: C12_20  and  N3_21 
REMARK    9  A    between atoms: C13_22  and  O3_23 
REMARK   10  A    between atoms: C16_27  and  C17_28 
ROOT
HETATM    1  C4  UNL     1      17.796  81.623   1.278  1.00  0.00     0.080 A 
HETATM    2  C5  UNL     1      17.808  82.941   1.708  1.00  0.00     0.027 A 
HETATM    3  C6  UNL     1      17.887  83.254   3.061  1.00  0.00     0.022 A 
HETATM    4  C7  UNL     1      17.963  82.274   4.019  1.00  0.00     0.017 A 
HETATM    5  C18 UNL     1      17.944  80.982   3.566  1.00  0.00     0.022 A 
HETATM    6  C19 UNL     1      17.861  80.656   2.233  1.00  0.00     0.027 A 
ENDROOT
BRANCH   4   7
HETATM    7  C8  UNL     1      18.085  82.620   5.411  1.00  0.00    -0.067 C 
HETATM    8  C9  UNL     1      18.227  82.826   6.617  1.00  0.00    -0.101 C 
BRANCH   8   9
HETATM    9  C10 UNL     1      18.483  82.981   8.038  1.00  0.00     0.096 C 
BRANCH   9  10
HETATM   10  C11 UNL     1      19.669  83.731   8.441  1.00  0.00     0.032 C 
BRANCH  10  11
HETATM   11  C12 UNL     1      19.949  85.080   7.924  1.00  0.00     0.132 C 
BRANCH  11  12
HETATM   12  N3  UNL     1      21.288  85.133   7.287  1.00  0.00    -0.324 N 
HETATM   13  C13 UNL     1      22.425  85.053   7.993  1.00  0.00     0.142 A 
HETATM   14  C14 UNL     1      23.499  85.001   7.124  1.00  0.00     0.058 A 
HETATM   15  C15 UNL     1      22.988  85.059   5.874  1.00  0.00     0.039 A 
HETATM   16  C16 UNL     1      21.589  85.140   5.987  1.00  0.00     0.120 A 
BRANCH  13  17
HETATM   17  O3  UNL     1      22.554  85.019   9.373  1.00  0.00    -0.346 OA
ATOM     18  H3  UNL     1      23.187  84.521   9.878  1.00  0.00     0.219 HD
ENDBRANCH  13  17
BRANCH  16  19
HETATM   19  C17 UNL     1      20.696  85.216   4.822  1.00  0.00     0.432 C 
HETATM   20  F1  UNL     1      21.207  86.195   3.934  1.00  0.00    -0.165 F 
HETATM   21  F2  UNL     1      19.412  85.588   5.067  1.00  0.00    -0.165 F 
HETATM   22  F3  UNL     1      20.719  84.086   4.017  1.00  0.00    -0.165 F 
ENDBRANCH  16  19
ENDBRANCH  11  12
ENDBRANCH  10  11
ENDBRANCH   9  10
ENDBRANCH   8   9
ENDBRANCH   4   7
BRANCH   1  23
HETATM   23  S1  UNL     1      17.578  81.207  -0.395  1.00  0.00     0.264 S 
HETATM   24  O1  UNL     1      18.892  80.817  -1.025  1.00  0.00    -0.200 OA
HETATM   25  O2  UNL     1      17.159  82.489  -1.144  1.00  0.00    -0.200 OA
BRANCH  23  26
HETATM   26  N1  UNL     1      16.331  80.097  -0.558  1.00  0.00    -0.260 N 
ATOM     27  H1  UNL     1      15.370  80.433  -0.514  1.00  0.00     0.181 HD
BRANCH  26  28
HETATM   28  C1  UNL     1      16.545  78.806  -0.742  1.00  0.00     0.158 A 
HETATM   29  N2  UNL     1      16.601  78.180  -1.933  1.00  0.00    -0.345 N 
HETATM   30  C2  UNL     1      16.827  76.900  -1.968  1.00  0.00     0.097 A 
ATOM     31  H2  UNL     1      16.469  78.705  -2.797  1.00  0.00     0.167 HD
HETATM   32  C3  UNL     1      16.999  76.254  -0.741  1.00  0.00     0.070 A 
HETATM   33  S2  UNL     1      16.824  77.541   0.353  1.00  0.00    -0.064 SA
ENDBRANCH  26  28
ENDBRANCH  23  26
ENDBRANCH   1  23
TORSDOF 10
ENDMDL
MODEL 2
REMARK VINA RESULT: -8.853961307      1.304      1.551
REMARK  10 active torsions:
REMARK  status: ('A' for Active; 'I' for Inactive)
REMARK    1  A    between atoms: S1_2  and  N1_4 
REMARK    2  A    between atoms: S1_2  and  C4_12 
REMARK    3  A    between atoms: N1_4  and  C1_6 
REMARK    4  A    between atoms: C7_15  and  C8_16 
REMARK    5  A    between atoms: C9_17  and  C10_18 
REMARK    6  A    between atoms: C10_18  and  C11_19 
REMARK    7  A    between atoms: C11_19  and  C12_20 
REMARK    8  A    between atoms: C12_20  and  N3_21 
REMARK    9  A    between atoms: C13_22  and  O3_23 
REMARK   10  A    between atoms: C16_27  and  C17_28 
ROOT
HETATM    1  C4  UNL     1      17.876  81.607   1.396  1.00  0.00     0.080 A 
HETATM    2  C5  UNL     1      17.879  82.912   1.863  1.00  0.00     0.027 A 
HETATM    3  C6  UNL     1      17.895  83.187   3.226  1.00  0.00     0.022 A 
HETATM    4  C7  UNL     1      17.916  82.180   4.159  1.00  0.00     0.017 A 
HETATM    5  C18 UNL     1      17.908  80.901   3.669  1.00  0.00     0.022 A 
HETATM    6  C19 UNL     1      17.887  80.613   2.325  1.00  0.00     0.027 A 
ENDROOT
BRANCH   4   7
HETATM    7  C8  UNL     1      17.973  82.487   5.564  1.00  0.00    -0.067 C 
HETATM    8  C9  UNL     1      18.120  82.734   6.762  1.00  0.00    -0.101 C 
BRANCH   8   9
HETATM    9  C10 UNL     1      18.411  83.051   8.149  1.00  0.00     0.096 C 
BRANCH   9  10
HETATM   10  C11 UNL     1      19.706  83.651   8.455  1.00  0.00     0.032 C 
BRANCH  10  11
HETATM   11  C12 UNL     1      20.030  85.037   8.083  1.00  0.00     0.132 C 
BRANCH  11  12
HETATM   12  N3  UNL     1      21.332  85.103   7.377  1.00  0.00    -0.324 N 
HETATM   13  C13 UNL     1      22.507  85.044   8.022  1.00  0.00     0.142 A 
HETATM   14  C14 UNL     1      23.533  85.000   7.098  1.00  0.00     0.058 A 
HETATM   15  C15 UNL     1      22.957  85.043   5.877  1.00  0.00     0.039 A 
HETATM   16  C16 UNL     1      21.564  85.106   6.063  1.00  0.00     0.120 A 
BRANCH  13  17
HETATM   17  O3  UNL     1      22.708  85.021   9.393  1.00  0.00    -0.346 OA
ATOM     18  H3  UNL     1      23.456  84.661   9.858  1.00  0.00     0.219 HD
ENDBRANCH  13  17
BRANCH  16  19
HETATM   19  C17 UNL     1      20.611  85.162   4.946  1.00  0.00     0.432 C 
HETATM   20  F1  UNL     1      21.018  86.195   4.066  1.00  0.00    -0.165 F 
HETATM   21  F2  UNL     1      19.321  85.450   5.265  1.00  0.00    -0.165 F 
HETATM   22  F3  UNL     1      20.659  84.059   4.105  1.00  0.00    -0.165 F 
ENDBRANCH  16  19
ENDBRANCH  11  12
ENDBRANCH  10  11
ENDBRANCH   9  10
ENDBRANCH   8   9
ENDBRANCH   4   7
BRANCH   1  23
HETATM   23  S1  UNL     1      17.736  81.239  -0.296  1.00  0.00     0.264 S 
HETATM   24  O1  UNL     1      19.061  80.786  -0.858  1.00  0.00    -0.200 OA
HETATM   25  O2  UNL     1      17.436  82.558  -1.038  1.00  0.00    -0.200 OA
BRANCH  23  26
HETATM   26  N1  UNL     1      16.441  80.207  -0.560  1.00  0.00    -0.260 N 
ATOM     27  H1  UNL     1      16.050  79.700   0.234  1.00  0.00     0.181 HD
BRANCH  26  28
HETATM   28  C1  UNL     1      15.906  80.023  -1.755  1.00  0.00     0.158 A 
HETATM   29  N2  UNL     1      14.883  80.726  -2.275  1.00  0.00    -0.345 N 
HETATM   30  C2  UNL     1      14.459  80.442  -3.471  1.00  0.00     0.097 A 
ATOM     31  H2  UNL     1      14.445  81.473  -1.736  1.00  0.00     0.167 HD
HETATM   32  C3  UNL     1      15.113  79.407  -4.145  1.00  0.00     0.070 A 
HETATM   33  S2  UNL     1      16.277  78.935  -3.002  1.00  0.00    -0.064 SA
ENDBRANCH  26  28
ENDBRANCH  23  26
ENDBRANCH   1  23
TORSDOF 10
ENDMDL
MODEL 3
REMARK VINA RESULT: -8.832920140      1.512      1.984
REMARK  10 active torsions:
REMARK  status: ('A' for Active; 'I' for Inactive)
REMARK    1  A    between atoms: S1_2  and  N1_4 
REMARK    2  A    between atoms: S1_2  and  C4_12 
REMARK    3  A    between atoms: N1_4  and  C1_6 
REMARK    4  A    between atoms: C7_15  and  C8_16 
REMARK    5  A    between atoms: C9_17  and  C10_18 
REMARK    6  A    between atoms: C10_18  and  C11_19 
REMARK    7  A    between atoms: C11_19  and  C12_20 
REMARK    8  A    between atoms: C12_20  and  N3_21 
REMARK    9  A    between atoms: C13_22  and  O3_23 
REMARK   10  A    between atoms: C16_27  and  C17_28 
ROOT
HETATM    1  C4  UNL     1      17.428  80.741   1.287  1.00  0.00     0.080 A 
HETATM    2  C5  UNL     1      17.271  79.991   2.442  1.00  0.00     0.027 A 
HETATM    3  C6  UNL     1      17.474  80.556   3.698  1.00  0.00     0.022 A 
HETATM    4  C7  UNL     1      17.828  81.874   3.841  1.00  0.00     0.017 A 
HETATM    5  C18 UNL     1      17.981  82.589   2.683  1.00  0.00     0.022 A 
HETATM    6  C19 UNL     1      17.791  82.044   1.435  1.00  0.00     0.027 A 
ENDROOT
BRANCH   4   7
HETATM    7  C8  UNL     1      17.994  82.448   5.151  1.00  0.00    -0.067 C 
HETATM    8  C9  UNL     1      18.117  82.848   6.309  1.00  0.00    -0.101 C 
BRANCH   8   9
HETATM    9  C10 UNL     1      18.287  83.204   7.707  1.00  0.00     0.096 C 
BRANCH   9  10
HETATM   10  C11 UNL     1      19.589  83.710   8.129  1.00  0.00     0.032 C 
BRANCH  10  11
HETATM   11  C12 UNL     1      20.010  85.094   7.861  1.00  0.00     0.132 C 
BRANCH  11  12
HETATM   12  N3  UNL     1      21.302  85.121   7.133  1.00  0.00    -0.324 N 
HETATM   13  C13 UNL     1      22.485  85.018   7.757  1.00  0.00     0.142 A 
HETATM   14  C14 UNL     1      23.493  84.945   6.815  1.00  0.00     0.058 A 
HETATM   15  C15 UNL     1      22.897  85.014   5.604  1.00  0.00     0.039 A 
HETATM   16  C16 UNL     1      21.511  85.124   5.814  1.00  0.00     0.120 A 
BRANCH  13  17
HETATM   17  O3  UNL     1      22.709  84.980   9.124  1.00  0.00    -0.346 OA
ATOM     18  H3  UNL     1      23.428  84.553   9.577  1.00  0.00     0.219 HD
ENDBRANCH  13  17
BRANCH  16  19
HETATM   19  C17 UNL     1      20.541  85.219   4.715  1.00  0.00     0.432 C 
HETATM   20  F1  UNL     1      20.977  86.231   3.824  1.00  0.00    -0.165 F 
HETATM   21  F2  UNL     1      19.271  85.563   5.056  1.00  0.00    -0.165 F 
HETATM   22  F3  UNL     1      20.526  84.112   3.877  1.00  0.00    -0.165 F 
ENDBRANCH  16  19
ENDBRANCH  11  12
ENDBRANCH  10  11
ENDBRANCH   9  10
ENDBRANCH   8   9
ENDBRANCH   4   7
BRANCH   1  23
HETATM   23  S1  UNL     1      17.298  80.028  -0.292  1.00  0.00     0.264 S 
HETATM   24  O1  UNL     1      17.467  78.531  -0.219  1.00  0.00    -0.200 OA
HETATM   25  O2  UNL     1      18.505  80.511  -1.123  1.00  0.00    -0.200 OA
BRANCH  23  26
HETATM   26  N1  UNL     1      15.909  80.569  -1.060  1.00  0.00    -0.260 N 
ATOM     27  H1  UNL     1      15.338  81.276  -0.597  1.00  0.00     0.181 HD
BRANCH  26  28
HETATM   28  C1  UNL     1      15.523  80.117  -2.240  1.00  0.00     0.158 A 
HETATM   29  N2  UNL     1      16.001  79.019  -2.855  1.00  0.00    -0.345 N 
HETATM   30  C2  UNL     1      15.524  78.683  -4.018  1.00  0.00     0.097 A 
ATOM     31  H2  UNL     1      16.728  78.456  -2.414  1.00  0.00     0.167 HD
HETATM   32  C3  UNL     1      14.527  79.503  -4.553  1.00  0.00     0.070 A 
HETATM   33  S2  UNL     1      14.364  80.681  -3.342  1.00  0.00    -0.064 SA
ENDBRANCH  26  28
ENDBRANCH  23  26
ENDBRANCH   1  23
TORSDOF 10
ENDMDL
MODEL 4
REMARK VINA RESULT: -8.832243012      1.983      2.492
REMARK  10 active torsions:
REMARK  status: ('A' for Active; 'I' for Inactive)
REMARK    1  A    between atoms: S1_2  and  N1_4 
REMARK    2  A    between atoms: S1_2  and  C4_12 
REMARK    3  A    between atoms: N1_4  and  C1_6 
REMARK    4  A    between atoms: C7_15  and  C8_16 
REMARK    5  A    between atoms: C9_17  and  C10_18 
REMARK    6  A    between atoms: C10_18  and  C11_19 
REMARK    7  A    between atoms: C11_19  and  C12_20 
REMARK    8  A    between atoms: C12_20  and  N3_21 
REMARK    9  A    between atoms: C13_22  and  O3_23 
REMARK   10  A    between atoms: C16_27  and  C17_28 
ROOT
HETATM    1  C4  UNL     1      17.639  81.412   1.410  1.00  0.00     0.080 A 
HETATM    2  C5  UNL     1      17.464  80.379   2.318  1.00  0.00     0.027 A 
HETATM    3  C6  UNL     1      17.562  80.602   3.687  1.00  0.00     0.022 A 
HETATM    4  C7  UNL     1      17.827  81.851   4.191  1.00  0.00     0.017 A 
HETATM    5  C18 UNL     1      17.999  82.851   3.272  1.00  0.00     0.022 A 
HETATM    6  C19 UNL     1      17.912  82.645   1.916  1.00  0.00     0.027 A 
ENDROOT
BRANCH   4   7
HETATM    7  C8  UNL     1      17.884  82.068   5.614  1.00  0.00    -0.067 C 
HETATM    8  C9  UNL     1      17.876  82.335   6.816  1.00  0.00    -0.101 C 
BRANCH   8   9
HETATM    9  C10 UNL     1      17.763  82.712   8.214  1.00  0.00     0.096 C 
BRANCH   9  10
HETATM   10  C11 UNL     1      18.783  83.599   8.766  1.00  0.00     0.032 C 
BRANCH  10  11
HETATM   11  C12 UNL     1      18.937  84.988   8.308  1.00  0.00     0.132 C 
BRANCH  11  12
HETATM   12  N3  UNL     1      19.861  85.061   7.149  1.00  0.00    -0.324 N 
HETATM   13  C13 UNL     1      19.436  85.321   5.904  1.00  0.00     0.142 A 
HETATM   14  C14 UNL     1      20.528  85.450   5.067  1.00  0.00     0.058 A 
HETATM   15  C15 UNL     1      21.625  85.256   5.830  1.00  0.00     0.039 A 
HETATM   16  C16 UNL     1      21.194  85.012   7.146  1.00  0.00     0.120 A 
BRANCH  13  17
HETATM   17  O3  UNL     1      18.123  85.453   5.477  1.00  0.00    -0.346 OA
ATOM     18  H3  UNL     1      17.772  85.229   4.623  1.00  0.00     0.219 HD
ENDBRANCH  13  17
BRANCH  16  19
HETATM   19  C17 UNL     1      22.122  84.758   8.257  1.00  0.00     0.432 C 
HETATM   20  F1  UNL     1      23.445  84.931   7.780  1.00  0.00    -0.165 F 
HETATM   21  F2  UNL     1      22.095  83.510   8.795  1.00  0.00    -0.165 F 
HETATM   22  F3  UNL     1      22.073  85.712   9.264  1.00  0.00    -0.165 F 
ENDBRANCH  16  19
ENDBRANCH  11  12
ENDBRANCH  10  11
ENDBRANCH   9  10
ENDBRANCH   8   9
ENDBRANCH   4   7
BRANCH   1  23
HETATM   23  S1  UNL     1      17.640  81.135  -0.305  1.00  0.00     0.264 S 
HETATM   24  O1  UNL     1      19.019  80.751  -0.784  1.00  0.00    -0.200 OA
HETATM   25  O2  UNL     1      17.355  82.483  -0.997  1.00  0.00    -0.200 OA
BRANCH  23  26
HETATM   26  N1  UNL     1      16.404  80.082  -0.723  1.00  0.00    -0.260 N 
ATOM     27  H1  UNL     1      15.464  80.457  -0.848  1.00  0.00     0.181 HD
BRANCH  26  28
HETATM   28  C1  UNL     1      16.597  78.786  -0.898  1.00  0.00     0.158 A 
HETATM   29  N2  UNL     1      16.662  78.154  -2.084  1.00  0.00    -0.345 N 
HETATM   30  C2  UNL     1      16.866  76.870  -2.110  1.00  0.00     0.097 A 
ATOM     31  H2  UNL     1      16.554  78.677  -2.953  1.00  0.00     0.167 HD
HETATM   32  C3  UNL     1      17.007  76.227  -0.878  1.00  0.00     0.070 A 
HETATM   33  S2  UNL     1      16.836  77.522   0.207  1.00  0.00    -0.064 SA
ENDBRANCH  26  28
ENDBRANCH  23  26
ENDBRANCH   1  23
TORSDOF 10
ENDMDL
MODEL 5
REMARK VINA RESULT: -8.831667545      2.423      2.992
REMARK  10 active torsions:
REMARK  status: ('A' for Active; 'I' for Inactive)
REMARK    1  A    between atoms: S1_2  and  N1_4 
REMARK    2  A    between atoms: S1_2  and  C4_12 
REMARK    3  A    between atoms: N1_4  and  C1_6 
REMARK    4  A    between atoms: C7_15  and  C8_16 
REMARK    5  A    between atoms: C9_17  and  C10_18 
REMARK    6  A    between atoms: C10_18  and  C11_19 
REMARK    7  A    between atoms: C11_19  and  C12_20 
REMARK    8  A    between atoms: C12_20  and  N3_21 
REMARK    9  A    between atoms: C13_22  and  O3_23 
REMARK   10  A    between atoms: C16_27  and  C17_28 
ROOT
HETATM    1  C4  UNL     1      17.744  81.266   1.235  1.00  0.00     0.080 A 
HETATM    2  C5  UNL     1      17.431  80.251   2.126  1.00  0.00     0.027 A 
HETATM    3  C6  UNL     1      17.485  80.461   3.500  1.00  0.00     0.022 A 
HETATM    4  C7  UNL     1      17.841  81.678   4.024  1.00  0.00     0.017 A 
HETATM    5  C18 UNL     1      18.149  82.660   3.121  1.00  0.00     0.022 A 
HETATM    6  C19 UNL     1      18.106  82.466   1.760  1.00  0.00     0.027 A 
ENDROOT
BRANCH   4   7
HETATM    7  C8  UNL     1      17.852  81.885   5.449  1.00  0.00    -0.067 C 
HETATM    8  C9  UNL     1      17.816  82.151   6.652  1.00  0.00    -0.101 C 
BRANCH   8   9
HETATM    9  C10 UNL     1      17.681  82.540   8.044  1.00  0.00     0.096 C 
BRANCH   9  10
HETATM   10  C11 UNL     1      18.717  83.395   8.617  1.00  0.00     0.032 C 
BRANCH  10  11
HETATM   11  C12 UNL     1      18.855  84.810   8.240  1.00  0.00     0.132 C 
BRANCH  11  12
HETATM   12  N3  UNL     1      19.806  84.964   7.112  1.00  0.00    -0.324 N 
HETATM   13  C13 UNL     1      19.404  85.234   5.861  1.00  0.00     0.142 A 
HETATM   14  C14 UNL     1      20.511  85.445   5.062  1.00  0.00     0.058 A 
HETATM   15  C15 UNL     1      21.595  85.290   5.853  1.00  0.00     0.039 A 
HETATM   16  C16 UNL     1      21.140  84.987   7.149  1.00  0.00     0.120 A 
BRANCH  13  17
HETATM   17  O3  UNL     1      18.099  85.306   5.398  1.00  0.00    -0.346 OA
ATOM     18  H3  UNL     1      17.754  84.936   4.593  1.00  0.00     0.219 HD
ENDBRANCH  13  17
BRANCH  16  19
HETATM   19  C17 UNL     1      22.047  84.755   8.281  1.00  0.00     0.432 C 
HETATM   20  F1  UNL     1      23.376  84.959   7.834  1.00  0.00    -0.165 F 
HETATM   21  F2  UNL     1      22.037  83.506   8.818  1.00  0.00    -0.165 F 
HETATM   22  F3  UNL     1      21.953  85.707   9.287  1.00  0.00    -0.165 F 
ENDBRANCH  16  19
ENDBRANCH  11  12
ENDBRANCH  10  11
ENDBRANCH   9  10
ENDBRANCH   8   9
ENDBRANCH   4   7
BRANCH   1  23
HETATM   23  S1  UNL     1      17.799  80.993  -0.481  1.00  0.00     0.264 S 
HETATM   24  O1  UNL     1      19.224  80.830  -0.951  1.00  0.00    -0.200 OA
HETATM   25  O2  UNL     1      17.312  82.281  -1.175  1.00  0.00    -0.200 OA
BRANCH  23  26
HETATM   26  N1  UNL     1      16.745  79.760  -0.907  1.00  0.00    -0.260 N 
ATOM     27  H1  UNL     1      16.680  78.942  -0.302  1.00  0.00     0.181 HD
BRANCH  26  28
HETATM   28  C1  UNL     1      15.995  79.806  -1.994  1.00  0.00     0.158 A 
HETATM   29  N2  UNL     1      14.953  80.633  -2.196  1.00  0.00    -0.345 N 
HETATM   30  C2  UNL     1      14.304  80.576  -3.322  1.00  0.00     0.097 A 
ATOM     31  H2  UNL     1      14.675  81.298  -1.474  1.00  0.00     0.167 HD
HETATM   32  C3  UNL     1      14.748  79.641  -4.260  1.00  0.00     0.070 A 
HETATM   33  S2  UNL     1      16.056  78.929  -3.444  1.00  0.00    -0.064 SA
ENDBRANCH  26  28
ENDBRANCH  23  26
ENDBRANCH   1  23
TORSDOF 10
ENDMDL
