MODEL 1
REMARK VINA RESULT: -7.020898172      0.000      0.000
REMARK  6 active torsions:
REMARK  status: ('A' for Active; 'I' for Inactive)
REMARK    1  A    between atoms: C2_2  and  O1_3 
REMARK    2  A    between atoms: N1_8  and  C6_10 
REMARK    3  A    between atoms: C6_10  and  C7_11 
REMARK    4  A    between atoms: C7_11  and  C8_12 
REMARK    5  A    between atoms: C8_12  and  C9_13 
REMARK    6  A    between atoms: C9_13  and  N2_14 
ROOT
HETATM    1  C1  UNL     1      32.233  23.513   9.497  1.00  0.00     0.081 C 
HETATM    2  C2  UNL     1      31.781  22.194   9.002  1.00  0.00     0.248 C 
HETATM    3  C3  UNL     1      30.291  22.279   8.741  1.00  0.00     0.238 C 
HETATM    4  O2  UNL     1      30.147  22.551   7.390  1.00  0.00    -0.359 OA
HETATM    5  C4  UNL     1      31.453  22.839   6.922  1.00  0.00     0.408 C 
HETATM    6  N1  UNL     1      32.228  21.860   7.646  1.00  0.00    -0.017 N 
HETATM    7  C5  UNL     1      31.724  20.565   7.351  1.00  0.00     0.279 C 
ENDROOT
BRANCH   6   8
HETATM    8  C6  UNL     1      33.609  21.980   7.459  1.00  0.00     0.243 C 
BRANCH   8   9
HETATM    9  C7  UNL     1      34.506  20.844   7.730  1.00  0.00     0.030 C 
BRANCH   9  10
HETATM   10  C8  UNL     1      35.357  20.912   8.966  1.00  0.00     0.032 C 
BRANCH  10  11
HETATM   11  C9  UNL     1      36.463  19.892   8.957  1.00  0.00     0.272 C 
BRANCH  11  12
HETATM   12  N2  UNL     1      37.638  20.296   9.636  1.00  0.00     0.088 N 
HETATM   13  C10 UNL     1      38.373  19.268  10.296  1.00  0.00     0.272 C 
HETATM   14  C11 UNL     1      39.529  20.075  10.906  1.00  0.00     0.032 C 
HETATM   15  C12 UNL     1      38.824  21.357  11.290  1.00  0.00     0.032 C 
HETATM   16  C13 UNL     1      37.421  21.256  10.689  1.00  0.00     0.272 C 
ENDBRANCH  11  12
ENDBRANCH  10  11
ENDBRANCH   9  10
ENDBRANCH   8   9
ENDBRANCH   6   8
BRANCH   2  17
HETATM   17  O1  UNL     1      31.993  21.151   9.884  1.00  0.00    -0.363 OA
ATOM     18  H1  UNL     1      31.502  21.218  10.696  1.00  0.00     0.212 HD
ENDBRANCH   2  17
TORSDOF 6
ENDMDL
MODEL 2
REMARK VINA RESULT: -6.860049144      1.463      1.908
REMARK  6 active torsions:
REMARK  status: ('A' for Active; 'I' for Inactive)
REMARK    1  A    between atoms: C2_2  and  O1_3 
REMARK    2  A    between atoms: N1_8  and  C6_10 
REMARK    3  A    between atoms: C6_10  and  C7_11 
REMARK    4  A    between atoms: C7_11  and  C8_12 
REMARK    5  A    between atoms: C8_12  and  C9_13 
REMARK    6  A    between atoms: C9_13  and  N2_14 
ROOT
HETATM    1  C1  UNL     1      30.741  22.133   8.132  1.00  0.00     0.081 C 
HETATM    2  C2  UNL     1      31.652  21.546   7.124  1.00  0.00     0.248 C 
HETATM    3  C3  UNL     1      31.460  22.304   5.826  1.00  0.00     0.238 C 
HETATM    4  O2  UNL     1      32.453  23.270   5.788  1.00  0.00    -0.359 OA
HETATM    5  C4  UNL     1      33.050  23.246   7.073  1.00  0.00     0.408 C 
HETATM    6  N1  UNL     1      33.074  21.828   7.341  1.00  0.00    -0.017 N 
HETATM    7  C5  UNL     1      33.789  21.175   6.301  1.00  0.00     0.279 C 
ENDROOT
BRANCH   6   8
HETATM    8  C6  UNL     1      33.527  21.501   8.623  1.00  0.00     0.243 C 
BRANCH   8   9
HETATM    9  C7  UNL     1      34.171  22.515   9.475  1.00  0.00     0.030 C 
BRANCH   9  10
HETATM   10  C8  UNL     1      35.580  22.251   9.924  1.00  0.00     0.032 C 
BRANCH  10  11
HETATM   11  C9  UNL     1      36.092  20.918   9.450  1.00  0.00     0.272 C 
BRANCH  11  12
HETATM   12  N2  UNL     1      37.430  20.639   9.820  1.00  0.00     0.088 N 
HETATM   13  C10 UNL     1      37.727  19.285  10.149  1.00  0.00     0.272 C 
HETATM   14  C11 UNL     1      39.220  19.384  10.497  1.00  0.00     0.032 C 
HETATM   15  C12 UNL     1      39.274  20.731  11.184  1.00  0.00     0.032 C 
HETATM   16  C13 UNL     1      37.892  21.356  10.981  1.00  0.00     0.272 C 
ENDBRANCH  11  12
ENDBRANCH  10  11
ENDBRANCH   9  10
ENDBRANCH   8   9
ENDBRANCH   6   8
BRANCH   2  17
HETATM   17  O1  UNL     1      31.427  20.207   6.863  1.00  0.00    -0.363 OA
ATOM     18  H1  UNL     1      30.598  20.025   6.435  1.00  0.00     0.212 HD
ENDBRANCH   2  17
TORSDOF 6
ENDMDL
MODEL 3
REMARK VINA RESULT: -6.633310441      6.984      8.763
REMARK  6 active torsions:
REMARK  status: ('A' for Active; 'I' for Inactive)
REMARK    1  A    between atoms: C2_2  and  O1_3 
REMARK    2  A    between atoms: N1_8  and  C6_10 
REMARK    3  A    between atoms: C6_10  and  C7_11 
REMARK    4  A    between atoms: C7_11  and  C8_12 
REMARK    5  A    between atoms: C8_12  and  C9_13 
REMARK    6  A    between atoms: C9_13  and  N2_14 
ROOT
HETATM    1  C1  UNL     1      29.556  24.532  15.463  1.00  0.00     0.081 C 
HETATM    2  C2  UNL     1      29.946  23.746  14.271  1.00  0.00     0.248 C 
HETATM    3  C3  UNL     1      31.456  23.614  14.274  1.00  0.00     0.238 C 
HETATM    4  O2  UNL     1      31.739  22.390  14.858  1.00  0.00    -0.359 OA
HETATM    5  C4  UNL     1      30.505  21.927  15.379  1.00  0.00     0.408 C 
HETATM    6  N1  UNL     1      29.596  22.324  14.331  1.00  0.00    -0.017 N 
HETATM    7  C5  UNL     1      30.022  21.741  13.107  1.00  0.00     0.279 C 
ENDROOT
BRANCH   6   8
HETATM    8  C6  UNL     1      28.251  22.083  14.627  1.00  0.00     0.243 C 
BRANCH   8   9
HETATM    9  C7  UNL     1      27.811  20.765  15.114  1.00  0.00     0.030 C 
BRANCH   9  10
HETATM   10  C8  UNL     1      26.935  19.947  14.208  1.00  0.00     0.032 C 
BRANCH  10  11
HETATM   11  C9  UNL     1      27.221  18.474  14.312  1.00  0.00     0.272 C 
BRANCH  11  12
HETATM   12  N2  UNL     1      28.211  18.006  13.414  1.00  0.00     0.088 N 
HETATM   13  C10 UNL     1      28.286  18.664  12.153  1.00  0.00     0.272 C 
HETATM   14  C11 UNL     1      29.431  17.891  11.481  1.00  0.00     0.032 C 
HETATM   15  C12 UNL     1      29.177  16.488  11.987  1.00  0.00     0.032 C 
HETATM   16  C13 UNL     1      28.075  16.621  13.041  1.00  0.00     0.272 C 
ENDBRANCH  11  12
ENDBRANCH  10  11
ENDBRANCH   9  10
ENDBRANCH   8   9
ENDBRANCH   6   8
BRANCH   2  17
HETATM   17  O1  UNL     1      29.578  24.317  13.067  1.00  0.00    -0.363 OA
ATOM     18  H1  UNL     1      28.674  24.610  13.032  1.00  0.00     0.212 HD
ENDBRANCH   2  17
TORSDOF 6
ENDMDL
MODEL 4
REMARK VINA RESULT: -6.592299308      3.987      6.905
REMARK  6 active torsions:
REMARK  status: ('A' for Active; 'I' for Inactive)
REMARK    1  A    between atoms: C2_2  and  O1_3 
REMARK    2  A    between atoms: N1_8  and  C6_10 
REMARK    3  A    between atoms: C6_10  and  C7_11 
REMARK    4  A    between atoms: C7_11  and  C8_12 
REMARK    5  A    between atoms: C8_12  and  C9_13 
REMARK    6  A    between atoms: C9_13  and  N2_14 
ROOT
HETATM    1  C1  UNL     1      33.968  21.752   8.983  1.00  0.00     0.081 C 
HETATM    2  C2  UNL     1      32.700  22.512   8.916  1.00  0.00     0.248 C 
HETATM    3  C3  UNL     1      32.687  23.281   7.610  1.00  0.00     0.238 C 
HETATM    4  O2  UNL     1      31.975  22.507   6.709  1.00  0.00    -0.359 OA
HETATM    5  C4  UNL     1      31.777  21.261   7.355  1.00  0.00     0.408 C 
HETATM    6  N1  UNL     1      31.503  21.692   8.706  1.00  0.00    -0.017 N 
HETATM    7  C5  UNL     1      30.392  22.578   8.689  1.00  0.00     0.279 C 
ENDROOT
BRANCH   6   8
HETATM    8  C6  UNL     1      31.368  20.641   9.619  1.00  0.00     0.243 C 
BRANCH   8   9
HETATM    9  C7  UNL     1      30.290  20.649  10.622  1.00  0.00     0.030 C 
BRANCH   9  10
HETATM   10  C8  UNL     1      30.167  19.450  11.519  1.00  0.00     0.032 C 
BRANCH  10  11
HETATM   11  C9  UNL     1      28.741  19.174  11.913  1.00  0.00     0.272 C 
BRANCH  11  12
HETATM   12  N2  UNL     1      28.189  20.119  12.811  1.00  0.00     0.088 N 
HETATM   13  C10 UNL     1      28.892  20.317  14.034  1.00  0.00     0.272 C 
HETATM   14  C11 UNL     1      28.007  21.367  14.721  1.00  0.00     0.032 C 
HETATM   15  C12 UNL     1      26.627  20.914  14.294  1.00  0.00     0.032 C 
HETATM   16  C13 UNL     1      26.855  19.810  13.260  1.00  0.00     0.272 C 
ENDBRANCH  11  12
ENDBRANCH  10  11
ENDBRANCH   9  10
ENDBRANCH   8   9
ENDBRANCH   6   8
BRANCH   2  17
HETATM   17  O1  UNL     1      32.526  23.423   9.941  1.00  0.00    -0.363 OA
ATOM     18  H1  UNL     1      31.631  23.721  10.052  1.00  0.00     0.212 HD
ENDBRANCH   2  17
TORSDOF 6
ENDMDL
MODEL 5
REMARK VINA RESULT: -6.567693843      3.838      6.335
REMARK  6 active torsions:
REMARK  status: ('A' for Active; 'I' for Inactive)
REMARK    1  A    between atoms: C2_2  and  O1_3 
REMARK    2  A    between atoms: N1_8  and  C6_10 
REMARK    3  A    between atoms: C6_10  and  C7_11 
REMARK    4  A    between atoms: C7_11  and  C8_12 
REMARK    5  A    between atoms: C8_12  and  C9_13 
REMARK    6  A    between atoms: C9_13  and  N2_14 
ROOT
HETATM    1  C1  UNL     1      30.728  22.108   6.459  1.00  0.00     0.081 C 
HETATM    2  C2  UNL     1      32.059  21.740   6.988  1.00  0.00     0.248 C 
HETATM    3  C3  UNL     1      33.012  22.878   6.686  1.00  0.00     0.238 C 
HETATM    4  O2  UNL     1      33.058  23.662   7.828  1.00  0.00    -0.359 OA
HETATM    5  C4  UNL     1      32.031  23.163   8.668  1.00  0.00     0.408 C 
HETATM    6  N1  UNL     1      32.162  21.742   8.450  1.00  0.00    -0.017 N 
HETATM    7  C5  UNL     1      33.489  21.348   8.773  1.00  0.00     0.279 C 
ENDROOT
BRANCH   6   8
HETATM    8  C6  UNL     1      31.180  20.979   9.089  1.00  0.00     0.243 C 
BRANCH   8   9
HETATM    9  C7  UNL     1      30.239  21.602  10.035  1.00  0.00     0.030 C 
BRANCH   9  10
HETATM   10  C8  UNL     1      29.809  20.790  11.223  1.00  0.00     0.032 C 
BRANCH  10  11
HETATM   11  C9  UNL     1      30.495  19.453  11.281  1.00  0.00     0.272 C 
BRANCH  11  12
HETATM   12  N2  UNL     1      29.812  18.476  12.046  1.00  0.00     0.088 N 
HETATM   13  C10 UNL     1      29.388  17.308  11.348  1.00  0.00     0.272 C 
HETATM   14  C11 UNL     1      28.698  16.523  12.474  1.00  0.00     0.032 C 
HETATM   15  C12 UNL     1      28.052  17.642  13.261  1.00  0.00     0.032 C 
HETATM   16  C13 UNL     1      28.592  18.940  12.656  1.00  0.00     0.272 C 
ENDBRANCH  11  12
ENDBRANCH  10  11
ENDBRANCH   9  10
ENDBRANCH   8   9
ENDBRANCH   6   8
BRANCH   2  17
HETATM   17  O1  UNL     1      32.593  20.589   6.437  1.00  0.00    -0.363 OA
ATOM     18  H1  UNL     1      33.281  20.743   5.800  1.00  0.00     0.212 HD
ENDBRANCH   2  17
TORSDOF 6
ENDMDL
