MODEL 1
REMARK VINA RESULT: -6.802594671      0.000      0.000
REMARK  6 active torsions:
REMARK  status: ('A' for Active; 'I' for Inactive)
REMARK    1  A    between atoms: C3_3  and  N1_4 
REMARK    2  A    between atoms: N1_4  and  C6_7 
REMARK    3  A    between atoms: C6_7  and  C7_8 
REMARK    4  A    between atoms: C7_8  and  O1_9 
REMARK    5  A    between atoms: C7_8  and  C8_11 
REMARK    6  A    between atoms: N2_14  and  C12_16 
ROOT
HETATM    1  C1  UNL     1      25.443  20.466  13.981  1.00  0.00     0.013 C 
HETATM    2  C2  UNL     1      26.531  20.935  14.206  1.00  0.00    -0.089 C 
HETATM    3  C3  UNL     1      27.851  21.496  14.503  1.00  0.00     0.329 C 
ENDROOT
BRANCH   3   4
HETATM    4  N1  UNL     1      28.885  20.608  13.918  1.00  0.00    -0.062 N 
HETATM    5  C4  UNL     1      28.481  19.265  14.300  1.00  0.00     0.273 C 
HETATM    6  C5  UNL     1      30.098  20.946  14.590  1.00  0.00     0.273 C 
BRANCH   4   7
HETATM    7  C6  UNL     1      28.847  20.832  12.515  1.00  0.00     0.269 C 
BRANCH   7   8
HETATM    8  C7  UNL     1      30.153  21.040  11.825  1.00  0.00     0.148 C 
BRANCH   8   9
HETATM    9  O1  UNL     1      30.839  19.788  11.831  1.00  0.00    -0.394 OA
ATOM     10  H1  UNL     1      31.471  19.816  12.540  1.00  0.00     0.210 HD
ENDBRANCH   8   9
BRANCH   8  11
HETATM   11  C8  UNL     1      30.029  21.353  10.338  1.00  0.00     0.019 C 
HETATM   12  C9  UNL     1      30.319  22.828  10.171  1.00  0.00     0.035 C 
HETATM   13  C10 UNL     1      31.739  23.163   9.882  1.00  0.00     0.237 C 
HETATM   14  N2  UNL     1      32.299  22.460   8.750  1.00  0.00    -0.071 N 
HETATM   15  C11 UNL     1      33.535  21.774   9.074  1.00  0.00     0.272 C 
HETATM   16  C14 UNL     1      31.340  21.468   8.293  1.00  0.00     0.237 C 
HETATM   17  C15 UNL     1      31.003  20.574   9.496  1.00  0.00     0.035 C 
BRANCH  14  18
HETATM   18  C12 UNL     1      32.576  23.329   7.623  1.00  0.00     0.232 C 
HETATM   19  C13 UNL     1      32.223  22.711   6.304  1.00  0.00     0.035 C 
ENDBRANCH  14  18
ENDBRANCH   8  11
ENDBRANCH   7   8
ENDBRANCH   4   7
ENDBRANCH   3   4
TORSDOF 6
ENDMDL
MODEL 2
REMARK VINA RESULT: -6.638822012      1.036      1.340
REMARK  6 active torsions:
REMARK  status: ('A' for Active; 'I' for Inactive)
REMARK    1  A    between atoms: C3_3  and  N1_4 
REMARK    2  A    between atoms: N1_4  and  C6_7 
REMARK    3  A    between atoms: C6_7  and  C7_8 
REMARK    4  A    between atoms: C7_8  and  O1_9 
REMARK    5  A    between atoms: C7_8  and  C8_11 
REMARK    6  A    between atoms: N2_14  and  C12_16 
ROOT
HETATM    1  C1  UNL     1      27.228  20.371  14.690  1.00  0.00     0.013 C 
HETATM    2  C2  UNL     1      27.939  21.346  14.691  1.00  0.00    -0.089 C 
HETATM    3  C3  UNL     1      28.812  22.522  14.714  1.00  0.00     0.329 C 
ENDROOT
BRANCH   3   4
HETATM    4  N1  UNL     1      29.940  22.291  13.778  1.00  0.00    -0.062 N 
HETATM    5  C4  UNL     1      30.671  21.170  14.345  1.00  0.00     0.273 C 
HETATM    6  C5  UNL     1      30.744  23.468  13.858  1.00  0.00     0.273 C 
BRANCH   4   7
HETATM    7  C6  UNL     1      29.352  22.003  12.517  1.00  0.00     0.269 C 
BRANCH   7   8
HETATM    8  C7  UNL     1      30.085  21.059  11.626  1.00  0.00     0.148 C 
BRANCH   8   9
HETATM    9  O1  UNL     1      29.368  19.824  11.634  1.00  0.00    -0.394 OA
ATOM     10  H1  UNL     1      28.933  19.744  10.793  1.00  0.00     0.210 HD
ENDBRANCH   8   9
BRANCH   8  11
HETATM   11  C8  UNL     1      30.067  21.452  10.153  1.00  0.00     0.019 C 
HETATM   12  C9  UNL     1      30.389  22.929  10.085  1.00  0.00     0.035 C 
HETATM   13  C10 UNL     1      31.830  23.252   9.909  1.00  0.00     0.237 C 
HETATM   14  N2  UNL     1      32.455  22.600   8.781  1.00  0.00    -0.071 N 
HETATM   15  C11 UNL     1      33.656  21.874   9.149  1.00  0.00     0.272 C 
HETATM   16  C14 UNL     1      31.515  21.651   8.208  1.00  0.00     0.237 C 
HETATM   17  C15 UNL     1      31.084  20.701   9.336  1.00  0.00     0.035 C 
BRANCH  14  18
HETATM   18  C12 UNL     1      32.820  23.522   7.723  1.00  0.00     0.232 C 
HETATM   19  C13 UNL     1      32.650  22.940   6.353  1.00  0.00     0.035 C 
ENDBRANCH  14  18
ENDBRANCH   8  11
ENDBRANCH   7   8
ENDBRANCH   4   7
ENDBRANCH   3   4
TORSDOF 6
ENDMDL
MODEL 3
REMARK VINA RESULT: -6.550584315      3.608      6.716
REMARK  6 active torsions:
REMARK  status: ('A' for Active; 'I' for Inactive)
REMARK    1  A    between atoms: C3_3  and  N1_4 
REMARK    2  A    between atoms: N1_4  and  C6_7 
REMARK    3  A    between atoms: C6_7  and  C7_8 
REMARK    4  A    between atoms: C7_8  and  O1_9 
REMARK    5  A    between atoms: C7_8  and  C8_11 
REMARK    6  A    between atoms: N2_14  and  C12_16 
ROOT
HETATM    1  C1  UNL     1      32.187  23.498  17.556  1.00  0.00     0.013 C 
HETATM    2  C2  UNL     1      32.172  23.551  16.351  1.00  0.00    -0.089 C 
HETATM    3  C3  UNL     1      32.164  23.592  14.887  1.00  0.00     0.329 C 
ENDROOT
BRANCH   3   4
HETATM    4  N1  UNL     1      30.762  23.459  14.419  1.00  0.00    -0.062 N 
HETATM    5  C4  UNL     1      30.768  23.999  13.070  1.00  0.00     0.273 C 
HETATM    6  C5  UNL     1      29.997  24.315  15.267  1.00  0.00     0.273 C 
BRANCH   4   7
HETATM    7  C6  UNL     1      30.461  22.071  14.471  1.00  0.00     0.269 C 
BRANCH   7   8
HETATM    8  C7  UNL     1      29.965  21.437  13.216  1.00  0.00     0.148 C 
BRANCH   8   9
HETATM    9  O1  UNL     1      30.545  20.133  13.143  1.00  0.00    -0.394 OA
ATOM     10  H1  UNL     1      29.881  19.548  12.796  1.00  0.00     0.210 HD
ENDBRANCH   8   9
BRANCH   8  11
HETATM   11  C8  UNL     1      28.470  21.143  13.214  1.00  0.00     0.019 C 
HETATM   12  C9  UNL     1      28.305  19.690  12.825  1.00  0.00     0.035 C 
HETATM   13  C10 UNL     1      28.251  18.735  13.963  1.00  0.00     0.237 C 
HETATM   14  N2  UNL     1      27.255  19.051  14.961  1.00  0.00    -0.071 N 
HETATM   15  C11 UNL     1      27.808  19.118  16.301  1.00  0.00     0.272 C 
HETATM   16  C14 UNL     1      26.675  20.347  14.650  1.00  0.00     0.237 C 
HETATM   17  C15 UNL     1      27.832  21.354  14.561  1.00  0.00     0.035 C 
BRANCH  14  18
HETATM   18  C12 UNL     1      26.164  18.098  14.997  1.00  0.00     0.232 C 
HETATM   19  C13 UNL     1      24.823  18.733  14.790  1.00  0.00     0.035 C 
ENDBRANCH  14  18
ENDBRANCH   8  11
ENDBRANCH   7   8
ENDBRANCH   4   7
ENDBRANCH   3   4
TORSDOF 6
ENDMDL
MODEL 4
REMARK VINA RESULT: -6.523120395      1.318      2.153
REMARK  6 active torsions:
REMARK  status: ('A' for Active; 'I' for Inactive)
REMARK    1  A    between atoms: C3_3  and  N1_4 
REMARK    2  A    between atoms: N1_4  and  C6_7 
REMARK    3  A    between atoms: C6_7  and  C7_8 
REMARK    4  A    between atoms: C7_8  and  O1_9 
REMARK    5  A    between atoms: C7_8  and  C8_11 
REMARK    6  A    between atoms: N2_14  and  C12_16 
ROOT
HETATM    1  C1  UNL     1      28.827  16.802  11.658  1.00  0.00     0.013 C 
HETATM    2  C2  UNL     1      28.857  17.702  12.462  1.00  0.00    -0.089 C 
HETATM    3  C3  UNL     1      28.917  18.797  13.433  1.00  0.00     0.329 C 
ENDROOT
BRANCH   3   4
HETATM    4  N1  UNL     1      28.347  20.015  12.808  1.00  0.00    -0.062 N 
HETATM    5  C4  UNL     1      28.842  21.116  13.619  1.00  0.00     0.273 C 
HETATM    6  C5  UNL     1      26.934  19.902  12.976  1.00  0.00     0.273 C 
BRANCH   4   7
HETATM    7  C6  UNL     1      28.833  20.035  11.472  1.00  0.00     0.269 C 
BRANCH   7   8
HETATM    8  C7  UNL     1      30.012  20.903  11.192  1.00  0.00     0.148 C 
BRANCH   8   9
HETATM    9  O1  UNL     1      31.175  20.078  11.279  1.00  0.00    -0.394 OA
ATOM     10  H1  UNL     1      31.929  20.656  11.308  1.00  0.00     0.210 HD
ENDBRANCH   8   9
BRANCH   8  11
HETATM   11  C8  UNL     1      30.075  21.427   9.761  1.00  0.00     0.019 C 
HETATM   12  C9  UNL     1      30.388  22.905   9.846  1.00  0.00     0.035 C 
HETATM   13  C10 UNL     1      31.834  23.247   9.782  1.00  0.00     0.237 C 
HETATM   14  N2  UNL     1      32.527  22.701   8.638  1.00  0.00    -0.071 N 
HETATM   15  C11 UNL     1      33.712  21.949   9.007  1.00  0.00     0.272 C 
HETATM   16  C14 UNL     1      31.629  21.805   7.929  1.00  0.00     0.237 C 
HETATM   17  C15 UNL     1      31.142  20.756   8.940  1.00  0.00     0.035 C 
BRANCH  14  18
HETATM   18  C12 UNL     1      32.945  23.716   7.690  1.00  0.00     0.232 C 
HETATM   19  C13 UNL     1      32.933  23.234   6.271  1.00  0.00     0.035 C 
ENDBRANCH  14  18
ENDBRANCH   8  11
ENDBRANCH   7   8
ENDBRANCH   4   7
ENDBRANCH   3   4
TORSDOF 6
ENDMDL
MODEL 5
REMARK VINA RESULT: -6.513320401      1.504      7.018
REMARK  6 active torsions:
REMARK  status: ('A' for Active; 'I' for Inactive)
REMARK    1  A    between atoms: C3_3  and  N1_4 
REMARK    2  A    between atoms: N1_4  and  C6_7 
REMARK    3  A    between atoms: C6_7  and  C7_8 
REMARK    4  A    between atoms: C7_8  and  O1_9 
REMARK    5  A    between atoms: C7_8  and  C8_11 
REMARK    6  A    between atoms: N2_14  and  C12_16 
ROOT
HETATM    1  C1  UNL     1      32.578  22.956   7.573  1.00  0.00     0.013 C 
HETATM    2  C2  UNL     1      32.121  23.048   8.686  1.00  0.00    -0.089 C 
HETATM    3  C3  UNL     1      31.554  23.180  10.030  1.00  0.00     0.329 C 
ENDROOT
BRANCH   3   4
HETATM    4  N1  UNL     1      30.454  22.197  10.178  1.00  0.00    -0.062 N 
HETATM    5  C4  UNL     1      31.078  20.904   9.952  1.00  0.00     0.273 C 
HETATM    6  C5  UNL     1      29.549  22.478   9.110  1.00  0.00     0.273 C 
BRANCH   4   7
HETATM    7  C6  UNL     1      29.955  22.360  11.499  1.00  0.00     0.269 C 
BRANCH   7   8
HETATM    8  C7  UNL     1      29.706  21.120  12.289  1.00  0.00     0.148 C 
BRANCH   8   9
HETATM    9  O1  UNL     1      30.362  21.281  13.548  1.00  0.00    -0.394 OA
ATOM     10  H1  UNL     1      30.663  22.181  13.596  1.00  0.00     0.210 HD
ENDBRANCH   8   9
BRANCH   8  11
HETATM   11  C8  UNL     1      28.249  20.918  12.689  1.00  0.00     0.019 C 
HETATM   12  C9  UNL     1      27.982  19.429  12.649  1.00  0.00     0.035 C 
HETATM   13  C10 UNL     1      28.188  18.718  13.939  1.00  0.00     0.237 C 
HETATM   14  N2  UNL     1      27.459  19.279  15.053  1.00  0.00    -0.071 N 
HETATM   15  C11 UNL     1      28.313  19.572  16.189  1.00  0.00     0.272 C 
HETATM   16  C14 UNL     1      26.835  20.520  14.628  1.00  0.00     0.237 C 
HETATM   17  C15 UNL     1      27.949  21.423  14.074  1.00  0.00     0.035 C 
BRANCH  14  18
HETATM   18  C12 UNL     1      26.397  18.415  15.530  1.00  0.00     0.232 C 
HETATM   19  C13 UNL     1      25.070  18.715  14.902  1.00  0.00     0.035 C 
ENDBRANCH  14  18
ENDBRANCH   8  11
ENDBRANCH   7   8
ENDBRANCH   4   7
ENDBRANCH   3   4
TORSDOF 6
ENDMDL
