MODEL 1
REMARK VINA RESULT: -6.150668779      0.000      0.000
REMARK  7 active torsions:
REMARK  status: ('A' for Active; 'I' for Inactive)
REMARK    1  A    between atoms: C2_2  and  O1_3 
REMARK    2  A    between atoms: C2_2  and  C3_5 
REMARK    3  A    between atoms: C2_2  and  C10_14 
REMARK    4  A    between atoms: C3_5  and  C4_6 
REMARK    5  A    between atoms: C4_6  and  C5_7 
REMARK    6  A    between atoms: C5_7  and  N1_8 
REMARK    7  A    between atoms: C10_14  and  N2_15 
ROOT
HETATM    1  C1  UNL     1      29.951  22.367   9.157  1.00  0.00     0.047 C 
HETATM    2  C2  UNL     1      31.259  21.690   9.214  1.00  0.00     0.078 C 
ENDROOT
BRANCH   2   3
HETATM    3  O1  UNL     1      32.183  22.448   9.933  1.00  0.00    -0.389 OA
ATOM      4  H1  UNL     1      32.972  21.948  10.107  1.00  0.00     0.210 HD
ENDBRANCH   2   3
BRANCH   2   5
HETATM    5  C3  UNL     1      31.050  20.432  10.108  1.00  0.00     0.041 C 
BRANCH   5   6
HETATM    6  C4  UNL     1      29.835  20.556  10.924  1.00  0.00     0.031 C 
BRANCH   6   7
HETATM    7  C5  UNL     1      29.868  20.209  12.350  1.00  0.00     0.240 C 
BRANCH   7   8
HETATM    8  N1  UNL     1      29.447  21.159  13.249  1.00  0.00    -0.041 N 
HETATM    9  C6  UNL     1      28.200  21.260  13.877  1.00  0.00     0.405 C 
HETATM   10  O2  UNL     1      28.360  22.419  14.691  1.00  0.00    -0.355 OA
HETATM   11  C7  UNL     1      29.649  22.737  14.420  1.00  0.00     0.176 C 
HETATM   12  C8  UNL     1      30.354  21.420  14.404  1.00  0.00     0.273 C 
HETATM   13  C9  UNL     1      29.723  22.566  12.919  1.00  0.00     0.273 C 
ENDBRANCH   7   8
ENDBRANCH   6   7
ENDBRANCH   5   6
ENDBRANCH   2   5
BRANCH   2  14
HETATM   14  C10 UNL     1      31.795  21.148   7.944  1.00  0.00     0.273 C 
BRANCH  14  15
HETATM   15  N2  UNL     1      32.089  22.043   6.893  1.00  0.00    -0.076 N 
HETATM   16  C11 UNL     1      30.976  22.297   5.997  1.00  0.00     0.271 C 
HETATM   17  C12 UNL     1      32.702  23.285   7.296  1.00  0.00     0.271 C 
HETATM   18  C13 UNL     1      33.100  21.372   6.057  1.00  0.00     0.271 C 
ENDBRANCH  14  15
ENDBRANCH   2  14
TORSDOF 7
ENDMDL
MODEL 2
REMARK VINA RESULT: -6.070715948      0.466      1.008
REMARK  7 active torsions:
REMARK  status: ('A' for Active; 'I' for Inactive)
REMARK    1  A    between atoms: C2_2  and  O1_3 
REMARK    2  A    between atoms: C2_2  and  C3_5 
REMARK    3  A    between atoms: C2_2  and  C10_14 
REMARK    4  A    between atoms: C3_5  and  C4_6 
REMARK    5  A    between atoms: C4_6  and  C5_7 
REMARK    6  A    between atoms: C5_7  and  N1_8 
REMARK    7  A    between atoms: C10_14  and  N2_15 
ROOT
HETATM    1  C1  UNL     1      29.901  22.417   9.145  1.00  0.00     0.047 C 
HETATM    2  C2  UNL     1      31.193  21.713   9.234  1.00  0.00     0.078 C 
ENDROOT
BRANCH   2   3
HETATM    3  O1  UNL     1      32.123  22.463   9.953  1.00  0.00    -0.389 OA
ATOM      4  H1  UNL     1      32.916  22.598   9.447  1.00  0.00     0.210 HD
ENDBRANCH   2   3
BRANCH   2   5
HETATM    5  C3  UNL     1      30.943  20.475  10.146  1.00  0.00     0.041 C 
BRANCH   5   6
HETATM    6  C4  UNL     1      29.693  20.618  10.904  1.00  0.00     0.031 C 
BRANCH   6   7
HETATM    7  C5  UNL     1      29.679  20.373  12.351  1.00  0.00     0.240 C 
BRANCH   7   8
HETATM    8  N1  UNL     1      29.586  21.461  13.183  1.00  0.00    -0.041 N 
HETATM    9  C6  UNL     1      29.705  22.816  12.849  1.00  0.00     0.405 C 
HETATM   10  O2  UNL     1      29.506  23.460  14.105  1.00  0.00    -0.355 OA
HETATM   11  C7  UNL     1      29.273  22.388  14.900  1.00  0.00     0.176 C 
HETATM   12  C8  UNL     1      28.391  21.508  14.075  1.00  0.00     0.273 C 
HETATM   13  C9  UNL     1      30.332  21.406  14.450  1.00  0.00     0.273 C 
ENDBRANCH   7   8
ENDBRANCH   6   7
ENDBRANCH   5   6
ENDBRANCH   2   5
BRANCH   2  14
HETATM   14  C10 UNL     1      31.736  21.138   7.981  1.00  0.00     0.273 C 
BRANCH  14  15
HETATM   15  N2  UNL     1      32.068  22.007   6.921  1.00  0.00    -0.076 N 
HETATM   16  C11 UNL     1      30.981  22.258   5.993  1.00  0.00     0.271 C 
HETATM   17  C12 UNL     1      32.689  23.249   7.314  1.00  0.00     0.271 C 
HETATM   18  C13 UNL     1      33.089  21.306   6.122  1.00  0.00     0.271 C 
ENDBRANCH  14  15
ENDBRANCH   2  14
TORSDOF 7
ENDMDL
MODEL 3
REMARK VINA RESULT: -5.994033594      1.552      2.213
REMARK  7 active torsions:
REMARK  status: ('A' for Active; 'I' for Inactive)
REMARK    1  A    between atoms: C2_2  and  O1_3 
REMARK    2  A    between atoms: C2_2  and  C3_5 
REMARK    3  A    between atoms: C2_2  and  C10_14 
REMARK    4  A    between atoms: C3_5  and  C4_6 
REMARK    5  A    between atoms: C4_6  and  C5_7 
REMARK    6  A    between atoms: C5_7  and  N1_8 
REMARK    7  A    between atoms: C10_14  and  N2_15 
ROOT
HETATM    1  C1  UNL     1      29.890  22.475   8.952  1.00  0.00     0.047 C 
HETATM    2  C2  UNL     1      31.184  21.817   9.207  1.00  0.00     0.078 C 
ENDROOT
BRANCH   2   3
HETATM    3  O1  UNL     1      32.012  22.628   9.981  1.00  0.00    -0.389 OA
ATOM      4  H1  UNL     1      31.878  22.466  10.908  1.00  0.00     0.210 HD
ENDBRANCH   2   3
BRANCH   2   5
HETATM    5  C3  UNL     1      30.874  20.614  10.146  1.00  0.00     0.041 C 
BRANCH   5   6
HETATM    6  C4  UNL     1      29.653  20.850  10.927  1.00  0.00     0.031 C 
BRANCH   6   7
HETATM    7  C5  UNL     1      29.687  20.754  12.392  1.00  0.00     0.240 C 
BRANCH   7   8
HETATM    8  N1  UNL     1      28.978  19.737  12.982  1.00  0.00    -0.041 N 
HETATM    9  C6  UNL     1      28.628  19.597  14.331  1.00  0.00     0.405 C 
HETATM   10  O2  UNL     1      27.899  18.373  14.333  1.00  0.00    -0.355 OA
HETATM   11  C7  UNL     1      27.928  18.064  13.014  1.00  0.00     0.176 C 
HETATM   12  C8  UNL     1      27.687  19.370  12.329  1.00  0.00     0.273 C 
HETATM   13  C9  UNL     1      29.362  18.359  12.636  1.00  0.00     0.273 C 
ENDBRANCH   7   8
ENDBRANCH   6   7
ENDBRANCH   5   6
ENDBRANCH   2   5
BRANCH   2  14
HETATM   14  C10 UNL     1      31.870  21.205   8.046  1.00  0.00     0.273 C 
BRANCH  14  15
HETATM   15  N2  UNL     1      32.193  22.018   6.939  1.00  0.00    -0.076 N 
HETATM   16  C11 UNL     1      31.099  22.216   6.005  1.00  0.00     0.271 C 
HETATM   17  C12 UNL     1      32.810  23.281   7.263  1.00  0.00     0.271 C 
HETATM   18  C13 UNL     1      33.212  21.280   6.173  1.00  0.00     0.271 C 
ENDBRANCH  14  15
ENDBRANCH   2  14
TORSDOF 7
ENDMDL
MODEL 4
REMARK VINA RESULT: -5.988963702      1.982      2.745
REMARK  7 active torsions:
REMARK  status: ('A' for Active; 'I' for Inactive)
REMARK    1  A    between atoms: C2_2  and  O1_3 
REMARK    2  A    between atoms: C2_2  and  C3_5 
REMARK    3  A    between atoms: C2_2  and  C10_14 
REMARK    4  A    between atoms: C3_5  and  C4_6 
REMARK    5  A    between atoms: C4_6  and  C5_7 
REMARK    6  A    between atoms: C5_7  and  N1_8 
REMARK    7  A    between atoms: C10_14  and  N2_15 
ROOT
HETATM    1  C1  UNL     1      32.950  23.676   9.525  1.00  0.00     0.047 C 
HETATM    2  C2  UNL     1      31.927  22.650   9.253  1.00  0.00     0.078 C 
ENDROOT
BRANCH   2   3
HETATM    3  O1  UNL     1      32.385  21.381   9.606  1.00  0.00    -0.389 OA
ATOM      4  H1  UNL     1      31.662  20.807   9.829  1.00  0.00     0.210 HD
ENDBRANCH   2   3
BRANCH   2   5
HETATM    5  C3  UNL     1      30.776  22.914  10.269  1.00  0.00     0.041 C 
BRANCH   5   6
HETATM    6  C4  UNL     1      29.993  21.695  10.514  1.00  0.00     0.031 C 
BRANCH   6   7
HETATM    7  C5  UNL     1      29.650  21.304  11.886  1.00  0.00     0.240 C 
BRANCH   7   8
HETATM    8  N1  UNL     1      29.504  19.965  12.151  1.00  0.00    -0.041 N 
HETATM    9  C6  UNL     1      30.359  18.915  11.792  1.00  0.00     0.405 C 
HETATM   10  O2  UNL     1      29.699  17.780  12.345  1.00  0.00    -0.355 OA
HETATM   11  C7  UNL     1      28.636  18.375  12.941  1.00  0.00     0.176 C 
HETATM   12  C8  UNL     1      29.212  19.602  13.569  1.00  0.00     0.273 C 
HETATM   13  C9  UNL     1      28.184  19.368  11.893  1.00  0.00     0.273 C 
ENDBRANCH   7   8
ENDBRANCH   6   7
ENDBRANCH   5   6
ENDBRANCH   2   5
BRANCH   2  14
HETATM   14  C10 UNL     1      31.261  22.694   7.931  1.00  0.00     0.273 C 
BRANCH  14  15
HETATM   15  N2  UNL     1      31.953  22.204   6.804  1.00  0.00    -0.076 N 
HETATM   16  C11 UNL     1      32.920  23.133   6.248  1.00  0.00     0.271 C 
HETATM   17  C12 UNL     1      32.546  20.899   6.965  1.00  0.00     0.271 C 
HETATM   18  C13 UNL     1      30.943  22.036   5.744  1.00  0.00     0.271 C 
ENDBRANCH  14  15
ENDBRANCH   2  14
TORSDOF 7
ENDMDL
MODEL 5
REMARK VINA RESULT: -5.977793244      2.021      2.475
REMARK  7 active torsions:
REMARK  status: ('A' for Active; 'I' for Inactive)
REMARK    1  A    between atoms: C2_2  and  O1_3 
REMARK    2  A    between atoms: C2_2  and  C3_5 
REMARK    3  A    between atoms: C2_2  and  C10_14 
REMARK    4  A    between atoms: C3_5  and  C4_6 
REMARK    5  A    between atoms: C4_6  and  C5_7 
REMARK    6  A    between atoms: C5_7  and  N1_8 
REMARK    7  A    between atoms: C10_14  and  N2_15 
ROOT
HETATM    1  C1  UNL     1      29.873  22.454   9.251  1.00  0.00     0.047 C 
HETATM    2  C2  UNL     1      31.193  21.811   9.123  1.00  0.00     0.078 C 
ENDROOT
BRANCH   2   3
HETATM    3  O1  UNL     1      32.157  22.496   9.863  1.00  0.00    -0.389 OA
ATOM      4  H1  UNL     1      32.136  23.427   9.670  1.00  0.00     0.210 HD
ENDBRANCH   2   3
BRANCH   2   5
HETATM    5  C3  UNL     1      31.076  20.444   9.859  1.00  0.00     0.041 C 
BRANCH   5   6
HETATM    6  C4  UNL     1      30.099  20.512  10.954  1.00  0.00     0.031 C 
BRANCH   6   7
HETATM    7  C5  UNL     1      30.228  19.619  12.112  1.00  0.00     0.240 C 
BRANCH   7   8
HETATM    8  N1  UNL     1      29.093  18.989  12.562  1.00  0.00    -0.041 N 
HETATM    9  C6  UNL     1      28.827  17.614  12.603  1.00  0.00     0.405 C 
HETATM   10  O2  UNL     1      27.521  17.573  13.172  1.00  0.00    -0.355 OA
HETATM   11  C7  UNL     1      27.301  18.893  13.386  1.00  0.00     0.176 C 
HETATM   12  C8  UNL     1      28.605  19.399  13.911  1.00  0.00     0.273 C 
HETATM   13  C9  UNL     1      27.801  19.523  12.106  1.00  0.00     0.273 C 
ENDBRANCH   7   8
ENDBRANCH   6   7
ENDBRANCH   5   6
ENDBRANCH   2   5
BRANCH   2  14
HETATM   14  C10 UNL     1      31.639  21.451   7.757  1.00  0.00     0.273 C 
BRANCH  14  15
HETATM   15  N2  UNL     1      32.855  21.983   7.276  1.00  0.00    -0.076 N 
HETATM   16  C11 UNL     1      32.955  23.427   7.378  1.00  0.00     0.271 C 
HETATM   17  C12 UNL     1      34.048  21.359   7.795  1.00  0.00     0.271 C 
HETATM   18  C13 UNL     1      32.878  21.706   5.829  1.00  0.00     0.271 C 
ENDBRANCH  14  15
ENDBRANCH   2  14
TORSDOF 7
ENDMDL
