MODEL 1
REMARK VINA RESULT: -6.697556212      0.000      0.000
REMARK  10 active torsions:
REMARK  status: ('A' for Active; 'I' for Inactive)
REMARK    1  A    between atoms: N1_2  and  N2_3 
REMARK    2  A    between atoms: N2_3  and  C2_4 
REMARK    3  A    between atoms: C4_8  and  O1_9 
REMARK    4  A    between atoms: C5_11  and  N4_12 
REMARK    5  A    between atoms: N4_12  and  N5_13 
REMARK    6  A    between atoms: N4_12  and  N9_29 
REMARK    7  A    between atoms: N6_15  and  C6_17 
REMARK    8  A    between atoms: C8_19  and  O2_20 
REMARK    9  A    between atoms: C9_22  and  O3_23 
REMARK   10  A    between atoms: N9_29  and  N10_31 
ROOT
HETATM    1  N4  UNL     1      -7.013  27.876 -17.499  1.00  0.00    -0.190 N 
ENDROOT
BRANCH   1   2
HETATM    2  C5  UNL     1      -7.915  28.194 -16.376  1.00  0.00     0.192 C 
HETATM    3  C4  UNL     1      -9.107  28.866 -16.922  1.00  0.00     0.244 C 
HETATM    4  N3  UNL     1     -10.238  28.970 -16.090  1.00  0.00    -0.372 N 
HETATM    5  C3  UNL     1     -10.227  28.360 -14.830  1.00  0.00     0.096 C 
ATOM      6  H3  UNL     1     -11.061  29.485 -16.404  1.00  0.00     0.161 HD
HETATM    7  C2  UNL     1      -9.580  29.249 -13.795  1.00  0.00     0.255 C 
HETATM    8  S1  UNL     1      -7.843  29.283 -13.855  1.00  0.00     0.171 S 
HETATM    9  C12 UNL     1      -7.109  28.994 -15.402  1.00  0.00     0.176 C 
HETATM   10  O6  UNL     1      -7.319  28.222 -12.890  1.00  0.00    -0.226 OA
HETATM   11  O7  UNL     1      -7.361  30.588 -13.262  1.00  0.00    -0.226 OA
BRANCH   3  12
HETATM   12  O1  UNL     1      -8.814  30.158 -17.414  1.00  0.00    -0.375 OA
ATOM     13  H1  UNL     1      -8.281  30.602 -16.764  1.00  0.00     0.212 HD
ENDBRANCH   3  12
BRANCH   7  14
HETATM   14  N2  UNL     1     -10.180  30.567 -13.907  1.00  0.00    -0.123 NA
BRANCH  14  15
HETATM   15  N1  UNL     1     -11.571  30.467 -13.943  1.00  0.00    -0.152 NA
HETATM   16  C1  UNL     1     -12.216  31.632 -14.449  1.00  0.00     0.154 C 
ENDBRANCH  14  15
ENDBRANCH   7  14
ENDBRANCH   1   2
BRANCH   1  17
HETATM   17  N5  UNL     1      -6.260  28.861 -18.133  1.00  0.00    -0.224 N 
HETATM   18  N6  UNL     1      -6.471  29.233 -19.326  1.00  0.00    -0.283 N 
ATOM     19  H6  UNL     1      -7.231  28.781 -19.834  1.00  0.00     0.188 HD
ATOM     20  H5  UNL     1      -5.503  29.305 -17.613  1.00  0.00     0.210 HD
BRANCH  18  21
HETATM   21  C6  UNL     1      -5.737  30.217 -19.997  1.00  0.00     0.078 A 
HETATM   22  C7  UNL     1      -4.705  29.909 -20.858  1.00  0.00     0.072 A 
HETATM   23  C8  UNL     1      -3.990  30.886 -21.513  1.00  0.00     0.103 A 
HETATM   24  C9  UNL     1      -4.308  32.210 -21.307  1.00  0.00     0.125 A 
HETATM   25  C10 UNL     1      -5.346  32.567 -20.443  1.00  0.00     0.108 A 
HETATM   26  N7  UNL     1      -5.659  33.934 -20.244  1.00  0.00    -0.097 NA
HETATM   27  C11 UNL     1      -6.021  31.561 -19.820  1.00  0.00     0.101 A 
HETATM   28  N8  UNL     1      -7.091  31.885 -18.927  1.00  0.00    -0.098 NA
BRANCH  23  29
HETATM   29  O2  UNL     1      -2.965  30.540 -22.367  1.00  0.00    -0.358 OA
ATOM     30  H2  UNL     1      -2.715  31.122 -23.074  1.00  0.00     0.217 HD
ENDBRANCH  23  29
BRANCH  24  31
HETATM   31  O3  UNL     1      -3.572  33.168 -21.979  1.00  0.00    -0.356 OA
ATOM     32  H3  UNL     1      -3.462  34.016 -21.567  1.00  0.00     0.218 HD
ENDBRANCH  24  31
ENDBRANCH  18  21
ENDBRANCH   1  17
BRANCH   1  33
HETATM   33  N9  UNL     1      -6.863  26.578 -17.990  1.00  0.00    -0.164 N 
ATOM     34  H9  UNL     1      -6.072  26.031 -17.648  1.00  0.00     0.216 HD
BRANCH  33  35
HETATM   35  N10 UNL     1      -7.714  25.977 -18.914  1.00  0.00    -0.022 N 
HETATM   36  O4  UNL     1      -8.052  26.639 -19.913  1.00  0.00    -0.515 OA
HETATM   37  O5  UNL     1      -8.209  24.701 -18.803  1.00  0.00    -0.515 OA
ENDBRANCH  33  35
ENDBRANCH   1  33
TORSDOF 10
ENDMDL
MODEL 2
REMARK VINA RESULT: -6.276588854      1.171      1.769
REMARK  10 active torsions:
REMARK  status: ('A' for Active; 'I' for Inactive)
REMARK    1  A    between atoms: N1_2  and  N2_3 
REMARK    2  A    between atoms: N2_3  and  C2_4 
REMARK    3  A    between atoms: C4_8  and  O1_9 
REMARK    4  A    between atoms: C5_11  and  N4_12 
REMARK    5  A    between atoms: N4_12  and  N5_13 
REMARK    6  A    between atoms: N4_12  and  N9_29 
REMARK    7  A    between atoms: N6_15  and  C6_17 
REMARK    8  A    between atoms: C8_19  and  O2_20 
REMARK    9  A    between atoms: C9_22  and  O3_23 
REMARK   10  A    between atoms: N9_29  and  N10_31 
ROOT
HETATM    1  N4  UNL     1      -7.032  27.780 -17.493  1.00  0.00    -0.190 N 
ENDROOT
BRANCH   1   2
HETATM    2  C5  UNL     1      -7.978  28.100 -16.408  1.00  0.00     0.192 C 
HETATM    3  C4  UNL     1      -9.071  28.909 -16.977  1.00  0.00     0.244 C 
HETATM    4  N3  UNL     1     -10.244  29.054 -16.212  1.00  0.00    -0.372 N 
HETATM    5  C3  UNL     1     -10.369  28.363 -15.001  1.00  0.00     0.096 C 
ATOM      6  H3  UNL     1     -10.997  29.660 -16.538  1.00  0.00     0.161 HD
HETATM    7  C2  UNL     1      -9.722  29.121 -13.866  1.00  0.00     0.255 C 
HETATM    8  S1  UNL     1      -7.989  29.006 -13.815  1.00  0.00     0.171 S 
HETATM    9  C12 UNL     1      -7.178  28.759 -15.330  1.00  0.00     0.176 C 
HETATM   10  O6  UNL     1      -7.622  27.841 -12.899  1.00  0.00    -0.226 OA
HETATM   11  O7  UNL     1      -7.442  30.221 -13.100  1.00  0.00    -0.226 OA
BRANCH   3  12
HETATM   12  O1  UNL     1      -8.639  30.200 -17.354  1.00  0.00    -0.375 OA
ATOM     13  H1  UNL     1      -7.853  30.101 -17.880  1.00  0.00     0.212 HD
ENDBRANCH   3  12
BRANCH   7  14
HETATM   14  N2  UNL     1     -10.203  30.490 -13.918  1.00  0.00    -0.123 NA
BRANCH  14  15
HETATM   15  N1  UNL     1     -11.597  30.516 -13.958  1.00  0.00    -0.152 NA
HETATM   16  C1  UNL     1     -12.131  31.717 -14.506  1.00  0.00     0.154 C 
ENDBRANCH  14  15
ENDBRANCH   7  14
ENDBRANCH   1   2
BRANCH   1  17
HETATM   17  N5  UNL     1      -6.227  28.758 -18.073  1.00  0.00    -0.224 N 
HETATM   18  N6  UNL     1      -6.369  29.153 -19.268  1.00  0.00    -0.283 N 
ATOM     19  H6  UNL     1      -7.113  28.726 -19.821  1.00  0.00     0.188 HD
ATOM     20  H5  UNL     1      -5.488  29.177 -17.507  1.00  0.00     0.210 HD
BRANCH  18  21
HETATM   21  C6  UNL     1      -5.583  30.130 -19.885  1.00  0.00     0.078 A 
HETATM   22  C7  UNL     1      -5.974  31.450 -19.967  1.00  0.00     0.072 A 
HETATM   23  C8  UNL     1      -5.192  32.404 -20.576  1.00  0.00     0.103 A 
HETATM   24  C9  UNL     1      -3.982  32.037 -21.123  1.00  0.00     0.125 A 
HETATM   25  C10 UNL     1      -3.546  30.712 -21.064  1.00  0.00     0.108 A 
HETATM   26  N7  UNL     1      -2.299  30.354 -21.632  1.00  0.00    -0.097 NA
HETATM   27  C11 UNL     1      -4.359  29.809 -20.449  1.00  0.00     0.101 A 
HETATM   28  N8  UNL     1      -3.948  28.441 -20.367  1.00  0.00    -0.098 NA
BRANCH  23  29
HETATM   29  O2  UNL     1      -5.617  33.714 -20.638  1.00  0.00    -0.358 OA
ATOM     30  H2  UNL     1      -6.201  34.059 -19.973  1.00  0.00     0.217 HD
ENDBRANCH  23  29
BRANCH  24  31
HETATM   31  O3  UNL     1      -3.219  33.019 -21.729  1.00  0.00    -0.356 OA
ATOM     32  H3  UNL     1      -3.293  33.124 -22.670  1.00  0.00     0.218 HD
ENDBRANCH  24  31
ENDBRANCH  18  21
ENDBRANCH   1  17
BRANCH   1  33
HETATM   33  N9  UNL     1      -6.888  26.488 -18.001  1.00  0.00    -0.164 N 
ATOM     34  H9  UNL     1      -6.102  25.931 -17.663  1.00  0.00     0.216 HD
BRANCH  33  35
HETATM   35  N10 UNL     1      -7.740  25.904 -18.935  1.00  0.00    -0.022 N 
HETATM   36  O4  UNL     1      -8.068  26.580 -19.928  1.00  0.00    -0.515 OA
HETATM   37  O5  UNL     1      -8.247  24.632 -18.841  1.00  0.00    -0.515 OA
ENDBRANCH  33  35
ENDBRANCH   1  33
TORSDOF 10
ENDMDL
MODEL 3
REMARK VINA RESULT: -6.203881204      3.571      4.557
REMARK  10 active torsions:
REMARK  status: ('A' for Active; 'I' for Inactive)
REMARK    1  A    between atoms: N1_2  and  N2_3 
REMARK    2  A    between atoms: N2_3  and  C2_4 
REMARK    3  A    between atoms: C4_8  and  O1_9 
REMARK    4  A    between atoms: C5_11  and  N4_12 
REMARK    5  A    between atoms: N4_12  and  N5_13 
REMARK    6  A    between atoms: N4_12  and  N9_29 
REMARK    7  A    between atoms: N6_15  and  C6_17 
REMARK    8  A    between atoms: C8_19  and  O2_20 
REMARK    9  A    between atoms: C9_22  and  O3_23 
REMARK   10  A    between atoms: N9_29  and  N10_31 
ROOT
HETATM    1  N4  UNL     1      -7.024  27.306 -17.271  1.00  0.00    -0.190 N 
ENDROOT
BRANCH   1   2
HETATM    2  C5  UNL     1      -7.998  27.751 -16.257  1.00  0.00     0.192 C 
HETATM    3  C4  UNL     1      -9.051  28.524 -16.941  1.00  0.00     0.244 C 
HETATM    4  N3  UNL     1     -10.245  28.769 -16.237  1.00  0.00    -0.372 N 
HETATM    5  C3  UNL     1     -10.428  28.202 -14.970  1.00  0.00     0.096 C 
ATOM      6  H3  UNL     1     -10.971  29.356 -16.647  1.00  0.00     0.161 HD
HETATM    7  C2  UNL     1      -9.801  29.053 -13.891  1.00  0.00     0.255 C 
HETATM    8  S1  UNL     1      -8.075  28.907 -13.766  1.00  0.00     0.171 S 
HETATM    9  C12 UNL     1      -7.219  28.495 -15.220  1.00  0.00     0.176 C 
HETATM   10  O6  UNL     1      -7.768  27.829 -12.729  1.00  0.00    -0.226 OA
HETATM   11  O7  UNL     1      -7.522  30.173 -13.153  1.00  0.00    -0.226 OA
BRANCH   3  12
HETATM   12  O1  UNL     1      -8.573  29.763 -17.425  1.00  0.00    -0.375 OA
ATOM     13  H1  UNL     1      -7.709  29.905 -17.057  1.00  0.00     0.212 HD
ENDBRANCH   3  12
BRANCH   7  14
HETATM   14  N2  UNL     1     -10.245  30.421 -14.093  1.00  0.00    -0.123 NA
BRANCH  14  15
HETATM   15  N1  UNL     1     -11.637  30.494 -14.044  1.00  0.00    -0.152 NA
HETATM   16  C1  UNL     1     -12.162  31.734 -14.508  1.00  0.00     0.154 C 
ENDBRANCH  14  15
ENDBRANCH   7  14
ENDBRANCH   1   2
BRANCH   1  17
HETATM   17  N5  UNL     1      -5.749  26.870 -16.917  1.00  0.00    -0.224 N 
HETATM   18  N6  UNL     1      -4.693  27.296 -17.470  1.00  0.00    -0.283 N 
ATOM     19  H6  UNL     1      -4.795  27.992 -18.209  1.00  0.00     0.188 HD
ATOM     20  H5  UNL     1      -5.662  26.174 -16.176  1.00  0.00     0.210 HD
BRANCH  18  21
HETATM   21  C6  UNL     1      -3.397  26.883 -17.144  1.00  0.00     0.078 A 
HETATM   22  C7  UNL     1      -3.150  25.891 -16.218  1.00  0.00     0.072 A 
HETATM   23  C8  UNL     1      -1.871  25.492 -15.904  1.00  0.00     0.103 A 
HETATM   24  C9  UNL     1      -0.802  26.096 -16.529  1.00  0.00     0.125 A 
HETATM   25  C10 UNL     1      -1.007  27.105 -17.473  1.00  0.00     0.108 A 
HETATM   26  N7  UNL     1       0.106  27.715 -18.104  1.00  0.00    -0.097 NA
HETATM   27  C11 UNL     1      -2.292  27.461 -17.746  1.00  0.00     0.101 A 
HETATM   28  N8  UNL     1      -2.543  28.491 -18.707  1.00  0.00    -0.098 NA
BRANCH  23  29
HETATM   29  O2  UNL     1      -1.663  24.497 -14.974  1.00  0.00    -0.358 OA
ATOM     30  H2  UNL     1      -2.249  24.407 -14.232  1.00  0.00     0.217 HD
ENDBRANCH  23  29
BRANCH  24  31
HETATM   31  O3  UNL     1       0.471  25.674 -16.192  1.00  0.00    -0.356 OA
ATOM     32  H3  UNL     1       0.753  24.821 -16.500  1.00  0.00     0.218 HD
ENDBRANCH  24  31
ENDBRANCH  18  21
ENDBRANCH   1  17
BRANCH   1  33
HETATM   33  N9  UNL     1      -7.318  27.297 -18.635  1.00  0.00    -0.164 N 
ATOM     34  H9  UNL     1      -7.229  28.176 -19.145  1.00  0.00     0.216 HD
BRANCH  33  35
HETATM   35  N10 UNL     1      -7.725  26.172 -19.350  1.00  0.00    -0.022 N 
HETATM   36  O4  UNL     1      -7.806  26.266 -20.589  1.00  0.00    -0.515 OA
HETATM   37  O5  UNL     1      -8.045  24.963 -18.784  1.00  0.00    -0.515 OA
ENDBRANCH  33  35
ENDBRANCH   1  33
TORSDOF 10
ENDMDL
MODEL 4
REMARK VINA RESULT: -6.083708983      6.282      8.375
REMARK  10 active torsions:
REMARK  status: ('A' for Active; 'I' for Inactive)
REMARK    1  A    between atoms: N1_2  and  N2_3 
REMARK    2  A    between atoms: N2_3  and  C2_4 
REMARK    3  A    between atoms: C4_8  and  O1_9 
REMARK    4  A    between atoms: C5_11  and  N4_12 
REMARK    5  A    between atoms: N4_12  and  N5_13 
REMARK    6  A    between atoms: N4_12  and  N9_29 
REMARK    7  A    between atoms: N6_15  and  C6_17 
REMARK    8  A    between atoms: C8_19  and  O2_20 
REMARK    9  A    between atoms: C9_22  and  O3_23 
REMARK   10  A    between atoms: N9_29  and  N10_31 
ROOT
HETATM    1  N4  UNL     1      -4.830  26.275 -22.935  1.00  0.00    -0.190 N 
ENDROOT
BRANCH   1   2
HETATM    2  C5  UNL     1      -5.425  26.417 -21.593  1.00  0.00     0.192 C 
HETATM    3  C4  UNL     1      -6.875  26.631 -21.756  1.00  0.00     0.244 C 
HETATM    4  N3  UNL     1      -7.691  26.470 -20.621  1.00  0.00    -0.372 N 
HETATM    5  C3  UNL     1      -7.125  26.027 -19.419  1.00  0.00     0.096 C 
ATOM      6  H3  UNL     1      -8.689  26.673 -20.673  1.00  0.00     0.161 HD
HETATM    7  C2  UNL     1      -6.532  27.175 -18.636  1.00  0.00     0.255 C 
HETATM    8  S1  UNL     1      -4.994  27.732 -19.220  1.00  0.00     0.171 S 
HETATM    9  C12 UNL     1      -4.679  27.522 -20.915  1.00  0.00     0.176 C 
HETATM   10  O6  UNL     1      -3.902  26.988 -18.453  1.00  0.00    -0.226 OA
HETATM   11  O7  UNL     1      -4.811  29.175 -18.810  1.00  0.00    -0.226 OA
BRANCH   3  12
HETATM   12  O1  UNL     1      -7.167  27.893 -22.322  1.00  0.00    -0.375 OA
ATOM     13  H1  UNL     1      -6.831  27.897 -23.211  1.00  0.00     0.212 HD
ENDBRANCH   3  12
BRANCH   7  14
HETATM   14  N2  UNL     1      -7.532  28.227 -18.568  1.00  0.00    -0.123 NA
BRANCH  14  15
HETATM   15  N1  UNL     1      -8.746  27.716 -18.109  1.00  0.00    -0.152 NA
HETATM   16  C1  UNL     1      -9.373  28.530 -17.123  1.00  0.00     0.154 C 
ENDBRANCH  14  15
ENDBRANCH   7  14
ENDBRANCH   1   2
BRANCH   1  17
HETATM   17  N5  UNL     1      -5.035  25.134 -23.708  1.00  0.00    -0.224 N 
HETATM   18  N6  UNL     1      -5.640  25.152 -24.820  1.00  0.00    -0.283 N 
ATOM     19  H6  UNL     1      -5.987  26.051 -25.155  1.00  0.00     0.188 HD
ATOM     20  H5  UNL     1      -4.682  24.242 -23.361  1.00  0.00     0.210 HD
BRANCH  18  21
HETATM   21  C6  UNL     1      -5.866  24.030 -25.624  1.00  0.00     0.078 A 
HETATM   22  C7  UNL     1      -7.131  23.649 -26.021  1.00  0.00     0.072 A 
HETATM   23  C8  UNL     1      -7.342  22.543 -26.812  1.00  0.00     0.103 A 
HETATM   24  C9  UNL     1      -6.265  21.790 -27.223  1.00  0.00     0.125 A 
HETATM   25  C10 UNL     1      -4.966  22.139 -26.844  1.00  0.00     0.108 A 
HETATM   26  N7  UNL     1      -3.870  21.352 -27.277  1.00  0.00    -0.097 NA
HETATM   27  C11 UNL     1      -4.814  23.243 -26.061  1.00  0.00     0.101 A 
HETATM   28  N8  UNL     1      -3.500  23.634 -25.653  1.00  0.00    -0.098 NA
BRANCH  23  29
HETATM   29  O2  UNL     1      -8.621  22.193 -27.188  1.00  0.00    -0.358 OA
ATOM     30  H2  UNL     1      -8.950  22.437 -28.045  1.00  0.00     0.217 HD
ENDBRANCH  23  29
BRANCH  24  31
HETATM   31  O3  UNL     1      -6.509  20.685 -28.017  1.00  0.00    -0.356 OA
ATOM     32  H3  UNL     1      -6.699  19.860 -27.587  1.00  0.00     0.218 HD
ENDBRANCH  24  31
ENDBRANCH  18  21
ENDBRANCH   1  17
BRANCH   1  33
HETATM   33  N9  UNL     1      -4.030  27.266 -23.505  1.00  0.00    -0.164 N 
ATOM     34  H9  UNL     1      -3.028  27.234 -23.315  1.00  0.00     0.216 HD
BRANCH  33  35
HETATM   35  N10 UNL     1      -4.502  28.295 -24.316  1.00  0.00    -0.022 N 
HETATM   36  O4  UNL     1      -5.584  28.123 -24.908  1.00  0.00    -0.515 OA
HETATM   37  O5  UNL     1      -3.857  29.492 -24.511  1.00  0.00    -0.515 OA
ENDBRANCH  33  35
ENDBRANCH   1  33
TORSDOF 10
ENDMDL
MODEL 5
REMARK VINA RESULT: -6.080154148      7.534     10.525
REMARK  10 active torsions:
REMARK  status: ('A' for Active; 'I' for Inactive)
REMARK    1  A    between atoms: N1_2  and  N2_3 
REMARK    2  A    between atoms: N2_3  and  C2_4 
REMARK    3  A    between atoms: C4_8  and  O1_9 
REMARK    4  A    between atoms: C5_11  and  N4_12 
REMARK    5  A    between atoms: N4_12  and  N5_13 
REMARK    6  A    between atoms: N4_12  and  N9_29 
REMARK    7  A    between atoms: N6_15  and  C6_17 
REMARK    8  A    between atoms: C8_19  and  O2_20 
REMARK    9  A    between atoms: C9_22  and  O3_23 
REMARK   10  A    between atoms: N9_29  and  N10_31 
ROOT
HETATM    1  N4  UNL     1      -3.482  25.685 -24.416  1.00  0.00    -0.190 N 
ENDROOT
BRANCH   1   2
HETATM    2  C5  UNL     1      -4.145  26.961 -24.088  1.00  0.00     0.192 C 
HETATM    3  C4  UNL     1      -5.113  26.709 -23.006  1.00  0.00     0.244 C 
HETATM    4  N3  UNL     1      -5.623  27.823 -22.312  1.00  0.00    -0.372 N 
HETATM    5  C3  UNL     1      -5.132  29.102 -22.603  1.00  0.00     0.096 C 
ATOM      6  H3  UNL     1      -6.344  27.699 -21.602  1.00  0.00     0.161 HD
HETATM    7  C2  UNL     1      -5.848  29.709 -23.787  1.00  0.00     0.255 C 
HETATM    8  S1  UNL     1      -5.336  29.101 -25.332  1.00  0.00     0.171 S 
HETATM    9  C12 UNL     1      -4.723  27.476 -25.368  1.00  0.00     0.176 C 
HETATM   10  O6  UNL     1      -4.237  30.020 -25.858  1.00  0.00    -0.226 OA
HETATM   11  O7  UNL     1      -6.465  29.274 -26.322  1.00  0.00    -0.226 OA
BRANCH   3  12
HETATM   12  O1  UNL     1      -6.211  25.933 -23.441  1.00  0.00    -0.375 OA
ATOM     13  H1  UNL     1      -6.992  26.273 -23.021  1.00  0.00     0.212 HD
ENDBRANCH   3  12
BRANCH   7  14
HETATM   14  N2  UNL     1      -7.276  29.564 -23.561  1.00  0.00    -0.123 NA
BRANCH  14  15
HETATM   15  N1  UNL     1      -7.933  30.770 -23.808  1.00  0.00    -0.152 NA
HETATM   16  C1  UNL     1      -7.305  31.897 -23.205  1.00  0.00     0.154 C 
ENDBRANCH  14  15
ENDBRANCH   7  14
ENDBRANCH   1   2
BRANCH   1  17
HETATM   17  N5  UNL     1      -4.022  24.798 -25.345  1.00  0.00    -0.224 N 
HETATM   18  N6  UNL     1      -4.931  23.964 -25.059  1.00  0.00    -0.283 N 
ATOM     19  H6  UNL     1      -5.276  23.952 -24.098  1.00  0.00     0.188 HD
ATOM     20  H5  UNL     1      -3.668  24.822 -26.301  1.00  0.00     0.210 HD
BRANCH  18  21
HETATM   21  C6  UNL     1      -5.497  23.059 -25.961  1.00  0.00     0.078 A 
HETATM   22  C7  UNL     1      -6.852  23.022 -26.218  1.00  0.00     0.072 A 
HETATM   23  C8  UNL     1      -7.398  22.126 -27.109  1.00  0.00     0.103 A 
HETATM   24  C9  UNL     1      -6.575  21.239 -27.766  1.00  0.00     0.125 A 
HETATM   25  C10 UNL     1      -5.198  21.241 -27.536  1.00  0.00     0.108 A 
HETATM   26  N7  UNL     1      -4.367  20.320 -28.222  1.00  0.00    -0.097 NA
HETATM   27  C11 UNL     1      -4.709  22.147 -26.645  1.00  0.00     0.101 A 
HETATM   28  N8  UNL     1      -3.303  22.182 -26.382  1.00  0.00    -0.098 NA
BRANCH  23  29
HETATM   29  O2  UNL     1      -8.757  22.120 -27.340  1.00  0.00    -0.358 OA
ATOM     30  H2  UNL     1      -9.351  21.761 -26.691  1.00  0.00     0.217 HD
ENDBRANCH  23  29
BRANCH  24  31
HETATM   31  O3  UNL     1      -7.154  20.351 -28.655  1.00  0.00    -0.356 OA
ATOM     32  H3  UNL     1      -6.581  19.778 -29.149  1.00  0.00     0.218 HD
ENDBRANCH  24  31
ENDBRANCH  18  21
ENDBRANCH   1  17
BRANCH   1  33
HETATM   33  N9  UNL     1      -2.283  25.291 -23.818  1.00  0.00    -0.164 N 
ATOM     34  H9  UNL     1      -1.457  25.866 -23.990  1.00  0.00     0.216 HD
BRANCH  33  35
HETATM   35  N10 UNL     1      -2.134  24.171 -23.004  1.00  0.00    -0.022 N 
HETATM   36  O4  UNL     1      -3.155  23.520 -22.714  1.00  0.00    -0.515 OA
HETATM   37  O5  UNL     1      -0.938  23.730 -22.495  1.00  0.00    -0.515 OA
ENDBRANCH  33  35
ENDBRANCH   1  33
TORSDOF 10
ENDMDL
