MODEL 1
REMARK VINA RESULT: -6.657349541      0.000      0.000
REMARK  12 active torsions:
REMARK  status: ('A' for Active; 'I' for Inactive)
REMARK    1  A    between atoms: C2_2  and  O1_3 
REMARK    2  A    between atoms: C2_2  and  C3_5 
REMARK    3  A    between atoms: C3_5  and  N1_6 
REMARK    4  A    between atoms: C3_5  and  C9_23 
REMARK    5  A    between atoms: N1_6  and  C4_8 
REMARK    6  A    between atoms: C4_8  and  O2_9 
REMARK    7  A    between atoms: C8_19  and  N3_20 
REMARK    8  A    between atoms: C9_23  and  C10_25 
REMARK    9  A    between atoms: C10_25  and  N4_26 
REMARK   10  A    between atoms: C11_31  and  C12_32 
REMARK   11  A    between atoms: C13_35  and  N8_36 
REMARK   12  A    between atoms: C14_41  and  N10_42 
ROOT
HETATM    1  C9  UNL     1      -7.156  26.436 -19.217  1.00  0.00     0.173 C 
HETATM    2  O5  UNL     1      -8.188  25.853 -19.621  1.00  0.00    -0.294 OA
ENDROOT
BRANCH   1   3
HETATM    3  C3  UNL     1      -6.195  26.900 -20.221  1.00  0.00     0.183 C 
BRANCH   3   4
HETATM    4  C2  UNL     1      -6.435  26.555 -21.637  1.00  0.00     0.144 C 
HETATM    5  C1  UNL     1      -5.478  27.367 -22.524  1.00  0.00     0.042 C 
BRANCH   4   6
HETATM    6  O1  UNL     1      -7.713  27.108 -21.967  1.00  0.00    -0.393 OA
ATOM      7  H1  UNL     1      -8.118  26.410 -22.468  1.00  0.00     0.210 HD
ENDBRANCH   4   6
ENDBRANCH   3   4
BRANCH   3   8
HETATM    8  N1  UNL     1      -6.039  28.352 -20.014  1.00  0.00    -0.356 N 
ATOM      9  H1  UNL     1      -6.622  28.994 -20.551  1.00  0.00     0.162 HD
BRANCH   8  10
HETATM   10  C4  UNL     1      -5.119  28.869 -19.107  1.00  0.00     0.158 C 
HETATM   11  C5  UNL     1      -5.172  29.798 -18.204  1.00  0.00     0.102 C 
HETATM   12  S1  UNL     1      -3.625  30.103 -17.235  1.00  0.00    -0.034 SA
HETATM   13  C8  UNL     1      -6.301  30.628 -17.815  1.00  0.00     0.123 C 
HETATM   14  C6  UNL     1      -4.282  30.169 -15.546  1.00  0.00     0.281 C 
HETATM   15  O3  UNL     1      -3.690  29.586 -14.654  1.00  0.00    -0.274 OA
HETATM   16  C7  UNL     1      -5.513  30.951 -15.424  1.00  0.00     0.304 C 
HETATM   17  O4  UNL     1      -5.740  31.464 -14.285  1.00  0.00    -0.263 OA
HETATM   18  N2  UNL     1      -6.402  31.138 -16.478  1.00  0.00    -0.305 N 
ATOM     19  H2  UNL     1      -7.225  31.707 -16.276  1.00  0.00     0.170 HD
BRANCH  10  20
HETATM   20  O2  UNL     1      -3.835  28.231 -19.193  1.00  0.00    -0.345 OA
ATOM     21  H2  UNL     1      -3.459  28.045 -18.341  1.00  0.00     0.219 HD
ENDBRANCH  10  20
BRANCH  13  22
HETATM   22  N3  UNL     1      -7.166  30.923 -18.686  1.00  0.00    -0.384 N 
ATOM     23  H32 UNL     1      -6.889  31.337 -19.576  1.00  0.00     0.157 HD
ATOM     24  H31 UNL     1      -8.145  30.710 -18.497  1.00  0.00     0.157 HD
ENDBRANCH  13  22
ENDBRANCH   8  10
ENDBRANCH   3   8
ENDBRANCH   1   3
BRANCH   1  25
HETATM   25  C10 UNL     1      -7.027  26.586 -17.754  1.00  0.00     0.251 C 
BRANCH  25  26
HETATM   26  N4  UNL     1      -8.044  27.514 -17.237  1.00  0.00    -0.211 N 
HETATM   27  N5  UNL     1      -9.078  27.968 -17.887  1.00  0.00    -0.224 N 
HETATM   28  N6  UNL     1      -9.782  28.779 -17.134  1.00  0.00    -0.265 N 
ATOM     29  H5  UNL     1      -9.310  27.725 -18.850  1.00  0.00     0.210 HD
HETATM   30  C11 UNL     1      -9.166  28.843 -15.955  1.00  0.00     0.183 A 
ATOM     31  H6  UNL     1     -10.637  29.268 -17.402  1.00  0.00     0.190 HD
HETATM   32  N12 UNL     1      -8.082  28.049 -16.029  1.00  0.00    -0.263 N 
ATOM     33  H12 UNL     1      -7.406  27.888 -15.281  1.00  0.00     0.190 HD
BRANCH  30  34
HETATM   34  C12 UNL     1      -9.590  29.645 -14.821  1.00  0.00     0.183 A 
HETATM   35  N7  UNL     1     -10.905  29.740 -14.529  1.00  0.00    -0.172 N 
HETATM   36  C13 UNL     1     -11.329  30.491 -13.495  1.00  0.00     0.692 A 
ATOM     37  H7  UNL     1     -11.585  29.238 -15.099  1.00  0.00     0.186 HD
HETATM   38  N9  UNL     1     -10.429  31.147 -12.749  1.00  0.00    -0.023 N 
HETATM   39  C14 UNL     1      -9.115  31.054 -13.036  1.00  0.00     0.692 A 
ATOM     40  H9  UNL     1     -10.739  31.718 -11.962  1.00  0.00     0.203 HD
HETATM   41  N11 UNL     1      -8.697  30.318 -14.053  1.00  0.00    -0.172 N 
ATOM     42  H11 UNL     1      -7.701  30.256 -14.261  1.00  0.00     0.186 HD
BRANCH  36  43
HETATM   43  N8  UNL     1     -12.590  30.608 -13.190  1.00  0.00    -0.234 N 
ATOM     44  H82 UNL     1     -12.953  30.064 -12.408  1.00  0.00     0.174 HD
ATOM     45  H81 UNL     1     -13.220  31.223 -13.705  1.00  0.00     0.174 HD
ENDBRANCH  36  43
BRANCH  39  46
HETATM   46  N10 UNL     1      -8.246  31.693 -12.309  1.00  0.00    -0.234 N 
ATOM     47 2H10 UNL     1      -8.508  32.008 -11.375  1.00  0.00     0.174 HD
ATOM     48 1H10 UNL     1      -7.311  31.874 -12.675  1.00  0.00     0.174 HD
ENDBRANCH  39  46
ENDBRANCH  30  34
ENDBRANCH  25  26
ENDBRANCH   1  25
TORSDOF 12
ENDMDL
MODEL 2
REMARK VINA RESULT: -6.649990847      4.518      8.956
REMARK  12 active torsions:
REMARK  status: ('A' for Active; 'I' for Inactive)
REMARK    1  A    between atoms: C2_2  and  O1_3 
REMARK    2  A    between atoms: C2_2  and  C3_5 
REMARK    3  A    between atoms: C3_5  and  N1_6 
REMARK    4  A    between atoms: C3_5  and  C9_23 
REMARK    5  A    between atoms: N1_6  and  C4_8 
REMARK    6  A    between atoms: C4_8  and  O2_9 
REMARK    7  A    between atoms: C8_19  and  N3_20 
REMARK    8  A    between atoms: C9_23  and  C10_25 
REMARK    9  A    between atoms: C10_25  and  N4_26 
REMARK   10  A    between atoms: C11_31  and  C12_32 
REMARK   11  A    between atoms: C13_35  and  N8_36 
REMARK   12  A    between atoms: C14_41  and  N10_42 
ROOT
HETATM    1  C9  UNL     1      -7.061  26.909 -19.782  1.00  0.00     0.173 C 
HETATM    2  O5  UNL     1      -8.036  26.126 -19.818  1.00  0.00    -0.294 OA
ENDROOT
BRANCH   1   3
HETATM    3  C3  UNL     1      -6.580  27.344 -18.468  1.00  0.00     0.183 C 
BRANCH   3   4
HETATM    4  C2  UNL     1      -5.144  27.647 -18.309  1.00  0.00     0.144 C 
HETATM    5  C1  UNL     1      -4.605  26.908 -17.074  1.00  0.00     0.042 C 
BRANCH   4   6
HETATM    6  O1  UNL     1      -5.072  29.019 -17.908  1.00  0.00    -0.393 OA
ATOM      7  H1  UNL     1      -5.965  29.319 -18.030  1.00  0.00     0.210 HD
ENDBRANCH   4   6
ENDBRANCH   3   4
BRANCH   3   8
HETATM    8  N1  UNL     1      -7.442  28.467 -18.055  1.00  0.00    -0.356 N 
ATOM      9  H1  UNL     1      -7.308  29.380 -18.489  1.00  0.00     0.162 HD
BRANCH   8  10
HETATM   10  C4  UNL     1      -8.433  28.314 -17.090  1.00  0.00     0.158 C 
HETATM   11  C5  UNL     1      -8.534  28.663 -15.844  1.00  0.00     0.102 C 
HETATM   12  S1  UNL     1     -10.109  28.211 -14.983  1.00  0.00    -0.034 SA
HETATM   13  C8  UNL     1      -7.586  29.397 -15.022  1.00  0.00     0.123 C 
HETATM   14  C6  UNL     1     -10.507  29.773 -14.149  1.00  0.00     0.281 C 
HETATM   15  O3  UNL     1     -11.654  30.184 -14.172  1.00  0.00    -0.274 OA
HETATM   16  C7  UNL     1      -9.354  30.407 -13.507  1.00  0.00     0.304 C 
HETATM   17  O4  UNL     1      -9.610  31.164 -12.522  1.00  0.00    -0.263 OA
HETATM   18  N2  UNL     1      -8.044  30.208 -13.931  1.00  0.00    -0.305 N 
ATOM     19  H2  UNL     1      -7.322  30.699 -13.403  1.00  0.00     0.170 HD
BRANCH  10  20
HETATM   20  O2  UNL     1      -9.589  27.624 -17.584  1.00  0.00    -0.345 OA
ATOM     21  H2  UNL     1     -10.319  28.207 -17.760  1.00  0.00     0.219 HD
ENDBRANCH  10  20
BRANCH  13  22
HETATM   22  N3  UNL     1      -6.352  29.273 -15.261  1.00  0.00    -0.384 N 
ATOM     23  H32 UNL     1      -6.017  28.574 -15.924  1.00  0.00     0.157 HD
ATOM     24  H31 UNL     1      -5.698  29.906 -14.802  1.00  0.00     0.157 HD
ENDBRANCH  13  22
ENDBRANCH   8  10
ENDBRANCH   3   8
ENDBRANCH   1   3
BRANCH   1  25
HETATM   25  C10 UNL     1      -6.502  27.309 -21.089  1.00  0.00     0.251 C 
BRANCH  25  26
HETATM   26  N4  UNL     1      -5.931  26.148 -21.786  1.00  0.00    -0.211 N 
HETATM   27  N5  UNL     1      -5.036  25.326 -21.314  1.00  0.00    -0.224 N 
HETATM   28  N6  UNL     1      -4.743  24.400 -22.196  1.00  0.00    -0.265 N 
ATOM     29  H5  UNL     1      -4.620  25.392 -20.385  1.00  0.00     0.210 HD
HETATM   30  C11 UNL     1      -5.484  24.647 -23.275  1.00  0.00     0.183 A 
ATOM     31  H6  UNL     1      -4.074  23.639 -22.078  1.00  0.00     0.190 HD
HETATM   32  N12 UNL     1      -6.223  25.739 -23.009  1.00  0.00    -0.263 N 
ATOM     33  H12 UNL     1      -6.893  26.177 -23.642  1.00  0.00     0.190 HD
BRANCH  30  34
HETATM   34  C12 UNL     1      -5.466  23.879 -24.508  1.00  0.00     0.183 A 
HETATM   35  N7  UNL     1      -6.630  23.450 -25.041  1.00  0.00    -0.172 N 
HETATM   36  C13 UNL     1      -6.642  22.721 -26.173  1.00  0.00     0.692 A 
ATOM     37  H7  UNL     1      -7.510  23.681 -24.581  1.00  0.00     0.186 HD
HETATM   38  N9  UNL     1      -5.481  22.422 -26.773  1.00  0.00    -0.023 N 
HETATM   39  C14 UNL     1      -4.317  22.849 -26.245  1.00  0.00     0.692 A 
ATOM     40  H9  UNL     1      -5.479  21.872 -27.631  1.00  0.00     0.203 HD
HETATM   41  N11 UNL     1      -4.303  23.565 -25.132  1.00  0.00    -0.172 N 
ATOM     42  H11 UNL     1      -3.416  23.881 -24.741  1.00  0.00     0.186 HD
BRANCH  36  43
HETATM   43  N8  UNL     1      -7.747  22.288 -26.709  1.00  0.00    -0.234 N 
ATOM     44  H82 UNL     1      -8.543  22.105 -26.100  1.00  0.00     0.174 HD
ATOM     45  H81 UNL     1      -7.840  22.131 -27.713  1.00  0.00     0.174 HD
ENDBRANCH  36  43
BRANCH  39  46
HETATM   46  N10 UNL     1      -3.193  22.558 -26.831  1.00  0.00    -0.234 N 
ATOM     47 2H10 UNL     1      -3.202  21.991 -27.679  1.00  0.00     0.174 HD
ATOM     48 1H10 UNL     1      -2.313  22.896 -26.442  1.00  0.00     0.174 HD
ENDBRANCH  39  46
ENDBRANCH  30  34
ENDBRANCH  25  26
ENDBRANCH   1  25
TORSDOF 12
ENDMDL
MODEL 3
REMARK VINA RESULT: -6.631221860      4.515      9.061
REMARK  12 active torsions:
REMARK  status: ('A' for Active; 'I' for Inactive)
REMARK    1  A    between atoms: C2_2  and  O1_3 
REMARK    2  A    between atoms: C2_2  and  C3_5 
REMARK    3  A    between atoms: C3_5  and  N1_6 
REMARK    4  A    between atoms: C3_5  and  C9_23 
REMARK    5  A    between atoms: N1_6  and  C4_8 
REMARK    6  A    between atoms: C4_8  and  O2_9 
REMARK    7  A    between atoms: C8_19  and  N3_20 
REMARK    8  A    between atoms: C9_23  and  C10_25 
REMARK    9  A    between atoms: C10_25  and  N4_26 
REMARK   10  A    between atoms: C11_31  and  C12_32 
REMARK   11  A    between atoms: C13_35  and  N8_36 
REMARK   12  A    between atoms: C14_41  and  N10_42 
ROOT
HETATM    1  C9  UNL     1      -7.059  26.918 -19.771  1.00  0.00     0.173 C 
HETATM    2  O5  UNL     1      -8.033  26.133 -19.806  1.00  0.00    -0.294 OA
ENDROOT
BRANCH   1   3
HETATM    3  C3  UNL     1      -6.581  27.357 -18.457  1.00  0.00     0.183 C 
BRANCH   3   4
HETATM    4  C2  UNL     1      -5.147  27.670 -18.298  1.00  0.00     0.144 C 
HETATM    5  C1  UNL     1      -4.601  26.929 -17.067  1.00  0.00     0.042 C 
BRANCH   4   6
HETATM    6  O1  UNL     1      -5.083  29.041 -17.893  1.00  0.00    -0.393 OA
ATOM      7  H1  UNL     1      -5.998  29.260 -17.758  1.00  0.00     0.210 HD
ENDBRANCH   4   6
ENDBRANCH   3   4
BRANCH   3   8
HETATM    8  N1  UNL     1      -7.449  28.476 -18.046  1.00  0.00    -0.356 N 
ATOM      9  H1  UNL     1      -7.318  29.390 -18.479  1.00  0.00     0.162 HD
BRANCH   8  10
HETATM   10  C4  UNL     1      -8.443  28.318 -17.084  1.00  0.00     0.158 C 
HETATM   11  C5  UNL     1      -8.548  28.662 -15.838  1.00  0.00     0.102 C 
HETATM   12  S1  UNL     1     -10.125  28.204 -14.982  1.00  0.00    -0.034 SA
HETATM   13  C8  UNL     1      -7.605  29.395 -15.010  1.00  0.00     0.123 C 
HETATM   14  C6  UNL     1     -10.529  29.762 -14.145  1.00  0.00     0.281 C 
HETATM   15  O3  UNL     1     -11.677  30.170 -14.169  1.00  0.00    -0.274 OA
HETATM   16  C7  UNL     1      -9.380  30.396 -13.497  1.00  0.00     0.304 C 
HETATM   17  O4  UNL     1      -9.640  31.150 -12.510  1.00  0.00    -0.263 OA
HETATM   18  N2  UNL     1      -8.068  30.202 -13.918  1.00  0.00    -0.305 N 
ATOM     19  H2  UNL     1      -7.349  30.693 -13.387  1.00  0.00     0.170 HD
BRANCH  10  20
HETATM   20  O2  UNL     1      -9.596  27.626 -17.584  1.00  0.00    -0.345 OA
ATOM     21  H2  UNL     1      -9.501  26.681 -17.554  1.00  0.00     0.219 HD
ENDBRANCH  10  20
BRANCH  13  22
HETATM   22  N3  UNL     1      -6.370  29.275 -15.246  1.00  0.00    -0.384 N 
ATOM     23  H32 UNL     1      -5.837  28.501 -14.849  1.00  0.00     0.157 HD
ATOM     24  H31 UNL     1      -5.921  29.948 -15.867  1.00  0.00     0.157 HD
ENDBRANCH  13  22
ENDBRANCH   8  10
ENDBRANCH   3   8
ENDBRANCH   1   3
BRANCH   1  25
HETATM   25  C10 UNL     1      -6.499  27.315 -21.079  1.00  0.00     0.251 C 
BRANCH  25  26
HETATM   26  N4  UNL     1      -5.934  26.151 -21.775  1.00  0.00    -0.211 N 
HETATM   27  N5  UNL     1      -5.030  25.335 -21.311  1.00  0.00    -0.224 N 
HETATM   28  N6  UNL     1      -4.745  24.405 -22.190  1.00  0.00    -0.265 N 
ATOM     29  H5  UNL     1      -4.600  25.410 -20.388  1.00  0.00     0.210 HD
HETATM   30  C11 UNL     1      -5.503  24.641 -23.259  1.00  0.00     0.183 A 
ATOM     31  H6  UNL     1      -4.072  23.646 -22.076  1.00  0.00     0.190 HD
HETATM   32  N12 UNL     1      -6.242  25.733 -22.991  1.00  0.00    -0.263 N 
ATOM     33  H12 UNL     1      -6.922  26.163 -23.617  1.00  0.00     0.190 HD
BRANCH  30  34
HETATM   34  C12 UNL     1      -5.500  23.864 -24.487  1.00  0.00     0.183 A 
HETATM   35  N7  UNL     1      -4.326  23.586 -25.094  1.00  0.00    -0.172 N 
HETATM   36  C13 UNL     1      -4.295  22.884 -26.243  1.00  0.00     0.692 A 
ATOM     37  H7  UNL     1      -3.454  23.912 -24.679  1.00  0.00     0.186 HD
HETATM   38  N9  UNL     1      -5.445  22.457 -26.783  1.00  0.00    -0.023 N 
HETATM   39  C14 UNL     1      -6.618  22.731 -26.179  1.00  0.00     0.692 A 
ATOM     40  H9  UNL     1      -5.432  21.923 -27.652  1.00  0.00     0.203 HD
HETATM   41  N11 UNL     1      -6.651  23.423 -25.051  1.00  0.00    -0.172 N 
ATOM     42  H11 UNL     1      -7.546  23.625 -24.604  1.00  0.00     0.186 HD
BRANCH  36  43
HETATM   43  N8  UNL     1      -3.180  22.604 -26.856  1.00  0.00    -0.234 N 
ATOM     44  H82 UNL     1      -2.325  22.539 -26.304  1.00  0.00     0.174 HD
ATOM     45  H81 UNL     1      -3.137  22.445 -27.863  1.00  0.00     0.174 HD
ENDBRANCH  36  43
BRANCH  39  46
HETATM   46  N10 UNL     1      -7.732  22.315 -26.706  1.00  0.00    -0.234 N 
ATOM     47 2H10 UNL     1      -8.520  22.957 -26.788  1.00  0.00     0.174 HD
ATOM     48 1H10 UNL     1      -7.811  21.352 -27.034  1.00  0.00     0.174 HD
ENDBRANCH  39  46
ENDBRANCH  30  34
ENDBRANCH  25  26
ENDBRANCH   1  25
TORSDOF 12
ENDMDL
MODEL 4
REMARK VINA RESULT: -6.371374001      3.285      6.039
REMARK  12 active torsions:
REMARK  status: ('A' for Active; 'I' for Inactive)
REMARK    1  A    between atoms: C2_2  and  O1_3 
REMARK    2  A    between atoms: C2_2  and  C3_5 
REMARK    3  A    between atoms: C3_5  and  N1_6 
REMARK    4  A    between atoms: C3_5  and  C9_23 
REMARK    5  A    between atoms: N1_6  and  C4_8 
REMARK    6  A    between atoms: C4_8  and  O2_9 
REMARK    7  A    between atoms: C8_19  and  N3_20 
REMARK    8  A    between atoms: C9_23  and  C10_25 
REMARK    9  A    between atoms: C10_25  and  N4_26 
REMARK   10  A    between atoms: C11_31  and  C12_32 
REMARK   11  A    between atoms: C13_35  and  N8_36 
REMARK   12  A    between atoms: C14_41  and  N10_42 
ROOT
HETATM    1  C9  UNL     1      -6.980  26.535 -19.327  1.00  0.00     0.173 C 
HETATM    2  O5  UNL     1      -8.002  25.999 -19.811  1.00  0.00    -0.294 OA
ENDROOT
BRANCH   1   3
HETATM    3  C3  UNL     1      -5.965  27.038 -20.256  1.00  0.00     0.183 C 
BRANCH   3   4
HETATM    4  C2  UNL     1      -4.941  27.970 -19.744  1.00  0.00     0.144 C 
HETATM    5  C1  UNL     1      -4.674  29.058 -20.796  1.00  0.00     0.042 C 
BRANCH   4   6
HETATM    6  O1  UNL     1      -3.711  27.238 -19.732  1.00  0.00    -0.393 OA
ATOM      7  H1  UNL     1      -3.934  26.464 -19.228  1.00  0.00     0.210 HD
ENDBRANCH   4   6
ENDBRANCH   3   4
BRANCH   3   8
HETATM    8  N1  UNL     1      -5.373  25.857 -20.912  1.00  0.00    -0.356 N 
ATOM      9  H1  UNL     1      -4.877  25.171 -20.345  1.00  0.00     0.162 HD
BRANCH   8  10
HETATM   10  C4  UNL     1      -5.474  25.654 -22.286  1.00  0.00     0.158 C 
HETATM   11  C5  UNL     1      -4.621  25.340 -23.212  1.00  0.00     0.102 C 
HETATM   12  S1  UNL     1      -5.286  25.186 -24.933  1.00  0.00    -0.034 SA
HETATM   13  C8  UNL     1      -3.201  25.056 -23.086  1.00  0.00     0.123 C 
HETATM   14  C6  UNL     1      -4.528  23.623 -25.457  1.00  0.00     0.281 C 
HETATM   15  O3  UNL     1      -5.205  22.804 -26.053  1.00  0.00    -0.274 OA
HETATM   16  C7  UNL     1      -3.116  23.503 -25.092  1.00  0.00     0.304 C 
HETATM   17  O4  UNL     1      -2.411  22.743 -25.824  1.00  0.00    -0.263 OA
HETATM   18  N2  UNL     1      -2.551  24.173 -24.010  1.00  0.00    -0.305 N 
ATOM     19  H2  UNL     1      -1.555  24.015 -23.856  1.00  0.00     0.170 HD
BRANCH  10  20
HETATM   20  O2  UNL     1      -6.810  25.830 -22.778  1.00  0.00    -0.345 OA
ATOM     21  H2  UNL     1      -7.071  26.743 -22.816  1.00  0.00     0.219 HD
ENDBRANCH  10  20
BRANCH  13  22
HETATM   22  N3  UNL     1      -2.545  25.635 -22.175  1.00  0.00    -0.384 N 
ATOM     23  H32 UNL     1      -1.877  25.116 -21.605  1.00  0.00     0.157 HD
ATOM     24  H31 UNL     1      -2.670  26.637 -22.042  1.00  0.00     0.157 HD
ENDBRANCH  13  22
ENDBRANCH   8  10
ENDBRANCH   3   8
ENDBRANCH   1   3
BRANCH   1  25
HETATM   25  C10 UNL     1      -6.917  26.596 -17.853  1.00  0.00     0.251 C 
BRANCH  25  26
HETATM   26  N4  UNL     1      -7.973  27.471 -17.325  1.00  0.00    -0.211 N 
HETATM   27  N5  UNL     1      -9.076  27.805 -17.933  1.00  0.00    -0.224 N 
HETATM   28  N6  UNL     1      -9.799  28.603 -17.183  1.00  0.00    -0.265 N 
ATOM     29  H5  UNL     1      -9.343  27.489 -18.866  1.00  0.00     0.210 HD
HETATM   30  C11 UNL     1      -9.123  28.783 -16.050  1.00  0.00     0.183 A 
ATOM     31  H6  UNL     1     -10.704  29.008 -17.423  1.00  0.00     0.190 HD
HETATM   32  N12 UNL     1      -7.985  28.072 -16.147  1.00  0.00    -0.263 N 
ATOM     33  H12 UNL     1      -7.257  28.008 -15.436  1.00  0.00     0.190 HD
BRANCH  30  34
HETATM   34  C12 UNL     1      -9.545  29.616 -14.936  1.00  0.00     0.183 A 
HETATM   35  N7  UNL     1     -10.856  29.697 -14.628  1.00  0.00    -0.172 N 
HETATM   36  C13 UNL     1     -11.278  30.475 -13.612  1.00  0.00     0.692 A 
ATOM     37  H7  UNL     1     -11.536  29.164 -15.169  1.00  0.00     0.186 HD
HETATM   38  N9  UNL     1     -10.379  31.172 -12.903  1.00  0.00    -0.023 N 
HETATM   39  C14 UNL     1      -9.069  31.092 -13.207  1.00  0.00     0.692 A 
ATOM     40  H9  UNL     1     -10.688  31.763 -12.131  1.00  0.00     0.203 HD
HETATM   41  N11 UNL     1      -8.653  30.329 -14.206  1.00  0.00    -0.172 N 
ATOM     42  H11 UNL     1      -7.658  30.278 -14.427  1.00  0.00     0.186 HD
BRANCH  36  43
HETATM   43  N8  UNL     1     -12.536  30.580 -13.293  1.00  0.00    -0.234 N 
ATOM     44  H82 UNL     1     -12.971  29.816 -12.777  1.00  0.00     0.174 HD
ATOM     45  H81 UNL     1     -13.094  31.398 -13.538  1.00  0.00     0.174 HD
ENDBRANCH  36  43
BRANCH  39  46
HETATM   46  N10 UNL     1      -8.200  31.770 -12.516  1.00  0.00    -0.234 N 
ATOM     47 2H10 UNL     1      -7.580  31.279 -11.870  1.00  0.00     0.174 HD
ATOM     48 1H10 UNL     1      -8.143  32.783 -12.622  1.00  0.00     0.174 HD
ENDBRANCH  39  46
ENDBRANCH  30  34
ENDBRANCH  25  26
ENDBRANCH   1  25
TORSDOF 12
ENDMDL
MODEL 5
REMARK VINA RESULT: -6.363138990      3.285      6.190
REMARK  12 active torsions:
REMARK  status: ('A' for Active; 'I' for Inactive)
REMARK    1  A    between atoms: C2_2  and  O1_3 
REMARK    2  A    between atoms: C2_2  and  C3_5 
REMARK    3  A    between atoms: C3_5  and  N1_6 
REMARK    4  A    between atoms: C3_5  and  C9_23 
REMARK    5  A    between atoms: N1_6  and  C4_8 
REMARK    6  A    between atoms: C4_8  and  O2_9 
REMARK    7  A    between atoms: C8_19  and  N3_20 
REMARK    8  A    between atoms: C9_23  and  C10_25 
REMARK    9  A    between atoms: C10_25  and  N4_26 
REMARK   10  A    between atoms: C11_31  and  C12_32 
REMARK   11  A    between atoms: C13_35  and  N8_36 
REMARK   12  A    between atoms: C14_41  and  N10_42 
ROOT
HETATM    1  C9  UNL     1      -7.000  26.554 -19.337  1.00  0.00     0.173 C 
HETATM    2  O5  UNL     1      -8.023  26.009 -19.809  1.00  0.00    -0.294 OA
ENDROOT
BRANCH   1   3
HETATM    3  C3  UNL     1      -5.994  27.052 -20.278  1.00  0.00     0.183 C 
BRANCH   3   4
HETATM    4  C2  UNL     1      -4.977  28.001 -19.784  1.00  0.00     0.144 C 
HETATM    5  C1  UNL     1      -4.680  29.040 -20.878  1.00  0.00     0.042 C 
BRANCH   4   6
HETATM    6  O1  UNL     1      -3.752  27.265 -19.711  1.00  0.00    -0.393 OA
ATOM      7  H1  UNL     1      -3.128  27.859 -20.111  1.00  0.00     0.210 HD
ENDBRANCH   4   6
ENDBRANCH   3   4
BRANCH   3   8
HETATM    8  N1  UNL     1      -5.394  25.868 -20.920  1.00  0.00    -0.356 N 
ATOM      9  H1  UNL     1      -4.904  25.186 -20.342  1.00  0.00     0.162 HD
BRANCH   8  10
HETATM   10  C4  UNL     1      -5.479  25.655 -22.293  1.00  0.00     0.158 C 
HETATM   11  C5  UNL     1      -4.613  25.350 -23.210  1.00  0.00     0.102 C 
HETATM   12  S1  UNL     1      -5.261  25.174 -24.935  1.00  0.00    -0.034 SA
HETATM   13  C8  UNL     1      -3.190  25.091 -23.070  1.00  0.00     0.123 C 
HETATM   14  C6  UNL     1      -4.472  23.621 -25.443  1.00  0.00     0.281 C 
HETATM   15  O3  UNL     1      -5.131  22.787 -26.040  1.00  0.00    -0.274 OA
HETATM   16  C7  UNL     1      -3.061  23.527 -25.065  1.00  0.00     0.304 C 
HETATM   17  O4  UNL     1      -2.338  22.774 -25.787  1.00  0.00    -0.263 OA
HETATM   18  N2  UNL     1      -2.517  24.212 -23.983  1.00  0.00    -0.305 N 
ATOM     19  H2  UNL     1      -1.520  24.073 -23.819  1.00  0.00     0.170 HD
BRANCH  10  20
HETATM   20  O2  UNL     1      -6.814  25.806 -22.797  1.00  0.00    -0.345 OA
ATOM     21  H2  UNL     1      -7.341  25.022 -22.686  1.00  0.00     0.219 HD
ENDBRANCH  10  20
BRANCH  13  22
HETATM   22  N3  UNL     1      -2.551  25.685 -22.157  1.00  0.00    -0.384 N 
ATOM     23  H32 UNL     1      -2.467  26.701 -22.157  1.00  0.00     0.157 HD
ATOM     24  H31 UNL     1      -2.149  25.133 -21.401  1.00  0.00     0.157 HD
ENDBRANCH  13  22
ENDBRANCH   8  10
ENDBRANCH   3   8
ENDBRANCH   1   3
BRANCH   1  25
HETATM   25  C10 UNL     1      -6.927  26.629 -17.864  1.00  0.00     0.251 C 
BRANCH  25  26
HETATM   26  N4  UNL     1      -8.001  27.482 -17.336  1.00  0.00    -0.211 N 
HETATM   27  N5  UNL     1      -9.122  27.773 -17.932  1.00  0.00    -0.224 N 
HETATM   28  N6  UNL     1      -9.857  28.562 -17.185  1.00  0.00    -0.265 N 
ATOM     29  H5  UNL     1      -9.393  27.434 -18.855  1.00  0.00     0.210 HD
HETATM   30  C11 UNL     1      -9.171  28.781 -16.065  1.00  0.00     0.183 A 
ATOM     31  H6  UNL     1     -10.777  28.936 -17.418  1.00  0.00     0.190 HD
HETATM   32  N12 UNL     1      -8.014  28.102 -16.167  1.00  0.00    -0.263 N 
ATOM     33  H12 UNL     1      -7.274  28.071 -15.466  1.00  0.00     0.190 HD
BRANCH  30  34
HETATM   34  C12 UNL     1      -9.601  29.619 -14.959  1.00  0.00     0.183 A 
HETATM   35  N7  UNL     1      -8.680  30.296 -14.241  1.00  0.00    -0.172 N 
HETATM   36  C13 UNL     1      -9.048  31.066 -13.200  1.00  0.00     0.692 A 
ATOM     37  H7  UNL     1      -7.694  30.224 -14.490  1.00  0.00     0.186 HD
HETATM   38  N9  UNL     1     -10.346  31.159 -12.879  1.00  0.00    -0.023 N 
HETATM   39  C14 UNL     1     -11.269  30.485 -13.594  1.00  0.00     0.692 A 
ATOM     40  H9  UNL     1     -10.636  31.740 -12.092  1.00  0.00     0.203 HD
HETATM   41  N11 UNL     1     -10.909  29.727 -14.617  1.00  0.00    -0.172 N 
ATOM     42  H11 UNL     1     -11.617  29.221 -15.149  1.00  0.00     0.186 HD
BRANCH  36  43
HETATM   43  N8  UNL     1      -8.184  31.728 -12.484  1.00  0.00    -0.234 N 
ATOM     44  H82 UNL     1      -7.437  32.228 -12.965  1.00  0.00     0.174 HD
ATOM     45  H81 UNL     1      -8.233  31.763 -11.466  1.00  0.00     0.174 HD
ENDBRANCH  36  43
BRANCH  39  46
HETATM   46  N10 UNL     1     -12.528  30.578 -13.279  1.00  0.00    -0.234 N 
ATOM     47 2H10 UNL     1     -12.891  30.031 -12.498  1.00  0.00     0.174 HD
ATOM     48 1H10 UNL     1     -13.142  31.194 -13.812  1.00  0.00     0.174 HD
ENDBRANCH  39  46
ENDBRANCH  30  34
ENDBRANCH  25  26
ENDBRANCH   1  25
TORSDOF 12
ENDMDL
