MODEL 1
REMARK VINA RESULT: -6.948932483      0.000      0.000
REMARK  12 active torsions:
REMARK  status: ('A' for Active; 'I' for Inactive)
REMARK       I    between atoms: C2_2  and  N1_4 
REMARK    1  A    between atoms: C3_6  and  C4_7 
REMARK    2  A    between atoms: C6_10  and  N2_11 
REMARK       I    between atoms: N2_11  and  C7_13 
REMARK    3  A    between atoms: C7_13  and  C8_15 
REMARK    4  A    between atoms: C8_15  and  O3_16 
REMARK    5  A    between atoms: C8_15  and  C9_18 
REMARK    6  A    between atoms: N3_19  and  O4_21 
REMARK    7  A    between atoms: C10_24  and  C11_25 
REMARK    8  A    between atoms: C11_25  and  O6_26 
REMARK    9  A    between atoms: C12_29  and  O8_30 
REMARK   10  A    between atoms: C13_32  and  O9_33 
REMARK   11  A    between atoms: C14_35  and  O10_36 
REMARK   12  A    between atoms: C15_38  and  O11_39 
ROOT
HETATM    1  C4  UNL     1      -5.638  27.781 -15.044  1.00  0.00     0.068 C 
HETATM    2  C5  UNL     1      -6.146  27.117 -13.754  1.00  0.00     0.091 C 
HETATM    3  S1  UNL     1      -7.250  28.395 -13.017  1.00  0.00    -0.116 SA
HETATM    4  C6  UNL     1      -7.855  29.234 -14.541  1.00  0.00     0.289 C 
HETATM    5  O5  UNL     1      -7.893  28.182 -15.480  1.00  0.00    -0.346 OA
HETATM    6  C10 UNL     1      -6.643  27.987 -16.071  1.00  0.00     0.199 C 
ENDROOT
BRANCH   6   7
HETATM    7  C11 UNL     1      -6.775  27.055 -17.229  1.00  0.00     0.221 C 
HETATM    8  O7  UNL     1      -5.509  26.691 -17.697  1.00  0.00    -0.318 OA
HETATM    9  C12 UNL     1      -5.121  27.184 -18.894  1.00  0.00     0.292 C 
HETATM   10  C13 UNL     1      -6.000  26.848 -20.073  1.00  0.00     0.204 C 
HETATM   11  C14 UNL     1      -7.405  26.726 -19.611  1.00  0.00     0.185 C 
HETATM   12  C15 UNL     1      -7.652  27.546 -18.355  1.00  0.00     0.214 C 
BRANCH   7  13
HETATM   13  O6  UNL     1      -7.313  25.800 -16.855  1.00  0.00    -0.361 OA
ATOM     14  H6  UNL     1      -7.364  25.194 -17.585  1.00  0.00     0.213 HD
ENDBRANCH   7  13
BRANCH   9  15
HETATM   15  O8  UNL     1      -4.748  28.525 -18.917  1.00  0.00    -0.368 OA
ATOM     16  H8  UNL     1      -4.943  29.029 -18.136  1.00  0.00     0.212 HD
ENDBRANCH   9  15
BRANCH  10  17
HETATM   17  O9  UNL     1      -5.574  25.671 -20.721  1.00  0.00    -0.388 OA
ATOM     18  H9  UNL     1      -5.128  25.083 -20.123  1.00  0.00     0.210 HD
ENDBRANCH  10  17
BRANCH  11  19
HETATM   19  O10 UNL     1      -7.701  25.380 -19.447  1.00  0.00    -0.390 OA
ATOM     20  H10 UNL     1      -7.066  25.000 -18.851  1.00  0.00     0.210 HD
ENDBRANCH  11  19
BRANCH  12  21
HETATM   21  O11 UNL     1      -9.022  27.326 -18.090  1.00  0.00    -0.387 OA
ATOM     22  H11 UNL     1      -9.465  26.920 -18.826  1.00  0.00     0.210 HD
ENDBRANCH  12  21
ENDBRANCH   6   7
BRANCH   1  23
HETATM   23  C3  UNL     1      -4.358  27.165 -15.378  1.00  0.00     0.072 C 
HETATM   24  N1  UNL     1      -3.410  27.877 -15.927  1.00  0.00    -0.341 N 
HETATM   25  C2  UNL     1      -2.151  27.349 -16.276  1.00  0.00     0.217 C 
ATOM     26  H1  UNL     1      -3.590  28.864 -16.112  1.00  0.00     0.167 HD
HETATM   27  C1  UNL     1      -1.554  26.310 -15.426  1.00  0.00     0.117 C 
HETATM   28  O1  UNL     1      -1.570  27.766 -17.289  1.00  0.00    -0.274 OA
ENDBRANCH   1  23
BRANCH   4  29
HETATM   29  N2  UNL     1      -9.137  29.759 -14.247  1.00  0.00    -0.324 N 
HETATM   30  C7  UNL     1      -9.951  30.283 -15.268  1.00  0.00     0.254 C 
HETATM   31  O2  UNL     1      -9.521  30.278 -16.446  1.00  0.00    -0.270 OA
ATOM     32  H2  UNL     1      -9.473  29.757 -13.284  1.00  0.00     0.166 HD
BRANCH  30  33
HETATM   33  C8  UNL     1     -11.302  30.850 -15.039  1.00  0.00     0.250 C 
BRANCH  33  34
HETATM   34  O3  UNL     1     -11.392  32.172 -15.402  1.00  0.00    -0.381 OA
ATOM     35  H3  UNL     1     -11.453  32.755 -14.655  1.00  0.00     0.211 HD
ENDBRANCH  33  34
BRANCH  33  36
HETATM   36  C9  UNL     1     -11.782  30.683 -13.668  1.00  0.00     0.127 C 
HETATM   37  N3  UNL     1     -12.894  31.157 -13.219  1.00  0.00    -0.281 N 
ATOM     38  H3  UNL     1     -13.481  31.687 -13.863  1.00  0.00     0.193 HD
BRANCH  37  39
HETATM   39  O4  UNL     1     -13.331  30.998 -11.949  1.00  0.00    -0.290 OA
ATOM     40  H4  UNL     1     -13.494  31.714 -11.346  1.00  0.00     0.244 HD
ENDBRANCH  37  39
ENDBRANCH  33  36
ENDBRANCH  30  33
ENDBRANCH   4  29
TORSDOF 12
ENDMDL
MODEL 2
REMARK VINA RESULT: -6.813382811      3.220      7.167
REMARK  12 active torsions:
REMARK  status: ('A' for Active; 'I' for Inactive)
REMARK       I    between atoms: C2_2  and  N1_4 
REMARK    1  A    between atoms: C3_6  and  C4_7 
REMARK    2  A    between atoms: C6_10  and  N2_11 
REMARK       I    between atoms: N2_11  and  C7_13 
REMARK    3  A    between atoms: C7_13  and  C8_15 
REMARK    4  A    between atoms: C8_15  and  O3_16 
REMARK    5  A    between atoms: C8_15  and  C9_18 
REMARK    6  A    between atoms: N3_19  and  O4_21 
REMARK    7  A    between atoms: C10_24  and  C11_25 
REMARK    8  A    between atoms: C11_25  and  O6_26 
REMARK    9  A    between atoms: C12_29  and  O8_30 
REMARK   10  A    between atoms: C13_32  and  O9_33 
REMARK   11  A    between atoms: C14_35  and  O10_36 
REMARK   12  A    between atoms: C15_38  and  O11_39 
ROOT
HETATM    1  C4  UNL     1      -5.676  30.682 -15.186  1.00  0.00     0.068 C 
HETATM    2  C5  UNL     1      -5.246  31.486 -16.425  1.00  0.00     0.091 C 
HETATM    3  S1  UNL     1      -5.014  30.193 -17.717  1.00  0.00    -0.116 SA
HETATM    4  C6  UNL     1      -6.250  28.943 -17.167  1.00  0.00     0.289 C 
HETATM    5  O5  UNL     1      -7.268  29.741 -16.605  1.00  0.00    -0.346 OA
HETATM    6  C10 UNL     1      -6.984  30.061 -15.276  1.00  0.00     0.199 C 
ENDROOT
BRANCH   6   7
HETATM    7  C11 UNL     1      -8.186  30.678 -14.641  1.00  0.00     0.221 C 
HETATM    8  O7  UNL     1      -8.167  30.450 -13.262  1.00  0.00    -0.318 OA
HETATM    9  C12 UNL     1      -9.076  29.585 -12.760  1.00  0.00     0.292 C 
HETATM   10  C13 UNL     1     -10.526  29.922 -13.003  1.00  0.00     0.204 C 
HETATM   11  C14 UNL     1     -10.647  30.637 -14.298  1.00  0.00     0.185 C 
HETATM   12  C15 UNL     1      -9.511  30.278 -15.241  1.00  0.00     0.214 C 
BRANCH   7  13
HETATM   13  O6  UNL     1      -8.161  32.093 -14.697  1.00  0.00    -0.361 OA
ATOM     14  H6  UNL     1      -7.533  32.469 -14.093  1.00  0.00     0.213 HD
ENDBRANCH   7  13
BRANCH   9  15
HETATM   15  O8  UNL     1      -8.832  28.233 -12.990  1.00  0.00    -0.368 OA
ATOM     16  H8  UNL     1      -8.503  28.006 -13.851  1.00  0.00     0.212 HD
ENDBRANCH   9  15
BRANCH  10  17
HETATM   17  O9  UNL     1     -11.067  30.684 -11.949  1.00  0.00    -0.388 OA
ATOM     18  H9  UNL     1     -10.387  31.059 -11.402  1.00  0.00     0.210 HD
ENDBRANCH  10  17
BRANCH  11  19
HETATM   19  O10 UNL     1     -10.732  31.998 -14.044  1.00  0.00    -0.390 OA
ATOM     20  H10 UNL     1     -11.095  32.427 -14.810  1.00  0.00     0.210 HD
ENDBRANCH  11  19
BRANCH  12  21
HETATM   21  O11 UNL     1      -9.809  31.022 -16.404  1.00  0.00    -0.387 OA
ATOM     22  H11 UNL     1     -10.448  30.583 -16.952  1.00  0.00     0.210 HD
ENDBRANCH  12  21
ENDBRANCH   6   7
BRANCH   1  23
HETATM   23  C3  UNL     1      -5.311  31.465 -14.010  1.00  0.00     0.072 C 
HETATM   24  N1  UNL     1      -4.405  32.403 -14.101  1.00  0.00    -0.341 N 
HETATM   25  C2  UNL     1      -4.004  33.197 -13.008  1.00  0.00     0.217 C 
ATOM     26  H1  UNL     1      -3.968  32.568 -15.008  1.00  0.00     0.167 HD
HETATM   27  C1  UNL     1      -5.001  33.576 -11.998  1.00  0.00     0.117 C 
HETATM   28  O1  UNL     1      -2.822  33.562 -12.917  1.00  0.00    -0.274 OA
ENDBRANCH   1  23
BRANCH   4  29
HETATM   29  N2  UNL     1      -6.672  28.239 -18.321  1.00  0.00    -0.324 N 
HETATM   30  C7  UNL     1      -7.198  26.938 -18.217  1.00  0.00     0.254 C 
HETATM   31  O2  UNL     1      -7.287  26.411 -17.082  1.00  0.00    -0.270 OA
ATOM     32  H2  UNL     1      -6.594  28.680 -19.237  1.00  0.00     0.166 HD
BRANCH  30  33
HETATM   33  C8  UNL     1      -7.660  26.138 -19.376  1.00  0.00     0.250 C 
BRANCH  33  34
HETATM   34  O3  UNL     1      -8.026  24.860 -19.029  1.00  0.00    -0.381 OA
ATOM     35  H3  UNL     1      -7.396  24.441 -18.455  1.00  0.00     0.211 HD
ENDBRANCH  33  34
BRANCH  33  36
HETATM   36  C9  UNL     1      -6.699  26.092 -20.477  1.00  0.00     0.127 C 
HETATM   37  N3  UNL     1      -5.454  25.783 -20.349  1.00  0.00    -0.281 N 
ATOM     38  H3  UNL     1      -5.112  25.555 -19.415  1.00  0.00     0.193 HD
BRANCH  37  39
HETATM   39  O4  UNL     1      -4.570  25.742 -21.373  1.00  0.00    -0.290 OA
ATOM     40  H4  UNL     1      -4.689  25.223 -22.160  1.00  0.00     0.244 HD
ENDBRANCH  37  39
ENDBRANCH  33  36
ENDBRANCH  30  33
ENDBRANCH   4  29
TORSDOF 12
ENDMDL
MODEL 3
REMARK VINA RESULT: -6.524810802      1.811      2.060
REMARK  12 active torsions:
REMARK  status: ('A' for Active; 'I' for Inactive)
REMARK       I    between atoms: C2_2  and  N1_4 
REMARK    1  A    between atoms: C3_6  and  C4_7 
REMARK    2  A    between atoms: C6_10  and  N2_11 
REMARK       I    between atoms: N2_11  and  C7_13 
REMARK    3  A    between atoms: C7_13  and  C8_15 
REMARK    4  A    between atoms: C8_15  and  O3_16 
REMARK    5  A    between atoms: C8_15  and  C9_18 
REMARK    6  A    between atoms: N3_19  and  O4_21 
REMARK    7  A    between atoms: C10_24  and  C11_25 
REMARK    8  A    between atoms: C11_25  and  O6_26 
REMARK    9  A    between atoms: C12_29  and  O8_30 
REMARK   10  A    between atoms: C13_32  and  O9_33 
REMARK   11  A    between atoms: C14_35  and  O10_36 
REMARK   12  A    between atoms: C15_38  and  O11_39 
ROOT
HETATM    1  C4  UNL     1      -4.474  28.715 -16.233  1.00  0.00     0.068 C 
HETATM    2  C5  UNL     1      -4.032  28.245 -14.837  1.00  0.00     0.091 C 
HETATM    3  S1  UNL     1      -4.835  29.453 -13.702  1.00  0.00    -0.116 SA
HETATM    4  C6  UNL     1      -6.344  29.872 -14.672  1.00  0.00     0.289 C 
HETATM    5  O5  UNL     1      -6.627  28.664 -15.342  1.00  0.00    -0.346 OA
HETATM    6  C10 UNL     1      -5.887  28.556 -16.521  1.00  0.00     0.199 C 
ENDROOT
BRANCH   6   7
HETATM    7  C11 UNL     1      -6.393  27.406 -17.327  1.00  0.00     0.221 C 
HETATM    8  O7  UNL     1      -5.449  27.048 -18.293  1.00  0.00    -0.318 OA
HETATM    9  C12 UNL     1      -5.743  27.320 -19.584  1.00  0.00     0.292 C 
HETATM   10  C13 UNL     1      -7.003  26.695 -20.129  1.00  0.00     0.204 C 
HETATM   11  C14 UNL     1      -7.995  26.568 -19.033  1.00  0.00     0.185 C 
HETATM   12  C15 UNL     1      -7.757  27.600 -17.943  1.00  0.00     0.214 C 
BRANCH   7  13
HETATM   13  O6  UNL     1      -6.491  26.214 -16.568  1.00  0.00    -0.361 OA
ATOM     14  H6  UNL     1      -6.315  26.356 -15.646  1.00  0.00     0.213 HD
ENDBRANCH   7  13
BRANCH   9  15
HETATM   15  O8  UNL     1      -5.639  28.653 -19.972  1.00  0.00    -0.368 OA
ATOM     16  H8  UNL     1      -4.927  28.864 -20.564  1.00  0.00     0.212 HD
ENDBRANCH   9  15
BRANCH  10  17
HETATM   17  O9  UNL     1      -6.747  25.447 -20.731  1.00  0.00    -0.388 OA
ATOM     18  H9  UNL     1      -7.025  25.432 -21.639  1.00  0.00     0.210 HD
ENDBRANCH  10  17
BRANCH  11  19
HETATM   19  O10 UNL     1      -7.965  25.263 -18.560  1.00  0.00    -0.390 OA
ATOM     20  H10 UNL     1      -7.235  24.810 -18.964  1.00  0.00     0.210 HD
ENDBRANCH  11  19
BRANCH  12  21
HETATM   21  O11 UNL     1      -8.794  27.341 -17.020  1.00  0.00    -0.387 OA
ATOM     22  H11 UNL     1      -9.244  26.527 -17.211  1.00  0.00     0.210 HD
ENDBRANCH  12  21
ENDBRANCH   6   7
BRANCH   1  23
HETATM   23  C3  UNL     1      -3.471  28.253 -17.187  1.00  0.00     0.072 C 
HETATM   24  N1  UNL     1      -3.178  28.978 -18.235  1.00  0.00    -0.341 N 
HETATM   25  C2  UNL     1      -2.222  28.595 -19.196  1.00  0.00     0.217 C 
ATOM     26  H1  UNL     1      -3.667  29.865 -18.363  1.00  0.00     0.167 HD
HETATM   27  C1  UNL     1      -1.026  27.862 -18.758  1.00  0.00     0.117 C 
HETATM   28  O1  UNL     1      -2.402  28.882 -20.389  1.00  0.00    -0.274 OA
ENDBRANCH   1  23
BRANCH   4  29
HETATM   29  N2  UNL     1      -7.348  30.238 -13.742  1.00  0.00    -0.324 N 
HETATM   30  C7  UNL     1      -8.527  30.876 -14.170  1.00  0.00     0.254 C 
HETATM   31  O2  UNL     1      -8.673  31.117 -15.393  1.00  0.00    -0.270 OA
ATOM     32  H2  UNL     1      -7.216  30.035 -12.751  1.00  0.00     0.166 HD
BRANCH  30  33
HETATM   33  C8  UNL     1      -9.621  31.289 -13.260  1.00  0.00     0.250 C 
BRANCH  33  34
HETATM   34  O3  UNL     1      -9.554  30.671 -12.034  1.00  0.00    -0.381 OA
ATOM     35  H3  UNL     1      -9.243  31.250 -11.348  1.00  0.00     0.211 HD
ENDBRANCH  33  34
BRANCH  33  36
HETATM   36  C9  UNL     1     -10.956  31.108 -13.827  1.00  0.00     0.127 C 
HETATM   37  N3  UNL     1     -11.685  32.059 -14.303  1.00  0.00    -0.281 N 
ATOM     38  H3  UNL     1     -11.306  33.006 -14.283  1.00  0.00     0.193 HD
BRANCH  37  39
HETATM   39  O4  UNL     1     -12.920  31.882 -14.827  1.00  0.00    -0.290 OA
ATOM     40  H4  UNL     1     -13.495  31.160 -14.607  1.00  0.00     0.244 HD
ENDBRANCH  37  39
ENDBRANCH  33  36
ENDBRANCH  30  33
ENDBRANCH   4  29
TORSDOF 12
ENDMDL
MODEL 4
REMARK VINA RESULT: -6.517293421      1.966      2.547
REMARK  12 active torsions:
REMARK  status: ('A' for Active; 'I' for Inactive)
REMARK       I    between atoms: C2_2  and  N1_4 
REMARK    1  A    between atoms: C3_6  and  C4_7 
REMARK    2  A    between atoms: C6_10  and  N2_11 
REMARK       I    between atoms: N2_11  and  C7_13 
REMARK    3  A    between atoms: C7_13  and  C8_15 
REMARK    4  A    between atoms: C8_15  and  O3_16 
REMARK    5  A    between atoms: C8_15  and  C9_18 
REMARK    6  A    between atoms: N3_19  and  O4_21 
REMARK    7  A    between atoms: C10_24  and  C11_25 
REMARK    8  A    between atoms: C11_25  and  O6_26 
REMARK    9  A    between atoms: C12_29  and  O8_30 
REMARK   10  A    between atoms: C13_32  and  O9_33 
REMARK   11  A    between atoms: C14_35  and  O10_36 
REMARK   12  A    between atoms: C15_38  and  O11_39 
ROOT
HETATM    1  C4  UNL     1      -4.708  28.470 -17.216  1.00  0.00     0.068 C 
HETATM    2  C5  UNL     1      -4.515  27.550 -15.999  1.00  0.00     0.091 C 
HETATM    3  S1  UNL     1      -5.892  28.031 -14.873  1.00  0.00    -0.116 SA
HETATM    4  C6  UNL     1      -7.162  28.550 -16.102  1.00  0.00     0.289 C 
HETATM    5  O5  UNL     1      -6.906  27.695 -17.193  1.00  0.00    -0.346 OA
HETATM    6  C10 UNL     1      -5.895  28.207 -18.008  1.00  0.00     0.199 C 
ENDROOT
BRANCH   6   7
HETATM    7  C11 UNL     1      -5.826  27.422 -19.276  1.00  0.00     0.221 C 
HETATM    8  O7  UNL     1      -4.950  28.038 -20.174  1.00  0.00    -0.318 OA
HETATM    9  C12 UNL     1      -5.486  28.633 -21.261  1.00  0.00     0.292 C 
HETATM   10  C13 UNL     1      -6.300  27.749 -22.174  1.00  0.00     0.204 C 
HETATM   11  C14 UNL     1      -6.953  26.690 -21.368  1.00  0.00     0.185 C 
HETATM   12  C15 UNL     1      -7.156  27.131 -19.927  1.00  0.00     0.214 C 
BRANCH   7  13
HETATM   13  O6  UNL     1      -5.212  26.159 -19.099  1.00  0.00    -0.361 OA
ATOM     14  H6  UNL     1      -5.789  25.439 -19.325  1.00  0.00     0.213 HD
ENDBRANCH   7  13
BRANCH   9  15
HETATM   15  O8  UNL     1      -6.126  29.851 -21.045  1.00  0.00    -0.368 OA
ATOM     16  H8  UNL     1      -6.876  30.035 -21.599  1.00  0.00     0.212 HD
ENDBRANCH   9  15
BRANCH  10  17
HETATM   17  O9  UNL     1      -5.510  27.194 -23.201  1.00  0.00    -0.388 OA
ATOM     18  H9  UNL     1      -4.886  26.563 -22.861  1.00  0.00     0.210 HD
ENDBRANCH  10  17
BRANCH  11  19
HETATM   19  O10 UNL     1      -6.205  25.526 -21.477  1.00  0.00    -0.390 OA
ATOM     20  H10 UNL     1      -5.329  25.755 -21.767  1.00  0.00     0.210 HD
ENDBRANCH  11  19
BRANCH  12  21
HETATM   21  O11 UNL     1      -7.801  26.021 -19.337  1.00  0.00    -0.387 OA
ATOM     22  H11 UNL     1      -8.569  25.756 -19.827  1.00  0.00     0.210 HD
ENDBRANCH  12  21
ENDBRANCH   6   7
BRANCH   1  23
HETATM   23  C3  UNL     1      -3.407  28.617 -17.862  1.00  0.00     0.072 C 
HETATM   24  N1  UNL     1      -2.651  27.570 -18.061  1.00  0.00    -0.341 N 
HETATM   25  C2  UNL     1      -1.386  27.637 -18.677  1.00  0.00     0.217 C 
ATOM     26  H1  UNL     1      -2.993  26.659 -17.754  1.00  0.00     0.167 HD
HETATM   27  C1  UNL     1      -1.171  28.608 -19.759  1.00  0.00     0.117 C 
HETATM   28  O1  UNL     1      -0.479  26.880 -18.301  1.00  0.00    -0.274 OA
ENDBRANCH   1  23
BRANCH   4  29
HETATM   29  N2  UNL     1      -8.430  28.326 -15.510  1.00  0.00    -0.324 N 
HETATM   30  C7  UNL     1      -9.091  29.356 -14.815  1.00  0.00     0.254 C 
HETATM   31  O2  UNL     1      -8.538  30.479 -14.729  1.00  0.00    -0.270 OA
ATOM     32  H2  UNL     1      -8.868  27.408 -15.588  1.00  0.00     0.166 HD
BRANCH  30  33
HETATM   33  C8  UNL     1     -10.416  29.199 -14.170  1.00  0.00     0.250 C 
BRANCH  33  34
HETATM   34  O3  UNL     1     -11.252  28.362 -14.869  1.00  0.00    -0.381 OA
ATOM     35  H3  UNL     1     -12.069  28.779 -15.115  1.00  0.00     0.211 HD
ENDBRANCH  33  34
BRANCH  33  36
HETATM   36  C9  UNL     1     -11.096  30.467 -13.912  1.00  0.00     0.127 C 
HETATM   37  N3  UNL     1     -11.424  31.321 -14.820  1.00  0.00    -0.281 N 
ATOM     38  H3  UNL     1     -11.193  31.100 -15.789  1.00  0.00     0.193 HD
BRANCH  37  39
HETATM   39  O4  UNL     1     -12.054  32.493 -14.572  1.00  0.00    -0.290 OA
ATOM     40  H4  UNL     1     -12.746  32.602 -13.932  1.00  0.00     0.244 HD
ENDBRANCH  37  39
ENDBRANCH  33  36
ENDBRANCH  30  33
ENDBRANCH   4  29
TORSDOF 12
ENDMDL
MODEL 5
REMARK VINA RESULT: -6.516040691      3.114      7.149
REMARK  12 active torsions:
REMARK  status: ('A' for Active; 'I' for Inactive)
REMARK       I    between atoms: C2_2  and  N1_4 
REMARK    1  A    between atoms: C3_6  and  C4_7 
REMARK    2  A    between atoms: C6_10  and  N2_11 
REMARK       I    between atoms: N2_11  and  C7_13 
REMARK    3  A    between atoms: C7_13  and  C8_15 
REMARK    4  A    between atoms: C8_15  and  O3_16 
REMARK    5  A    between atoms: C8_15  and  C9_18 
REMARK    6  A    between atoms: N3_19  and  O4_21 
REMARK    7  A    between atoms: C10_24  and  C11_25 
REMARK    8  A    between atoms: C11_25  and  O6_26 
REMARK    9  A    between atoms: C12_29  and  O8_30 
REMARK   10  A    between atoms: C13_32  and  O9_33 
REMARK   11  A    between atoms: C14_35  and  O10_36 
REMARK   12  A    between atoms: C15_38  and  O11_39 
ROOT
HETATM    1  C4  UNL     1      -6.037  29.676 -16.110  1.00  0.00     0.068 C 
HETATM    2  C5  UNL     1      -5.930  31.001 -16.884  1.00  0.00     0.091 C 
HETATM    3  S1  UNL     1      -5.238  30.492 -18.514  1.00  0.00    -0.116 SA
HETATM    4  C6  UNL     1      -5.931  28.792 -18.656  1.00  0.00     0.289 C 
HETATM    5  O5  UNL     1      -7.171  28.907 -17.996  1.00  0.00    -0.346 OA
HETATM    6  C10 UNL     1      -7.026  28.743 -16.617  1.00  0.00     0.199 C 
ENDROOT
BRANCH   6   7
HETATM    7  C11 UNL     1      -8.371  28.613 -15.982  1.00  0.00     0.221 C 
HETATM    8  O7  UNL     1      -9.232  29.595 -16.480  1.00  0.00    -0.318 OA
HETATM    9  C12 UNL     1      -9.586  30.596 -15.646  1.00  0.00     0.292 C 
HETATM   10  C13 UNL     1     -10.279  30.190 -14.368  1.00  0.00     0.204 C 
HETATM   11  C14 UNL     1      -9.775  28.860 -13.946  1.00  0.00     0.185 C 
HETATM   12  C15 UNL     1      -8.373  28.601 -14.473  1.00  0.00     0.214 C 
BRANCH   7  13
HETATM   13  O6  UNL     1      -9.039  27.425 -16.367  1.00  0.00    -0.361 OA
ATOM     14  H6  UNL     1      -8.563  26.643 -16.114  1.00  0.00     0.213 HD
ENDBRANCH   7  13
BRANCH   9  15
HETATM   15  O8  UNL     1      -8.617  31.566 -15.400  1.00  0.00    -0.368 OA
ATOM     16  H8  UNL     1      -8.289  31.618 -14.510  1.00  0.00     0.212 HD
ENDBRANCH   9  15
BRANCH  10  17
HETATM   17  O9  UNL     1     -11.680  30.180 -14.517  1.00  0.00    -0.388 OA
ATOM     18  H9  UNL     1     -11.945  30.516 -15.365  1.00  0.00     0.210 HD
ENDBRANCH  10  17
BRANCH  11  19
HETATM   19  O10 UNL     1     -10.690  27.895 -14.343  1.00  0.00    -0.390 OA
ATOM     20  H10 UNL     1     -10.634  27.160 -13.744  1.00  0.00     0.210 HD
ENDBRANCH  11  19
BRANCH  12  21
HETATM   21  O11 UNL     1      -8.064  27.324 -13.955  1.00  0.00    -0.387 OA
ATOM     22  H11 UNL     1      -8.261  27.260 -13.028  1.00  0.00     0.210 HD
ENDBRANCH  12  21
ENDBRANCH   6   7
BRANCH   1  23
HETATM   23  C3  UNL     1      -5.986  29.996 -14.688  1.00  0.00     0.072 C 
HETATM   24  N1  UNL     1      -5.933  31.242 -14.297  1.00  0.00    -0.341 N 
HETATM   25  C2  UNL     1      -5.882  31.625 -12.941  1.00  0.00     0.217 C 
ATOM     26  H1  UNL     1      -5.930  31.974 -15.008  1.00  0.00     0.167 HD
HETATM   27  C1  UNL     1      -6.618  30.830 -11.949  1.00  0.00     0.117 C 
HETATM   28  O1  UNL     1      -5.221  32.620 -12.610  1.00  0.00    -0.274 OA
ENDBRANCH   1  23
BRANCH   4  29
HETATM   29  N2  UNL     1      -6.064  28.510 -20.038  1.00  0.00    -0.324 N 
HETATM   30  C7  UNL     1      -6.314  27.199 -20.485  1.00  0.00     0.254 C 
HETATM   31  O2  UNL     1      -6.416  26.282 -19.636  1.00  0.00    -0.270 OA
ATOM     32  H2  UNL     1      -5.979  29.267 -20.717  1.00  0.00     0.166 HD
BRANCH  30  33
HETATM   33  C8  UNL     1      -6.465  26.827 -21.911  1.00  0.00     0.250 C 
BRANCH  33  34
HETATM   34  O3  UNL     1      -7.767  26.896 -22.343  1.00  0.00    -0.381 OA
ATOM     35  H3  UNL     1      -8.071  26.082 -22.726  1.00  0.00     0.211 HD
ENDBRANCH  33  34
BRANCH  33  36
HETATM   36  C9  UNL     1      -5.909  25.515 -22.237  1.00  0.00     0.127 C 
HETATM   37  N3  UNL     1      -4.799  25.054 -21.772  1.00  0.00    -0.281 N 
ATOM     38  H3  UNL     1      -4.268  25.645 -21.132  1.00  0.00     0.193 HD
BRANCH  37  39
HETATM   39  O4  UNL     1      -4.291  23.838 -22.079  1.00  0.00    -0.290 OA
ATOM     40  H4  UNL     1      -4.816  23.088 -22.331  1.00  0.00     0.244 HD
ENDBRANCH  37  39
ENDBRANCH  33  36
ENDBRANCH  30  33
ENDBRANCH   4  29
TORSDOF 12
ENDMDL
