MODEL 1
REMARK VINA RESULT: -1.074819911      0.000      0.000
REMARK  1 active torsions:
REMARK  status: ('A' for Active; 'I' for Inactive)
REMARK    1  A    between atoms: C7_9  and  O1_11 
ROOT
HETATM    1  C1  UNL     1      22.394  17.765  43.046  1.00  0.00     0.310 C 
HETATM    2  N1  UNL     1      20.993  17.776  43.302  1.00  0.00     0.088 N 
HETATM    3  C2  UNL     1      20.437  16.436  43.316  1.00  0.00     0.300 C 
HETATM    4  C3  UNL     1      18.998  16.559  43.802  1.00  0.00     0.269 C 
HETATM    5  N2  UNL     1      18.958  16.806  45.253  1.00  0.00    -0.046 N 
HETATM    6  C4  UNL     1      17.948  17.848  45.439  1.00  0.00     0.239 C 
HETATM    7  C5  UNL     1      16.925  17.460  46.493  1.00  0.00     0.031 C 
HETATM    8  C6  UNL     1      16.218  16.232  45.972  1.00  0.00     0.041 C 
HETATM    9  C7  UNL     1      17.253  15.133  45.907  1.00  0.00     0.078 C 
HETATM   10  C8  UNL     1      17.015  14.272  47.162  1.00  0.00     0.047 C 
HETATM   11  C9  UNL     1      18.652  15.600  45.958  1.00  0.00     0.275 C 
HETATM   12  C10 UNL     1      20.213  17.378  45.603  1.00  0.00     0.226 A 
HETATM   13  C11 UNL     1      20.604  18.409  44.532  1.00  0.00     0.317 C 
HETATM   14  C12 UNL     1      20.395  17.803  47.006  1.00  0.00     0.129 A 
HETATM   15  C13 UNL     1      21.286  16.783  46.354  1.00  0.00     0.281 A 
HETATM   16  F1  UNL     1      21.333  15.496  46.820  1.00  0.00    -0.203 F 
HETATM   17  F2  UNL     1      22.580  17.278  46.128  1.00  0.00    -0.203 F 
ENDROOT
BRANCH   9  18
HETATM   18  O1  UNL     1      16.936  14.299  44.847  1.00  0.00    -0.389 OA
ATOM     19  H1  UNL     1      17.608  13.630  44.782  1.00  0.00     0.210 HD
ENDBRANCH   9  18
TORSDOF 1
ENDMDL
MODEL 2
REMARK VINA RESULT: -0.863274705      2.746      3.965
REMARK  1 active torsions:
REMARK  status: ('A' for Active; 'I' for Inactive)
REMARK    1  A    between atoms: C7_9  and  O1_11 
ROOT
HETATM    1  C1  UNL     1      20.245  17.585  40.100  1.00  0.00     0.310 C 
HETATM    2  N1  UNL     1      20.200  16.800  41.288  1.00  0.00     0.088 N 
HETATM    3  C2  UNL     1      21.396  16.969  42.092  1.00  0.00     0.300 C 
HETATM    4  C3  UNL     1      21.144  16.257  43.416  1.00  0.00     0.269 C 
HETATM    5  N2  UNL     1      20.226  17.040  44.260  1.00  0.00    -0.046 N 
HETATM    6  C4  UNL     1      19.291  16.064  44.821  1.00  0.00     0.239 C 
HETATM    7  C5  UNL     1      19.182  16.191  46.330  1.00  0.00     0.031 C 
HETATM    8  C6  UNL     1      20.550  15.879  46.887  1.00  0.00     0.041 C 
HETATM    9  C7  UNL     1      21.474  16.970  46.398  1.00  0.00     0.078 C 
HETATM   10  C8  UNL     1      21.630  17.938  47.586  1.00  0.00     0.047 C 
HETATM   11  C9  UNL     1      20.954  17.756  45.262  1.00  0.00     0.275 C 
HETATM   12  C10 UNL     1      19.477  17.874  43.383  1.00  0.00     0.226 A 
HETATM   13  C11 UNL     1      19.075  17.057  42.145  1.00  0.00     0.317 C 
HETATM   14  C12 UNL     1      18.413  18.705  43.983  1.00  0.00     0.129 A 
HETATM   15  C13 UNL     1      19.563  19.301  43.219  1.00  0.00     0.281 A 
HETATM   16  F1  UNL     1      20.456  20.135  43.838  1.00  0.00    -0.203 F 
HETATM   17  F2  UNL     1      19.160  19.831  41.984  1.00  0.00    -0.203 F 
ENDROOT
BRANCH   9  18
HETATM   18  O1  UNL     1      22.737  16.426  46.224  1.00  0.00    -0.389 OA
ATOM     19  H1  UNL     1      23.045  16.659  45.356  1.00  0.00     0.210 HD
ENDBRANCH   9  18
TORSDOF 1
ENDMDL
MODEL 3
REMARK VINA RESULT: 0.082715640      2.496      3.535
REMARK  1 active torsions:
REMARK  status: ('A' for Active; 'I' for Inactive)
REMARK    1  A    between atoms: C7_9  and  O1_11 
ROOT
HETATM    1  C1  UNL     1      19.118  17.763  40.250  1.00  0.00     0.310 C 
HETATM    2  N1  UNL     1      19.100  18.116  41.630  1.00  0.00     0.088 N 
HETATM    3  C2  UNL     1      18.736  16.991  42.470  1.00  0.00     0.300 C 
HETATM    4  C3  UNL     1      18.954  17.428  43.914  1.00  0.00     0.269 C 
HETATM    5  N2  UNL     1      20.391  17.460  44.236  1.00  0.00    -0.046 N 
HETATM    6  C4  UNL     1      20.590  18.698  44.990  1.00  0.00     0.239 C 
HETATM    7  C5  UNL     1      21.328  18.452  46.294  1.00  0.00     0.031 C 
HETATM    8  C6  UNL     1      20.444  17.553  47.124  1.00  0.00     0.041 C 
HETATM    9  C7  UNL     1      20.355  16.235  46.389  1.00  0.00     0.078 C 
HETATM   10  C8  UNL     1      21.341  15.296  47.110  1.00  0.00     0.047 C 
HETATM   11  C9  UNL     1      20.765  16.292  44.972  1.00  0.00     0.275 C 
HETATM   12  C10 UNL     1      21.082  17.611  43.002  1.00  0.00     0.226 A 
HETATM   13  C11 UNL     1      20.336  18.643  42.140  1.00  0.00     0.317 C 
HETATM   14  C12 UNL     1      22.551  17.759  43.061  1.00  0.00     0.129 A 
HETATM   15  C13 UNL     1      21.886  16.643  42.305  1.00  0.00     0.281 A 
HETATM   16  F1  UNL     1      22.081  15.337  42.671  1.00  0.00    -0.203 F 
HETATM   17  F2  UNL     1      22.015  16.795  40.916  1.00  0.00    -0.203 F 
ENDROOT
BRANCH   9  18
HETATM   18  O1  UNL     1      19.107  15.685  46.633  1.00  0.00    -0.389 OA
ATOM     19  H1  UNL     1      18.972  15.659  47.573  1.00  0.00     0.210 HD
ENDBRANCH   9  18
TORSDOF 1
ENDMDL
MODEL 4
REMARK VINA RESULT: 0.102729430      2.467      4.257
REMARK  1 active torsions:
REMARK  status: ('A' for Active; 'I' for Inactive)
REMARK    1  A    between atoms: C7_9  and  O1_11 
ROOT
HETATM    1  C1  UNL     1      20.611  15.154  48.143  1.00  0.00     0.310 C 
HETATM    2  N1  UNL     1      20.816  16.203  47.203  1.00  0.00     0.088 N 
HETATM    3  C2  UNL     1      21.144  15.692  45.886  1.00  0.00     0.300 C 
HETATM    4  C3  UNL     1      21.132  16.882  44.933  1.00  0.00     0.269 C 
HETATM    5  N2  UNL     1      19.751  17.302  44.644  1.00  0.00    -0.046 N 
HETATM    6  C4  UNL     1      19.770  18.764  44.713  1.00  0.00     0.239 C 
HETATM    7  C5  UNL     1      19.154  19.394  43.477  1.00  0.00     0.031 C 
HETATM    8  C6  UNL     1      20.020  18.984  42.309  1.00  0.00     0.041 C 
HETATM    9  C7  UNL     1      19.885  17.484  42.178  1.00  0.00     0.078 C 
HETATM   10  C8  UNL     1      18.887  17.263  41.026  1.00  0.00     0.047 C 
HETATM   11  C9  UNL     1      19.333  16.809  43.369  1.00  0.00     0.275 C 
HETATM   12  C10 UNL     1      18.951  16.847  45.730  1.00  0.00     0.226 A 
HETATM   13  C11 UNL     1      19.707  17.103  47.043  1.00  0.00     0.317 C 
HETATM   14  C12 UNL     1      17.522  17.223  45.722  1.00  0.00     0.129 A 
HETATM   15  C13 UNL     1      17.976  15.789  45.738  1.00  0.00     0.281 A 
HETATM   16  F1  UNL     1      17.681  14.952  44.695  1.00  0.00    -0.203 F 
HETATM   17  F2  UNL     1      17.715  15.165  46.967  1.00  0.00    -0.203 F 
ENDROOT
BRANCH   9  18
HETATM   18  O1  UNL     1      21.085  16.980  41.702  1.00  0.00    -0.389 OA
ATOM     19  H1  UNL     1      21.390  17.548  41.003  1.00  0.00     0.210 HD
ENDBRANCH   9  18
TORSDOF 1
ENDMDL
MODEL 5
REMARK VINA RESULT: 1.594764716      2.154      3.360
REMARK  1 active torsions:
REMARK  status: ('A' for Active; 'I' for Inactive)
REMARK    1  A    between atoms: C7_9  and  O1_11 
ROOT
HETATM    1  C1  UNL     1      22.221  16.635  39.283  1.00  0.00     0.310 C 
HETATM    2  N1  UNL     1      21.272  17.255  40.144  1.00  0.00     0.088 N 
HETATM    3  C2  UNL     1      20.505  16.278  40.894  1.00  0.00     0.300 C 
HETATM    4  C3  UNL     1      19.684  17.052  41.920  1.00  0.00     0.269 C 
HETATM    5  N2  UNL     1      20.539  17.522  43.023  1.00  0.00    -0.046 N 
HETATM    6  C4  UNL     1      20.117  18.900  43.277  1.00  0.00     0.239 C 
HETATM    7  C5  UNL     1      19.816  19.135  44.746  1.00  0.00     0.031 C 
HETATM    8  C6  UNL     1      18.656  18.234  45.096  1.00  0.00     0.041 C 
HETATM    9  C7  UNL     1      19.152  16.814  44.948  1.00  0.00     0.078 C 
HETATM   10  C8  UNL     1      19.461  16.338  46.380  1.00  0.00     0.047 C 
HETATM   11  C9  UNL     1      20.396  16.674  44.165  1.00  0.00     0.275 C 
HETATM   12  C10 UNL     1      21.866  17.584  42.511  1.00  0.00     0.226 A 
HETATM   13  C11 UNL     1      21.824  18.180  41.095  1.00  0.00     0.317 C 
HETATM   14  C12 UNL     1      22.913  18.117  43.407  1.00  0.00     0.129 A 
HETATM   15  C13 UNL     1      22.983  16.732  42.824  1.00  0.00     0.281 A 
HETATM   16  F1  UNL     1      22.958  15.630  43.638  1.00  0.00    -0.203 F 
HETATM   17  F2  UNL     1      23.993  16.616  41.858  1.00  0.00    -0.203 F 
ENDROOT
BRANCH   9  18
HETATM   18  O1  UNL     1      18.091  16.023  44.538  1.00  0.00    -0.389 OA
ATOM     19  H1  UNL     1      18.062  16.033  43.588  1.00  0.00     0.210 HD
ENDBRANCH   9  18
TORSDOF 1
ENDMDL
