MODEL 1
REMARK VINA RESULT: -5.700225952      0.000      0.000
REMARK  3 active torsions:
REMARK  status: ('A' for Active; 'I' for Inactive)
REMARK    1  A    between atoms: N1_5  and  C5_6 
REMARK    2  A    between atoms: C5_6  and  N2_8 
REMARK    3  A    between atoms: C8_11  and  N3_12 
ROOT
HETATM    1  C1  UNL     1      18.758  17.388  40.314  1.00  0.00     0.012 C 
HETATM    2  C2  UNL     1      19.232  17.808  41.348  1.00  0.00    -0.108 C 
HETATM    3  C3  UNL     1      19.799  18.340  42.594  1.00  0.00     0.117 C 
HETATM    4  C4  UNL     1      18.838  18.090  43.708  1.00  0.00     0.145 C 
HETATM    5  N1  UNL     1      19.422  17.045  44.500  1.00  0.00    -0.354 N 
HETATM    6  C10 UNL     1      20.602  16.473  43.826  1.00  0.00     0.164 C 
HETATM    7  C11 UNL     1      21.062  17.607  42.933  1.00  0.00     0.205 C 
HETATM    8  F1  UNL     1      21.937  18.391  43.616  1.00  0.00    -0.246 F 
ENDROOT
BRANCH   5   9
HETATM    9  C5  UNL     1      18.970  16.580  45.762  1.00  0.00     0.172 C 
HETATM   10  S1  UNL     1      20.182  16.199  46.854  1.00  0.00    -0.041 SA
BRANCH   9  11
HETATM   11  N2  UNL     1      17.622  16.419  46.160  1.00  0.00    -0.356 N 
HETATM   12  C6  UNL     1      16.519  17.317  45.975  1.00  0.00     0.127 C 
HETATM   13  C7  UNL     1      15.285  16.535  46.505  1.00  0.00     0.054 C 
HETATM   14  C8  UNL     1      15.980  15.785  47.624  1.00  0.00     0.203 C 
HETATM   15  C9  UNL     1      17.149  15.228  46.848  1.00  0.00     0.158 C 
BRANCH  14  16
HETATM   16  N3  UNL     1      15.160  14.786  48.227  1.00  0.00    -0.073 N 
ATOM     17  H33 UNL     1      14.202  15.119  48.334  1.00  0.00     0.274 HD
ATOM     18  H32 UNL     1      14.998  14.013  47.582  1.00  0.00     0.274 HD
ATOM     19  H31 UNL     1      15.527  14.446  49.115  1.00  0.00     0.274 HD
ENDBRANCH  14  16
ENDBRANCH   9  11
ENDBRANCH   5   9
TORSDOF 3
ENDMDL
MODEL 2
REMARK VINA RESULT: -5.391803412      1.491      2.222
REMARK  3 active torsions:
REMARK  status: ('A' for Active; 'I' for Inactive)
REMARK    1  A    between atoms: N1_5  and  C5_6 
REMARK    2  A    between atoms: C5_6  and  N2_8 
REMARK    3  A    between atoms: C8_11  and  N3_12 
ROOT
HETATM    1  C1  UNL     1      23.612  18.115  41.880  1.00  0.00     0.012 C 
HETATM    2  C2  UNL     1      22.578  17.499  42.030  1.00  0.00    -0.108 C 
HETATM    3  C3  UNL     1      21.338  16.733  42.200  1.00  0.00     0.117 C 
HETATM    4  C4  UNL     1      21.280  16.207  43.595  1.00  0.00     0.145 C 
HETATM    5  N1  UNL     1      20.278  16.986  44.266  1.00  0.00    -0.354 N 
HETATM    6  C10 UNL     1      19.847  18.118  43.427  1.00  0.00     0.164 C 
HETATM    7  C11 UNL     1      20.153  17.636  42.024  1.00  0.00     0.205 C 
HETATM    8  F1  UNL     1      19.076  16.969  41.532  1.00  0.00    -0.246 F 
ENDROOT
BRANCH   5   9
HETATM    9  C5  UNL     1      19.740  16.749  45.556  1.00  0.00     0.172 C 
HETATM   10  S1  UNL     1      20.861  16.740  46.803  1.00  0.00    -0.041 SA
BRANCH   9  11
HETATM   11  N2  UNL     1      18.379  16.528  45.867  1.00  0.00    -0.356 N 
HETATM   12  C6  UNL     1      17.260  17.403  45.669  1.00  0.00     0.127 C 
HETATM   13  C7  UNL     1      16.024  16.558  46.084  1.00  0.00     0.054 C 
HETATM   14  C8  UNL     1      16.678  15.766  47.198  1.00  0.00     0.203 C 
HETATM   15  C9  UNL     1      17.905  15.287  46.461  1.00  0.00     0.158 C 
BRANCH  14  16
HETATM   16  N3  UNL     1      15.858  14.713  47.697  1.00  0.00    -0.073 N 
ATOM     17  H33 UNL     1      15.298  14.302  46.950  1.00  0.00     0.274 HD
ATOM     18  H32 UNL     1      16.423  13.902  47.949  1.00  0.00     0.274 HD
ATOM     19  H31 UNL     1      15.266  14.998  48.477  1.00  0.00     0.274 HD
ENDBRANCH  14  16
ENDBRANCH   9  11
ENDBRANCH   5   9
TORSDOF 3
ENDMDL
MODEL 3
REMARK VINA RESULT: -5.251035422      0.820      1.271
REMARK  3 active torsions:
REMARK  status: ('A' for Active; 'I' for Inactive)
REMARK    1  A    between atoms: N1_5  and  C5_6 
REMARK    2  A    between atoms: C5_6  and  N2_8 
REMARK    3  A    between atoms: C8_11  and  N3_12 
ROOT
HETATM    1  C1  UNL     1      18.710  17.364  40.494  1.00  0.00     0.012 C 
HETATM    2  C2  UNL     1      19.243  17.787  41.498  1.00  0.00    -0.108 C 
HETATM    3  C3  UNL     1      19.878  18.321  42.709  1.00  0.00     0.117 C 
HETATM    4  C4  UNL     1      19.038  17.972  43.892  1.00  0.00     0.145 C 
HETATM    5  N1  UNL     1      19.758  16.949  44.594  1.00  0.00    -0.354 N 
HETATM    6  C10 UNL     1      20.911  16.482  43.802  1.00  0.00     0.164 C 
HETATM    7  C11 UNL     1      21.213  17.671  42.913  1.00  0.00     0.205 C 
HETATM    8  F1  UNL     1      22.088  18.495  43.547  1.00  0.00    -0.246 F 
ENDROOT
BRANCH   5   9
HETATM    9  C5  UNL     1      19.450  16.417  45.873  1.00  0.00     0.172 C 
HETATM   10  S1  UNL     1      20.764  16.225  46.896  1.00  0.00    -0.041 SA
BRANCH   9  11
HETATM   11  N2  UNL     1      18.167  16.049  46.339  1.00  0.00    -0.356 N 
HETATM   12  C6  UNL     1      17.706  14.762  46.774  1.00  0.00     0.127 C 
HETATM   13  C7  UNL     1      16.261  15.016  47.284  1.00  0.00     0.054 C 
HETATM   14  C8  UNL     1      15.878  16.098  46.294  1.00  0.00     0.203 C 
HETATM   15  C9  UNL     1      17.076  17.003  46.456  1.00  0.00     0.158 C 
BRANCH  14  16
HETATM   16  N3  UNL     1      14.635  16.726  46.598  1.00  0.00    -0.073 N 
ATOM     17  H33 UNL     1      13.861  16.230  46.158  1.00  0.00     0.274 HD
ATOM     18  H32 UNL     1      14.390  16.587  47.578  1.00  0.00     0.274 HD
ATOM     19  H31 UNL     1      14.615  17.717  46.357  1.00  0.00     0.274 HD
ENDBRANCH  14  16
ENDBRANCH   9  11
ENDBRANCH   5   9
TORSDOF 3
ENDMDL
MODEL 4
REMARK VINA RESULT: -5.200328229      1.349      1.780
REMARK  3 active torsions:
REMARK  status: ('A' for Active; 'I' for Inactive)
REMARK    1  A    between atoms: N1_5  and  C5_6 
REMARK    2  A    between atoms: C5_6  and  N2_8 
REMARK    3  A    between atoms: C8_11  and  N3_12 
ROOT
HETATM    1  C1  UNL     1      22.887  16.750  42.215  1.00  0.00     0.012 C 
HETATM    2  C2  UNL     1      21.801  17.146  42.581  1.00  0.00    -0.108 C 
HETATM    3  C3  UNL     1      20.476  17.620  43.000  1.00  0.00     0.117 C 
HETATM    4  C4  UNL     1      19.782  16.526  43.741  1.00  0.00     0.145 C 
HETATM    5  N1  UNL     1      19.786  16.924  45.120  1.00  0.00    -0.354 N 
HETATM    6  C10 UNL     1      20.635  18.113  45.319  1.00  0.00     0.164 C 
HETATM    7  C11 UNL     1      20.625  18.768  43.953  1.00  0.00     0.205 C 
HETATM    8  F1  UNL     1      19.577  19.631  43.876  1.00  0.00    -0.246 F 
ENDROOT
BRANCH   5   9
HETATM    9  C5  UNL     1      19.093  16.298  46.187  1.00  0.00     0.172 C 
HETATM   10  S1  UNL     1      20.069  15.530  47.314  1.00  0.00    -0.041 SA
BRANCH   9  11
HETATM   11  N2  UNL     1      17.692  16.271  46.373  1.00  0.00    -0.356 N 
HETATM   12  C6  UNL     1      16.714  17.237  45.962  1.00  0.00     0.127 C 
HETATM   13  C7  UNL     1      15.349  16.593  46.332  1.00  0.00     0.054 C 
HETATM   14  C8  UNL     1      15.793  15.872  47.589  1.00  0.00     0.203 C 
HETATM   15  C9  UNL     1      17.014  15.173  47.044  1.00  0.00     0.158 C 
BRANCH  14  16
HETATM   16  N3  UNL     1      14.805  14.986  48.109  1.00  0.00    -0.073 N 
ATOM     17  H33 UNL     1      13.885  15.205  47.727  1.00  0.00     0.274 HD
ATOM     18  H32 UNL     1      14.925  14.047  47.730  1.00  0.00     0.274 HD
ATOM     19  H31 UNL     1      14.779  14.965  49.128  1.00  0.00     0.274 HD
ENDBRANCH  14  16
ENDBRANCH   9  11
ENDBRANCH   5   9
TORSDOF 3
ENDMDL
MODEL 5
REMARK VINA RESULT: -5.133496962      2.034      2.356
REMARK  3 active torsions:
REMARK  status: ('A' for Active; 'I' for Inactive)
REMARK    1  A    between atoms: N1_5  and  C5_6 
REMARK    2  A    between atoms: C5_6  and  N2_8 
REMARK    3  A    between atoms: C8_11  and  N3_12 
ROOT
HETATM    1  C1  UNL     1      21.522  16.812  41.925  1.00  0.00     0.012 C 
HETATM    2  C2  UNL     1      21.186  17.355  42.955  1.00  0.00    -0.108 C 
HETATM    3  C3  UNL     1      20.785  18.036  44.193  1.00  0.00     0.117 C 
HETATM    4  C4  UNL     1      19.299  18.174  44.210  1.00  0.00     0.145 C 
HETATM    5  N1  UNL     1      18.831  17.236  45.189  1.00  0.00    -0.354 N 
HETATM    6  C10 UNL     1      19.927  16.361  45.642  1.00  0.00     0.164 C 
HETATM    7  C11 UNL     1      21.161  17.200  45.379  1.00  0.00     0.205 C 
HETATM    8  F1  UNL     1      21.429  17.961  46.473  1.00  0.00    -0.246 F 
ENDROOT
BRANCH   5   9
HETATM    9  C5  UNL     1      17.509  17.118  45.690  1.00  0.00     0.172 C 
HETATM   10  S1  UNL     1      16.478  18.374  45.276  1.00  0.00    -0.041 SA
BRANCH   9  11
HETATM   11  N2  UNL     1      17.006  16.061  46.483  1.00  0.00    -0.356 N 
HETATM   12  C6  UNL     1      16.036  16.115  47.538  1.00  0.00     0.127 C 
HETATM   13  C7  UNL     1      15.805  14.630  47.933  1.00  0.00     0.054 C 
HETATM   14  C8  UNL     1      17.216  14.130  47.696  1.00  0.00     0.203 C 
HETATM   15  C9  UNL     1      17.434  14.682  46.308  1.00  0.00     0.158 C 
BRANCH  14  16
HETATM   16  N3  UNL     1      17.332  12.712  47.777  1.00  0.00    -0.073 N 
ATOM     17  H33 UNL     1      16.883  12.359  48.622  1.00  0.00     0.274 HD
ATOM     18  H32 UNL     1      16.747  12.260  47.075  1.00  0.00     0.274 HD
ATOM     19  H31 UNL     1      18.295  12.382  47.714  1.00  0.00     0.274 HD
ENDBRANCH  14  16
ENDBRANCH   9  11
ENDBRANCH   5   9
TORSDOF 3
ENDMDL
