MODEL 1
REMARK VINA RESULT: -4.703114118      0.000      0.000
REMARK  2 active torsions:
REMARK  status: ('A' for Active; 'I' for Inactive)
REMARK    1  A    between atoms: N2_5  and  C4_6 
REMARK    2  A    between atoms: C4_6  and  N3_8 
ROOT
HETATM    1  C1  UNL     1      18.930  17.395  41.000  1.00  0.00     0.312 C 
HETATM    2  N1  UNL     1      19.776  17.536  42.163  1.00  0.00     0.114 N 
HETATM    3  C2  UNL     1      19.203  18.545  43.026  1.00  0.00     0.294 C 
HETATM    4  C3  UNL     1      18.557  17.761  44.150  1.00  0.00     0.155 C 
HETATM    5  N2  UNL     1      19.626  17.153  44.906  1.00  0.00    -0.354 N 
HETATM    6  C5  UNL     1      21.064  17.300  44.919  1.00  0.00     0.155 C 
HETATM    7  C6  UNL     1      21.725  16.586  43.772  1.00  0.00     0.294 C 
HETATM    8  N4  UNL     1      22.126  17.495  42.711  1.00  0.00     0.114 N 
HETATM    9  C7  UNL     1      23.211  16.835  42.005  1.00  0.00     0.312 C 
HETATM   10  C8  UNL     1      21.107  17.777  41.762  1.00  0.00     0.541 C 
ENDROOT
BRANCH   5  11
HETATM   11  C4  UNL     1      19.134  16.188  45.859  1.00  0.00     0.184 C 
HETATM   12  S1  UNL     1      20.034  15.817  47.164  1.00  0.00    -0.040 SA
BRANCH  11  13
HETATM   13  N3  UNL     1      17.889  15.564  45.677  1.00  0.00    -0.275 N 
HETATM   14 CL1  UNL     1      16.539  16.016  46.656  1.00  0.00     0.013 Cl
ATOM     15  H3  UNL     1      17.781  14.842  44.964  1.00  0.00     0.183 HD
ENDBRANCH  11  13
ENDBRANCH   5  11
TORSDOF 2
ENDMDL
MODEL 2
REMARK VINA RESULT: -4.642176672      1.506      1.506
REMARK  2 active torsions:
REMARK  status: ('A' for Active; 'I' for Inactive)
REMARK    1  A    between atoms: N2_5  and  C4_6 
REMARK    2  A    between atoms: C4_6  and  N3_8 
ROOT
HETATM    1  C1  UNL     1      18.911  17.955  41.451  1.00  0.00     0.312 C 
HETATM    2  N1  UNL     1      19.552  17.773  42.732  1.00  0.00     0.114 N 
HETATM    3  C2  UNL     1      19.109  18.826  43.619  1.00  0.00     0.294 C 
HETATM    4  C3  UNL     1      18.105  18.156  44.534  1.00  0.00     0.155 C 
HETATM    5  N2  UNL     1      18.842  17.227  45.357  1.00  0.00    -0.354 N 
HETATM    6  C5  UNL     1      20.246  16.984  45.597  1.00  0.00     0.155 C 
HETATM    7  C6  UNL     1      20.895  16.213  44.480  1.00  0.00     0.294 C 
HETATM    8  N4  UNL     1      21.687  17.064  43.606  1.00  0.00     0.114 N 
HETATM    9  C7  UNL     1      22.677  16.197  42.991  1.00  0.00     0.312 C 
HETATM   10  C8  UNL     1      20.950  17.681  42.561  1.00  0.00     0.541 C 
ENDROOT
BRANCH   5  11
HETATM   11  C4  UNL     1      17.968  16.356  46.105  1.00  0.00     0.184 C 
HETATM   12  S1  UNL     1      16.396  16.741  46.267  1.00  0.00    -0.040 SA
BRANCH  11  13
HETATM   13  N3  UNL     1      18.458  15.178  46.695  1.00  0.00    -0.275 N 
HETATM   14 CL1  UNL     1      17.367  14.059  47.434  1.00  0.00     0.013 Cl
ATOM     15  H3  UNL     1      19.459  14.983  46.688  1.00  0.00     0.183 HD
ENDBRANCH  11  13
ENDBRANCH   5  11
TORSDOF 2
ENDMDL
MODEL 3
REMARK VINA RESULT: -4.431270791      1.398      1.398
REMARK  2 active torsions:
REMARK  status: ('A' for Active; 'I' for Inactive)
REMARK    1  A    between atoms: N2_5  and  C4_6 
REMARK    2  A    between atoms: C4_6  and  N3_8 
ROOT
HETATM    1  C1  UNL     1      18.892  17.463  41.285  1.00  0.00     0.312 C 
HETATM    2  N1  UNL     1      19.759  17.568  42.435  1.00  0.00     0.114 N 
HETATM    3  C2  UNL     1      19.217  18.571  43.326  1.00  0.00     0.294 C 
HETATM    4  C3  UNL     1      18.576  17.779  44.446  1.00  0.00     0.155 C 
HETATM    5  N2  UNL     1      19.645  17.139  45.173  1.00  0.00    -0.354 N 
HETATM    6  C5  UNL     1      21.086  17.260  45.166  1.00  0.00     0.155 C 
HETATM    7  C6  UNL     1      21.715  16.555  43.996  1.00  0.00     0.294 C 
HETATM    8  N4  UNL     1      22.116  17.476  42.944  1.00  0.00     0.114 N 
HETATM    9  C7  UNL     1      23.177  16.809  42.208  1.00  0.00     0.312 C 
HETATM   10  C8  UNL     1      21.087  17.792  42.017  1.00  0.00     0.541 C 
ENDROOT
BRANCH   5  11
HETATM   11  C4  UNL     1      19.152  16.166  46.118  1.00  0.00     0.184 C 
HETATM   12  S1  UNL     1      17.582  15.739  46.085  1.00  0.00    -0.040 SA
BRANCH  11  13
HETATM   13  N3  UNL     1      20.009  15.583  47.066  1.00  0.00    -0.275 N 
HETATM   14 CL1  UNL     1      19.390  14.450  48.215  1.00  0.00     0.013 Cl
ATOM     15  H3  UNL     1      20.999  15.828  47.076  1.00  0.00     0.183 HD
ENDBRANCH  11  13
ENDBRANCH   5  11
TORSDOF 2
ENDMDL
MODEL 4
REMARK VINA RESULT: -3.851647690      1.183      1.183
REMARK  2 active torsions:
REMARK  status: ('A' for Active; 'I' for Inactive)
REMARK    1  A    between atoms: N2_5  and  C4_6 
REMARK    2  A    between atoms: C4_6  and  N3_8 
ROOT
HETATM    1  C1  UNL     1      18.887  18.002  41.330  1.00  0.00     0.312 C 
HETATM    2  N1  UNL     1      19.509  17.831  42.622  1.00  0.00     0.114 N 
HETATM    3  C2  UNL     1      19.096  18.922  43.477  1.00  0.00     0.294 C 
HETATM    4  C3  UNL     1      18.060  18.312  44.398  1.00  0.00     0.155 C 
HETATM    5  N2  UNL     1      18.755  17.380  45.253  1.00  0.00    -0.354 N 
HETATM    6  C5  UNL     1      20.147  17.093  45.514  1.00  0.00     0.155 C 
HETATM    7  C6  UNL     1      20.778  16.271  44.424  1.00  0.00     0.294 C 
HETATM    8  N4  UNL     1      21.608  17.069  43.537  1.00  0.00     0.114 N 
HETATM    9  C7  UNL     1      22.573  16.151  42.954  1.00  0.00     0.312 C 
HETATM   10  C8  UNL     1      20.904  17.685  42.468  1.00  0.00     0.541 C 
ENDROOT
BRANCH   5  11
HETATM   11  C4  UNL     1      17.844  16.560  46.014  1.00  0.00     0.184 C 
HETATM   12  S1  UNL     1      18.388  15.202  46.726  1.00  0.00    -0.040 SA
BRANCH  11  13
HETATM   13  N3  UNL     1      16.492  16.919  46.149  1.00  0.00    -0.275 N 
HETATM   14 CL1  UNL     1      15.530  16.223  47.406  1.00  0.00     0.013 Cl
ATOM     15  H3  UNL     1      16.077  17.592  45.505  1.00  0.00     0.183 HD
ENDBRANCH  11  13
ENDBRANCH   5  11
TORSDOF 2
ENDMDL
MODEL 5
REMARK VINA RESULT: -3.657168237      3.124      5.349
REMARK  2 active torsions:
REMARK  status: ('A' for Active; 'I' for Inactive)
REMARK    1  A    between atoms: N2_5  and  C4_6 
REMARK    2  A    between atoms: C4_6  and  N3_8 
ROOT
HETATM    1  C1  UNL     1      20.768  15.120  47.595  1.00  0.00     0.312 C 
HETATM    2  N1  UNL     1      20.100  16.070  46.737  1.00  0.00     0.114 N 
HETATM    3  C2  UNL     1      20.884  17.286  46.703  1.00  0.00     0.294 C 
HETATM    4  C3  UNL     1      21.583  17.249  45.360  1.00  0.00     0.155 C 
HETATM    5  N2  UNL     1      20.564  17.407  44.351  1.00  0.00    -0.354 N 
HETATM    6  C5  UNL     1      19.164  17.763  44.377  1.00  0.00     0.155 C 
HETATM    7  C6  UNL     1      18.288  16.620  44.812  1.00  0.00     0.294 C 
HETATM    8  N4  UNL     1      17.850  16.752  46.193  1.00  0.00     0.114 N 
HETATM    9  C7  UNL     1      16.619  15.986  46.298  1.00  0.00     0.312 C 
HETATM   10  C8  UNL     1      18.761  16.232  47.151  1.00  0.00     0.541 C 
ENDROOT
BRANCH   5  11
HETATM   11  C4  UNL     1      21.071  17.151  43.025  1.00  0.00     0.184 C 
HETATM   12  S1  UNL     1      20.069  17.256  41.747  1.00  0.00    -0.040 SA
BRANCH  11  13
HETATM   13  N3  UNL     1      22.420  16.813  42.821  1.00  0.00    -0.275 N 
HETATM   14 CL1  UNL     1      23.473  17.904  41.992  1.00  0.00     0.013 Cl
ATOM     15  H3  UNL     1      22.778  15.921  43.163  1.00  0.00     0.183 HD
ENDBRANCH  11  13
ENDBRANCH   5  11
TORSDOF 2
ENDMDL
