MODEL 1
REMARK VINA RESULT: -5.491836848      0.000      0.000
REMARK  2 active torsions:
REMARK  status: ('A' for Active; 'I' for Inactive)
REMARK    1  A    between atoms: N2_5  and  C4_6 
REMARK    2  A    between atoms: C4_6  and  N3_8 
ROOT
HETATM    1  C1  UNL     1      21.652  16.951  40.580  1.00  0.00     0.310 C 
HETATM    2  N1  UNL     1      21.081  17.572  41.748  1.00  0.00     0.087 N 
HETATM    3  C2  UNL     1      19.685  17.328  41.906  1.00  0.00     0.291 C 
HETATM    4  C3  UNL     1      19.256  17.984  43.218  1.00  0.00     0.155 C 
HETATM    5  N2  UNL     1      19.857  17.196  44.276  1.00  0.00    -0.355 N 
HETATM    6  C6  UNL     1      21.156  16.610  44.013  1.00  0.00     0.155 C 
HETATM    7  C7  UNL     1      21.865  17.428  42.929  1.00  0.00     0.291 C 
ENDROOT
BRANCH   5   8
HETATM    8  C4  UNL     1      19.235  16.983  45.528  1.00  0.00     0.175 C 
HETATM    9  S1  UNL     1      20.037  16.240  46.727  1.00  0.00    -0.041 SA
BRANCH   8  10
HETATM   10  N3  UNL     1      17.913  17.432  45.699  1.00  0.00    -0.312 N 
HETATM   11  C5  UNL     1      16.954  16.591  45.845  1.00  0.00     0.190 C 
HETATM   12  N4  UNL     1      15.649  17.098  46.013  1.00  0.00    -0.069 NA
HETATM   13 CL1  UNL     1      17.284  14.892  45.831  1.00  0.00    -0.048 Cl
ATOM     14  H3  UNL     1      17.715  18.432  45.709  1.00  0.00     0.170 HD
ENDBRANCH   8  10
ENDBRANCH   5   8
TORSDOF 2
ENDMDL
MODEL 2
REMARK VINA RESULT: -5.251580138      1.098      1.742
REMARK  2 active torsions:
REMARK  status: ('A' for Active; 'I' for Inactive)
REMARK    1  A    between atoms: N2_5  and  C4_6 
REMARK    2  A    between atoms: C4_6  and  N3_8 
ROOT
HETATM    1  C1  UNL     1      22.327  17.410  40.008  1.00  0.00     0.310 C 
HETATM    2  N1  UNL     1      21.773  16.808  41.194  1.00  0.00     0.087 N 
HETATM    3  C2  UNL     1      22.582  16.979  42.357  1.00  0.00     0.291 C 
HETATM    4  C3  UNL     1      21.825  16.356  43.530  1.00  0.00     0.155 C 
HETATM    5  N2  UNL     1      20.689  17.222  43.779  1.00  0.00    -0.355 N 
HETATM    6  C6  UNL     1      20.081  17.869  42.634  1.00  0.00     0.155 C 
HETATM    7  C7  UNL     1      20.381  17.047  41.376  1.00  0.00     0.291 C 
ENDROOT
BRANCH   5   8
HETATM    8  C4  UNL     1      20.164  17.452  45.071  1.00  0.00     0.175 C 
HETATM    9  S1  UNL     1      21.062  17.153  46.389  1.00  0.00    -0.041 SA
BRANCH   8  10
HETATM   10  N3  UNL     1      18.850  17.943  45.178  1.00  0.00    -0.312 N 
HETATM   11  C5  UNL     1      17.894  17.171  45.548  1.00  0.00     0.190 C 
HETATM   12  N4  UNL     1      16.597  17.718  45.637  1.00  0.00    -0.069 NA
HETATM   13 CL1  UNL     1      18.217  15.512  45.922  1.00  0.00    -0.048 Cl
ATOM     14  H3  UNL     1      18.656  18.921  44.959  1.00  0.00     0.170 HD
ENDBRANCH   8  10
ENDBRANCH   5   8
TORSDOF 2
ENDMDL
MODEL 3
REMARK VINA RESULT: -5.180384298      2.214      5.345
REMARK  2 active torsions:
REMARK  status: ('A' for Active; 'I' for Inactive)
REMARK    1  A    between atoms: N2_5  and  C4_6 
REMARK    2  A    between atoms: C4_6  and  N3_8 
ROOT
HETATM    1  C1  UNL     1      15.294  15.120  48.277  1.00  0.00     0.310 C 
HETATM    2  N1  UNL     1      16.133  15.271  47.115  1.00  0.00     0.087 N 
HETATM    3  C2  UNL     1      16.446  16.627  46.804  1.00  0.00     0.291 C 
HETATM    4  C3  UNL     1      17.394  16.609  45.605  1.00  0.00     0.155 C 
HETATM    5  N2  UNL     1      18.650  16.077  46.095  1.00  0.00    -0.355 N 
HETATM    6  C6  UNL     1      18.586  15.068  47.132  1.00  0.00     0.155 C 
HETATM    7  C7  UNL     1      17.228  14.362  47.062  1.00  0.00     0.291 C 
ENDROOT
BRANCH   5   8
HETATM    8  C4  UNL     1      19.909  16.498  45.607  1.00  0.00     0.175 C 
HETATM    9  S1  UNL     1      21.026  17.095  46.623  1.00  0.00    -0.041 SA
BRANCH   8  10
HETATM   10  N3  UNL     1      20.160  16.386  44.228  1.00  0.00    -0.312 N 
HETATM   11  C5  UNL     1      20.147  17.427  43.477  1.00  0.00     0.190 C 
HETATM   12  N4  UNL     1      20.405  17.253  42.101  1.00  0.00    -0.069 NA
HETATM   13 CL1  UNL     1      19.819  18.982  44.160  1.00  0.00    -0.048 Cl
ATOM     14  H3  UNL     1      20.354  15.470  43.822  1.00  0.00     0.170 HD
ENDBRANCH   8  10
ENDBRANCH   5   8
TORSDOF 2
ENDMDL
MODEL 4
REMARK VINA RESULT: -5.146522003      1.586      1.586
REMARK  2 active torsions:
REMARK  status: ('A' for Active; 'I' for Inactive)
REMARK    1  A    between atoms: N2_5  and  C4_6 
REMARK    2  A    between atoms: C4_6  and  N3_8 
ROOT
HETATM    1  C1  UNL     1      22.116  16.815  39.929  1.00  0.00     0.310 C 
HETATM    2  N1  UNL     1      21.693  17.390  41.181  1.00  0.00     0.087 N 
HETATM    3  C2  UNL     1      20.343  17.085  41.527  1.00  0.00     0.291 C 
HETATM    4  C3  UNL     1      20.078  17.698  42.902  1.00  0.00     0.155 C 
HETATM    5  N2  UNL     1      20.852  16.916  43.845  1.00  0.00    -0.355 N 
HETATM    6  C6  UNL     1      22.123  16.389  43.389  1.00  0.00     0.155 C 
HETATM    7  C7  UNL     1      22.640  17.256  42.236  1.00  0.00     0.291 C 
ENDROOT
BRANCH   5   8
HETATM    8  C4  UNL     1      20.422  16.655  45.167  1.00  0.00     0.175 C 
HETATM    9  S1  UNL     1      21.172  17.350  46.427  1.00  0.00    -0.041 SA
BRANCH   8  10
HETATM   10  N3  UNL     1      19.336  15.782  45.352  1.00  0.00    -0.312 N 
HETATM   11  C5  UNL     1      18.141  16.241  45.450  1.00  0.00     0.190 C 
HETATM   12  N4  UNL     1      17.090  15.318  45.635  1.00  0.00    -0.069 NA
HETATM   13 CL1  UNL     1      17.858  17.945  45.352  1.00  0.00    -0.048 Cl
ATOM     14  H3  UNL     1      19.498  14.776  45.410  1.00  0.00     0.170 HD
ENDBRANCH   8  10
ENDBRANCH   5   8
TORSDOF 2
ENDMDL
MODEL 5
REMARK VINA RESULT: -4.902127997      1.711      2.219
REMARK  2 active torsions:
REMARK  status: ('A' for Active; 'I' for Inactive)
REMARK    1  A    between atoms: N2_5  and  C4_6 
REMARK    2  A    between atoms: C4_6  and  N3_8 
ROOT
HETATM    1  C1  UNL     1      22.490  17.805  40.032  1.00  0.00     0.310 C 
HETATM    2  N1  UNL     1      22.046  16.944  41.099  1.00  0.00     0.087 N 
HETATM    3  C2  UNL     1      22.883  16.980  42.253  1.00  0.00     0.291 C 
HETATM    4  C3  UNL     1      22.238  16.080  43.308  1.00  0.00     0.155 C 
HETATM    5  N2  UNL     1      21.037  16.768  43.741  1.00  0.00    -0.355 N 
HETATM    6  C6  UNL     1      20.323  17.549  42.751  1.00  0.00     0.155 C 
HETATM    7  C7  UNL     1      20.646  17.005  41.356  1.00  0.00     0.291 C 
ENDROOT
BRANCH   5   8
HETATM    8  C4  UNL     1      20.547  16.704  45.066  1.00  0.00     0.175 C 
HETATM    9  S1  UNL     1      21.277  17.536  46.253  1.00  0.00    -0.041 SA
BRANCH   8  10
HETATM   10  N3  UNL     1      19.418  15.905  45.320  1.00  0.00    -0.312 N 
HETATM   11  C5  UNL     1      18.248  16.430  45.381  1.00  0.00     0.190 C 
HETATM   12  N4  UNL     1      17.153  15.580  45.640  1.00  0.00    -0.069 NA
HETATM   13 CL1  UNL     1      18.052  18.134  45.150  1.00  0.00    -0.048 Cl
ATOM     14  H3  UNL     1      19.529  14.900  45.457  1.00  0.00     0.170 HD
ENDBRANCH   8  10
ENDBRANCH   5   8
TORSDOF 2
ENDMDL
