MODEL 1
REMARK VINA RESULT: -4.319837860      0.000      0.000
REMARK  1 active torsions:
REMARK  status: ('A' for Active; 'I' for Inactive)
REMARK    1  A    between atoms: C10_13  and  O1_14 
ROOT
HETATM    1  C1  UNL     1      17.631  18.961  44.816  1.00  0.00     0.274 C 
HETATM    2  N1  UNL     1      18.705  18.062  44.435  1.00  0.00    -0.044 N 
HETATM    3  C2  UNL     1      18.576  16.773  45.064  1.00  0.00     0.242 C 
HETATM    4  C3  UNL     1      19.568  16.567  46.183  1.00  0.00     0.080 C 
HETATM    5  C4  UNL     1      20.984  16.806  45.662  1.00  0.00     0.323 C 
HETATM    6 CL1  UNL     1      21.910  17.434  47.050  1.00  0.00    -0.092 Cl
HETATM    7  N2  UNL     1      21.009  17.803  44.645  1.00  0.00     0.142 N 
HETATM    8  C5  UNL     1      19.946  18.735  44.774  1.00  0.00     0.510 C 
HETATM    9  C6  UNL     1      21.172  17.364  43.320  1.00  0.00     0.170 C 
HETATM   10  C7  UNL     1      19.969  17.291  42.467  1.00  0.00     0.070 C 
HETATM   11  C8  UNL     1      18.713  17.855  43.008  1.00  0.00     0.241 C 
HETATM   12  C9  UNL     1      22.103  16.188  43.094  1.00  0.00     0.073 C 
HETATM   13  C10 UNL     1      22.635  16.953  41.881  1.00  0.00     0.123 C 
HETATM   14  C11 UNL     1      22.247  18.224  42.628  1.00  0.00     0.073 C 
ENDROOT
BRANCH  13  15
HETATM   15  O1  UNL     1      23.992  16.872  41.702  1.00  0.00    -0.395 OA
ATOM     16  H1  UNL     1      24.372  16.029  41.924  1.00  0.00     0.210 HD
ENDBRANCH  13  15
TORSDOF 1
ENDMDL
MODEL 2
REMARK VINA RESULT: -3.185384967      3.151      4.733
REMARK  1 active torsions:
REMARK  status: ('A' for Active; 'I' for Inactive)
REMARK    1  A    between atoms: C10_13  and  O1_14 
ROOT
HETATM    1  C1  UNL     1      21.149  17.437  43.146  1.00  0.00     0.274 C 
HETATM    2  N1  UNL     1      20.269  17.423  44.300  1.00  0.00    -0.044 N 
HETATM    3  C2  UNL     1      20.771  18.248  45.368  1.00  0.00     0.242 C 
HETATM    4  C3  UNL     1      21.343  17.442  46.509  1.00  0.00     0.080 C 
HETATM    5  C4  UNL     1      20.299  16.443  47.004  1.00  0.00     0.323 C 
HETATM    6 CL1  UNL     1      21.218  15.039  47.604  1.00  0.00    -0.092 Cl
HETATM    7  N2  UNL     1      19.463  15.987  45.944  1.00  0.00     0.142 N 
HETATM    8  C5  UNL     1      20.114  16.032  44.684  1.00  0.00     0.510 C 
HETATM    9  C6  UNL     1      18.158  16.506  45.887  1.00  0.00     0.170 C 
HETATM   10  C7  UNL     1      17.889  17.583  44.914  1.00  0.00     0.070 C 
HETATM   11  C8  UNL     1      18.959  17.913  43.947  1.00  0.00     0.241 C 
HETATM   12  C9  UNL     1      17.453  16.744  47.209  1.00  0.00     0.073 C 
HETATM   13  C10 UNL     1      16.205  16.152  46.551  1.00  0.00     0.123 C 
HETATM   14  C11 UNL     1      17.161  15.352  45.672  1.00  0.00     0.073 C 
ENDROOT
BRANCH  13  15
HETATM   15  O1  UNL     1      15.464  15.331  47.361  1.00  0.00    -0.395 OA
ATOM     16  H1  UNL     1      15.732  15.326  48.273  1.00  0.00     0.210 HD
ENDBRANCH  13  15
TORSDOF 1
ENDMDL
MODEL 3
REMARK VINA RESULT: -2.432156341      2.035      2.916
REMARK  1 active torsions:
REMARK  status: ('A' for Active; 'I' for Inactive)
REMARK    1  A    between atoms: C10_13  and  O1_14 
ROOT
HETATM    1  C1  UNL     1      17.818  16.376  45.969  1.00  0.00     0.274 C 
HETATM    2  N1  UNL     1      18.923  16.996  45.262  1.00  0.00    -0.044 N 
HETATM    3  C2  UNL     1      18.775  18.426  45.181  1.00  0.00     0.242 C 
HETATM    4  C3  UNL     1      18.376  18.895  43.804  1.00  0.00     0.080 C 
HETATM    5  C4  UNL     1      19.374  18.368  42.774  1.00  0.00     0.323 C 
HETATM    6 CL1  UNL     1      18.445  18.148  41.269  1.00  0.00    -0.092 Cl
HETATM    7  N2  UNL     1      19.891  17.094  43.147  1.00  0.00     0.142 N 
HETATM    8  C5  UNL     1      18.987  16.360  43.959  1.00  0.00     0.510 C 
HETATM    9  C6  UNL     1      21.205  17.057  43.647  1.00  0.00     0.170 C 
HETATM   10  C7  UNL     1      21.381  16.957  45.109  1.00  0.00     0.070 C 
HETATM   11  C8  UNL     1      20.172  16.721  45.929  1.00  0.00     0.241 C 
HETATM   12  C9  UNL     1      22.208  18.002  43.015  1.00  0.00     0.073 C 
HETATM   13  C10 UNL     1      23.197  16.835  43.047  1.00  0.00     0.123 C 
HETATM   14  C11 UNL     1      21.980  15.922  42.952  1.00  0.00     0.073 C 
ENDROOT
BRANCH  13  15
HETATM   15  O1  UNL     1      23.993  16.727  41.936  1.00  0.00    -0.395 OA
ATOM     16  H1  UNL     1      24.829  16.300  42.086  1.00  0.00     0.210 HD
ENDBRANCH  13  15
TORSDOF 1
ENDMDL
MODEL 4
REMARK VINA RESULT: -2.281464754      2.505      3.524
REMARK  1 active torsions:
REMARK  status: ('A' for Active; 'I' for Inactive)
REMARK    1  A    between atoms: C10_13  and  O1_14 
ROOT
HETATM    1  C1  UNL     1      21.207  17.610  46.244  1.00  0.00     0.274 C 
HETATM    2  N1  UNL     1      20.926  17.263  44.863  1.00  0.00    -0.044 N 
HETATM    3  C2  UNL     1      21.642  16.084  44.449  1.00  0.00     0.242 C 
HETATM    4  C3  UNL     1      22.804  16.396  43.538  1.00  0.00     0.080 C 
HETATM    5  C4  UNL     1      22.312  17.212  42.343  1.00  0.00     0.323 C 
HETATM    6 CL1  UNL     1      23.680  18.254  41.874  1.00  0.00    -0.092 Cl
HETATM    7  N2  UNL     1      21.227  18.063  42.698  1.00  0.00     0.142 N 
HETATM    8  C5  UNL     1      21.255  18.432  44.069  1.00  0.00     0.510 C 
HETATM    9  C6  UNL     1      19.943  17.676  42.279  1.00  0.00     0.170 C 
HETATM   10  C7  UNL     1      19.060  17.034  43.273  1.00  0.00     0.070 C 
HETATM   11  C8  UNL     1      19.519  17.008  44.679  1.00  0.00     0.241 C 
HETATM   12  C9  UNL     1      19.832  17.024  40.914  1.00  0.00     0.073 C 
HETATM   13  C10 UNL     1      18.585  17.883  40.700  1.00  0.00     0.123 C 
HETATM   14  C11 UNL     1      19.225  18.887  41.653  1.00  0.00     0.073 C 
ENDROOT
BRANCH  13  15
HETATM   15  O1  UNL     1      18.455  18.403  39.438  1.00  0.00    -0.395 OA
ATOM     16  H1  UNL     1      17.562  18.448  39.117  1.00  0.00     0.210 HD
ENDBRANCH  13  15
TORSDOF 1
ENDMDL
MODEL 5
REMARK VINA RESULT: -1.987885597      2.841      4.288
REMARK  1 active torsions:
REMARK  status: ('A' for Active; 'I' for Inactive)
REMARK    1  A    between atoms: C10_13  and  O1_14 
ROOT
HETATM    1  C1  UNL     1      22.922  15.974  43.147  1.00  0.00     0.274 C 
HETATM    2  N1  UNL     1      21.964  16.920  42.606  1.00  0.00    -0.044 N 
HETATM    3  C2  UNL     1      22.068  18.210  43.239  1.00  0.00     0.242 C 
HETATM    4  C3  UNL     1      20.936  18.484  44.198  1.00  0.00     0.080 C 
HETATM    5  C4  UNL     1      19.600  18.310  43.477  1.00  0.00     0.323 C 
HETATM    6 CL1  UNL     1      18.450  17.752  44.718  1.00  0.00    -0.092 Cl
HETATM    7  N2  UNL     1      19.672  17.301  42.474  1.00  0.00     0.142 N 
HETATM    8  C5  UNL     1      20.654  16.317  42.765  1.00  0.00     0.510 C 
HETATM    9  C6  UNL     1      19.727  17.728  41.136  1.00  0.00     0.170 C 
HETATM   10  C7  UNL     1      21.044  17.726  40.469  1.00  0.00     0.070 C 
HETATM   11  C8  UNL     1      22.177  17.107  41.192  1.00  0.00     0.241 C 
HETATM   12  C9  UNL     1      18.904  18.947  40.768  1.00  0.00     0.073 C 
HETATM   13  C10 UNL     1      18.514  18.193  39.495  1.00  0.00     0.123 C 
HETATM   14  C11 UNL     1      18.721  16.914  40.300  1.00  0.00     0.073 C 
ENDROOT
BRANCH  13  15
HETATM   15  O1  UNL     1      17.204  18.341  39.119  1.00  0.00    -0.395 OA
ATOM     16  H1  UNL     1      16.581  18.325  39.836  1.00  0.00     0.210 HD
ENDBRANCH  13  15
TORSDOF 1
ENDMDL
