MODEL 1
REMARK VINA RESULT: -6.119493855      0.000      0.000
REMARK  4 active torsions:
REMARK  status: ('A' for Active; 'I' for Inactive)
REMARK    1  A    between atoms: C2_2  and  N1_3 
REMARK    2  A    between atoms: C3_5  and  C4_6 
REMARK    3  A    between atoms: C3_5  and  N6_19 
REMARK    4  A    between atoms: C4_6  and  N2_7 
REMARK       I    between atoms: N3_11  and  C8_12 
ROOT
HETATM    1  N2  UNL     1      32.267   0.096  79.596  1.00  0.00     0.097 N 
HETATM    2  C5  UNL     1      32.002   0.597  78.259  1.00  0.00     0.274 C 
HETATM    3  C6  UNL     1      33.203   1.046  77.522  1.00  0.00     0.050 C 
HETATM    4  C7  UNL     1      34.498   0.478  77.986  1.00  0.00     0.127 C 
HETATM    5  N3  UNL     1      34.401  -0.979  77.871  1.00  0.00    -0.354 N 
HETATM    6  C8  UNL     1      35.518  -1.681  77.344  1.00  0.00     0.184 C 
HETATM    7  N4  UNL     1      35.880  -1.643  76.116  1.00  0.00    -0.374 N 
ATOM      8  H41 UNL     1      36.682  -2.147  75.738  1.00  0.00     0.158 HD
ATOM      9  H42 UNL     1      35.310  -1.063  75.500  1.00  0.00     0.158 HD
HETATM   10  N5  UNL     1      36.324  -2.502  78.216  1.00  0.00    -0.064 NA
HETATM   11  C9  UNL     1      33.233  -1.742  78.261  1.00  0.00     0.156 C 
HETATM   12  C10 UNL     1      32.768  -1.244  79.605  1.00  0.00     0.292 C 
ENDROOT
BRANCH   1  13
HETATM   13  C4  UNL     1      31.011   0.173  80.313  1.00  0.00     0.347 C 
BRANCH  13  14
HETATM   14  C3  UNL     1      31.149   0.656  81.700  1.00  0.00     0.101 C 
HETATM   15  N1  UNL     1      32.259   0.788  82.337  1.00  0.00    -0.379 N 
ATOM     16  H1  UNL     1      33.126   0.542  81.859  1.00  0.00     0.160 HD
BRANCH  15  17
HETATM   17  C2  UNL     1      32.337   1.261  83.682  1.00  0.00     0.116 C 
HETATM   18  C1  UNL     1      33.725   1.606  84.129  1.00  0.00     0.026 C 
ENDBRANCH  15  17
BRANCH  14  19
HETATM   19  N6  UNL     1      29.957   1.006  82.390  1.00  0.00    -0.383 N 
HETATM   20  C11 UNL     1      29.379   2.312  82.120  1.00  0.00     0.147 C 
ATOM     21  H6  UNL     1      29.522   0.363  83.052  1.00  0.00     0.160 HD
ENDBRANCH  14  19
ENDBRANCH  13  14
ENDBRANCH   1  13
TORSDOF 4
ENDMDL
MODEL 2
REMARK VINA RESULT: -6.110923479      2.059      3.485
REMARK  4 active torsions:
REMARK  status: ('A' for Active; 'I' for Inactive)
REMARK    1  A    between atoms: C2_2  and  N1_3 
REMARK    2  A    between atoms: C3_5  and  C4_6 
REMARK    3  A    between atoms: C3_5  and  N6_19 
REMARK    4  A    between atoms: C4_6  and  N2_7 
REMARK       I    between atoms: N3_11  and  C8_12 
ROOT
HETATM    1  N2  UNL     1      34.254  -0.968  80.271  1.00  0.00     0.097 N 
HETATM    2  C5  UNL     1      34.901   0.189  79.681  1.00  0.00     0.274 C 
HETATM    3  C6  UNL     1      35.057   0.122  78.211  1.00  0.00     0.050 C 
HETATM    4  C7  UNL     1      34.129  -0.799  77.501  1.00  0.00     0.127 C 
HETATM    5  N3  UNL     1      32.765  -0.359  77.802  1.00  0.00    -0.354 N 
HETATM    6  C8  UNL     1      31.825  -0.329  76.737  1.00  0.00     0.184 C 
HETATM    7  N4  UNL     1      31.849   0.518  75.777  1.00  0.00    -0.374 N 
ATOM      8  H41 UNL     1      31.175   0.540  75.013  1.00  0.00     0.158 HD
ATOM      9  H42 UNL     1      32.604   1.204  75.806  1.00  0.00     0.158 HD
HETATM   10  N5  UNL     1      30.757  -1.300  76.696  1.00  0.00    -0.064 NA
HETATM   11  C9  UNL     1      32.321   0.047  79.120  1.00  0.00     0.156 C 
HETATM   12  C10 UNL     1      32.831  -0.955  80.123  1.00  0.00     0.292 C 
ENDROOT
BRANCH   1  13
HETATM   13  C4  UNL     1      34.617  -0.964  81.673  1.00  0.00     0.347 C 
BRANCH  13  14
HETATM   14  C3  UNL     1      34.083   0.191  82.420  1.00  0.00     0.101 C 
HETATM   15  N1  UNL     1      32.859   0.337  82.791  1.00  0.00    -0.379 N 
ATOM     16  H1  UNL     1      32.190  -0.396  82.558  1.00  0.00     0.160 HD
BRANCH  15  17
HETATM   17  C2  UNL     1      32.393   1.476  83.514  1.00  0.00     0.116 C 
HETATM   18  C1  UNL     1      30.913   1.691  83.426  1.00  0.00     0.026 C 
ENDBRANCH  15  17
BRANCH  14  19
HETATM   19  N6  UNL     1      34.994   1.226  82.759  1.00  0.00    -0.383 N 
HETATM   20  C11 UNL     1      35.576   1.204  84.091  1.00  0.00     0.147 C 
ATOM     21  H6  UNL     1      35.231   1.960  82.091  1.00  0.00     0.160 HD
ENDBRANCH  14  19
ENDBRANCH  13  14
ENDBRANCH   1  13
TORSDOF 4
ENDMDL
MODEL 3
REMARK VINA RESULT: -5.617109129      2.139      3.198
REMARK  4 active torsions:
REMARK  status: ('A' for Active; 'I' for Inactive)
REMARK    1  A    between atoms: C2_2  and  N1_3 
REMARK    2  A    between atoms: C3_5  and  C4_6 
REMARK    3  A    between atoms: C3_5  and  N6_19 
REMARK    4  A    between atoms: C4_6  and  N2_7 
REMARK       I    between atoms: N3_11  and  C8_12 
ROOT
HETATM    1  N2  UNL     1      34.112  -1.041  80.278  1.00  0.00     0.097 N 
HETATM    2  C5  UNL     1      34.803   0.106  79.717  1.00  0.00     0.274 C 
HETATM    3  C6  UNL     1      34.995   0.050  78.251  1.00  0.00     0.050 C 
HETATM    4  C7  UNL     1      34.063  -0.841  77.508  1.00  0.00     0.127 C 
HETATM    5  N3  UNL     1      32.703  -0.369  77.779  1.00  0.00    -0.354 N 
HETATM    6  C8  UNL     1      31.792  -0.304  76.690  1.00  0.00     0.184 C 
HETATM    7  N4  UNL     1      31.862   0.552  75.741  1.00  0.00    -0.374 N 
ATOM      8  H41 UNL     1      31.208   0.598  74.960  1.00  0.00     0.158 HD
ATOM      9  H42 UNL     1      32.633   1.218  75.796  1.00  0.00     0.158 HD
HETATM   10  N5  UNL     1      30.701  -1.247  76.612  1.00  0.00    -0.064 NA
HETATM   11  C9  UNL     1      32.236   0.035  79.089  1.00  0.00     0.156 C 
HETATM   12  C10 UNL     1      32.694  -0.990  80.094  1.00  0.00     0.292 C 
ENDROOT
BRANCH   1  13
HETATM   13  C4  UNL     1      34.439  -1.059  81.689  1.00  0.00     0.347 C 
BRANCH  13  14
HETATM   14  C3  UNL     1      34.204   0.228  82.369  1.00  0.00     0.101 C 
HETATM   15  N1  UNL     1      35.117   0.993  82.856  1.00  0.00    -0.379 N 
ATOM     16  H1  UNL     1      36.091   0.700  82.772  1.00  0.00     0.160 HD
BRANCH  15  17
HETATM   17  C2  UNL     1      34.834   2.232  83.506  1.00  0.00     0.116 C 
HETATM   18  C1  UNL     1      36.032   2.882  84.129  1.00  0.00     0.026 C 
ENDBRANCH  15  17
BRANCH  14  19
HETATM   19  N6  UNL     1      32.856   0.660  82.498  1.00  0.00    -0.383 N 
HETATM   20  C11 UNL     1      32.339   0.868  83.841  1.00  0.00     0.147 C 
ATOM     21  H6  UNL     1      32.273   0.819  81.677  1.00  0.00     0.160 HD
ENDBRANCH  14  19
ENDBRANCH  13  14
ENDBRANCH   1  13
TORSDOF 4
ENDMDL
MODEL 4
REMARK VINA RESULT: -5.529221335      0.718      2.019
REMARK  4 active torsions:
REMARK  status: ('A' for Active; 'I' for Inactive)
REMARK    1  A    between atoms: C2_2  and  N1_3 
REMARK    2  A    between atoms: C3_5  and  C4_6 
REMARK    3  A    between atoms: C3_5  and  N6_19 
REMARK    4  A    between atoms: C4_6  and  N2_7 
REMARK       I    between atoms: N3_11  and  C8_12 
ROOT
HETATM    1  N2  UNL     1      32.260  -0.025  79.811  1.00  0.00     0.097 N 
HETATM    2  C5  UNL     1      31.788   0.264  78.469  1.00  0.00     0.274 C 
HETATM    3  C6  UNL     1      32.783   0.929  77.599  1.00  0.00     0.050 C 
HETATM    4  C7  UNL     1      34.208   0.752  77.990  1.00  0.00     0.127 C 
HETATM    5  N3  UNL     1      34.483  -0.686  77.993  1.00  0.00    -0.354 N 
HETATM    6  C8  UNL     1      35.707  -1.131  77.425  1.00  0.00     0.184 C 
HETATM    7  N4  UNL     1      35.966  -1.120  76.171  1.00  0.00    -0.374 N 
ATOM      8  H41 UNL     1      36.845  -1.440  75.764  1.00  0.00     0.158 HD
ATOM      9  H42 UNL     1      35.227  -0.763  75.565  1.00  0.00     0.158 HD
HETATM   10  N5  UNL     1      36.753  -1.636  78.283  1.00  0.00    -0.064 NA
HETATM   11  C9  UNL     1      33.580  -1.678  78.540  1.00  0.00     0.156 C 
HETATM   12  C10 UNL     1      33.090  -1.189  79.878  1.00  0.00     0.292 C 
ENDROOT
BRANCH   1  13
HETATM   13  C4  UNL     1      31.077  -0.199  80.628  1.00  0.00     0.347 C 
BRANCH  13  14
HETATM   14  C3  UNL     1      30.928   0.821  81.683  1.00  0.00     0.101 C 
HETATM   15  N1  UNL     1      29.819   1.364  82.045  1.00  0.00    -0.379 N 
ATOM     16  H1  UNL     1      28.961   1.077  81.573  1.00  0.00     0.160 HD
BRANCH  15  17
HETATM   17  C2  UNL     1      29.730   2.349  83.074  1.00  0.00     0.116 C 
HETATM   18  C1  UNL     1      28.561   3.275  82.935  1.00  0.00     0.026 C 
ENDBRANCH  15  17
BRANCH  14  19
HETATM   19  N6  UNL     1      32.107   1.238  82.358  1.00  0.00    -0.383 N 
HETATM   20  C11 UNL     1      32.636   0.366  83.394  1.00  0.00     0.147 C 
ATOM     21  H6  UNL     1      32.566   2.117  82.122  1.00  0.00     0.160 HD
ENDBRANCH  14  19
ENDBRANCH  13  14
ENDBRANCH   1  13
TORSDOF 4
ENDMDL
MODEL 5
REMARK VINA RESULT: -5.500176013      1.632      2.848
REMARK  4 active torsions:
REMARK  status: ('A' for Active; 'I' for Inactive)
REMARK    1  A    between atoms: C2_2  and  N1_3 
REMARK    2  A    between atoms: C3_5  and  C4_6 
REMARK    3  A    between atoms: C3_5  and  N6_19 
REMARK    4  A    between atoms: C4_6  and  N2_7 
REMARK       I    between atoms: N3_11  and  C8_12 
ROOT
HETATM    1  N2  UNL     1      33.651   0.093  81.668  1.00  0.00     0.097 N 
HETATM    2  C5  UNL     1      32.422  -0.229  80.967  1.00  0.00     0.274 C 
HETATM    3  C6  UNL     1      32.431   0.107  79.526  1.00  0.00     0.050 C 
HETATM    4  C7  UNL     1      33.774   0.226  78.896  1.00  0.00     0.127 C 
HETATM    5  N3  UNL     1      34.454  -1.058  79.077  1.00  0.00    -0.354 N 
HETATM    6  C8  UNL     1      35.176  -1.590  77.975  1.00  0.00     0.184 C 
HETATM    7  N4  UNL     1      34.632  -2.066  76.918  1.00  0.00    -0.374 N 
ATOM      8  H41 UNL     1      35.150  -2.448  76.127  1.00  0.00     0.158 HD
ATOM      9  H42 UNL     1      33.612  -2.050  76.895  1.00  0.00     0.158 HD
HETATM   10  N5  UNL     1      36.619  -1.612  78.008  1.00  0.00    -0.064 NA
HETATM   11  C9  UNL     1      34.432  -1.816  80.312  1.00  0.00     0.156 C 
HETATM   12  C10 UNL     1      34.689  -0.869  81.454  1.00  0.00     0.292 C 
ENDROOT
BRANCH   1  13
HETATM   13  C4  UNL     1      33.309   0.165  83.074  1.00  0.00     0.347 C 
BRANCH  13  14
HETATM   14  C3  UNL     1      32.626   1.416  83.455  1.00  0.00     0.101 C 
HETATM   15  N1  UNL     1      31.351   1.586  83.498  1.00  0.00    -0.379 N 
ATOM     16  H1  UNL     1      30.748   0.802  83.252  1.00  0.00     0.160 HD
BRANCH  15  17
HETATM   17  C2  UNL     1      30.740   2.820  83.874  1.00  0.00     0.116 C 
HETATM   18  C1  UNL     1      29.408   3.063  83.233  1.00  0.00     0.026 C 
ENDBRANCH  15  17
BRANCH  14  19
HETATM   19  N6  UNL     1      33.443   2.525  83.804  1.00  0.00    -0.383 N 
HETATM   20  C11 UNL     1      34.836   2.262  84.127  1.00  0.00     0.147 C 
ATOM     21  H6  UNL     1      33.065   3.472  83.826  1.00  0.00     0.160 HD
ENDBRANCH  14  19
ENDBRANCH  13  14
ENDBRANCH   1  13
TORSDOF 4
ENDMDL
