MODEL 1
REMARK VINA RESULT: -5.853025245      0.000      0.000
REMARK  5 active torsions:
REMARK  status: ('A' for Active; 'I' for Inactive)
REMARK    1  A    between atoms: N1_2  and  C2_4 
REMARK    2  A    between atoms: C2_4  and  N2_6 
REMARK    3  A    between atoms: N2_6  and  C3_8 
REMARK    4  A    between atoms: C3_8  and  C4_9 
REMARK    5  A    between atoms: C4_9  and  N3_10 
ROOT
HETATM    1  N3  UNL     1      33.461  -3.308  78.362  1.00  0.00     0.096 N 
HETATM    2  C5  UNL     1      33.600  -2.198  79.301  1.00  0.00     0.300 C 
HETATM    3  C6  UNL     1      34.924  -2.324  79.961  1.00  0.00     0.264 C 
HETATM    4  N4  UNL     1      35.711  -1.121  79.971  1.00  0.00    -0.058 N 
ATOM      5  H41 UNL     1      36.317  -1.041  80.788  1.00  0.00     0.279 HD
ATOM      6  H42 UNL     1      35.160  -0.280  80.139  1.00  0.00     0.279 HD
HETATM    7  C7  UNL     1      36.449  -1.089  78.693  1.00  0.00     0.356 C 
HETATM    8  N5  UNL     1      35.468  -1.114  77.673  1.00  0.00    -0.373 N 
HETATM    9  C8  UNL     1      35.279   0.122  76.970  1.00  0.00     0.150 C 
HETATM   10  C9  UNL     1      35.269  -2.310  76.955  1.00  0.00     0.089 C 
HETATM   11  C10 UNL     1      33.949  -2.976  77.053  1.00  0.00     0.317 C 
ENDROOT
BRANCH   1  12
HETATM   12  C4  UNL     1      32.013  -3.526  78.169  1.00  0.00     0.292 C 
BRANCH  12  13
HETATM   13  C3  UNL     1      31.252  -2.260  78.498  1.00  0.00     0.152 C 
BRANCH  13  14
HETATM   14  N2  UNL     1      31.091  -1.570  77.229  1.00  0.00    -0.366 N 
ATOM     15  H2  UNL     1      30.700  -2.067  76.428  1.00  0.00     0.161 HD
BRANCH  14  16
HETATM   16  C2  UNL     1      31.472  -0.223  77.097  1.00  0.00     0.167 C 
HETATM   17  S1  UNL     1      31.705   0.685  78.459  1.00  0.00    -0.041 SA
BRANCH  16  18
HETATM   18  N1  UNL     1      31.646   0.400  75.843  1.00  0.00    -0.372 N 
HETATM   19  C1  UNL     1      31.807   1.826  75.748  1.00  0.00     0.148 C 
ATOM     20  H1  UNL     1      31.659  -0.167  74.995  1.00  0.00     0.161 HD
ENDBRANCH  16  18
ENDBRANCH  14  16
ENDBRANCH  13  14
ENDBRANCH  12  13
ENDBRANCH   1  12
TORSDOF 5
ENDMDL
MODEL 2
REMARK VINA RESULT: -5.814060117      3.125      5.252
REMARK  5 active torsions:
REMARK  status: ('A' for Active; 'I' for Inactive)
REMARK    1  A    between atoms: N1_2  and  C2_4 
REMARK    2  A    between atoms: C2_4  and  N2_6 
REMARK    3  A    between atoms: N2_6  and  C3_8 
REMARK    4  A    between atoms: C3_8  and  C4_9 
REMARK    5  A    between atoms: C4_9  and  N3_10 
ROOT
HETATM    1  N3  UNL     1      34.465  -0.991  78.956  1.00  0.00     0.096 N 
HETATM    2  C5  UNL     1      33.326  -0.080  79.032  1.00  0.00     0.300 C 
HETATM    3  C6  UNL     1      33.003   0.363  77.653  1.00  0.00     0.264 C 
HETATM    4  N4  UNL     1      31.616   0.254  77.292  1.00  0.00    -0.058 N 
ATOM      5  H41 UNL     1      31.315   0.966  76.626  1.00  0.00     0.279 HD
ATOM      6  H42 UNL     1      30.981   0.510  78.047  1.00  0.00     0.279 HD
HETATM    7  C7  UNL     1      31.414  -1.124  76.803  1.00  0.00     0.356 C 
HETATM    8  N5  UNL     1      31.788  -1.977  77.868  1.00  0.00    -0.373 N 
HETATM    9  C8  UNL     1      30.706  -2.636  78.540  1.00  0.00     0.150 C 
HETATM   10  C9  UNL     1      33.019  -2.660  77.787  1.00  0.00     0.089 C 
HETATM   11  C10 UNL     1      34.057  -2.358  78.800  1.00  0.00     0.317 C 
ENDROOT
BRANCH   1  12
HETATM   12  C4  UNL     1      35.131  -0.954  80.273  1.00  0.00     0.292 C 
BRANCH  12  13
HETATM   13  C3  UNL     1      34.114  -0.676  81.359  1.00  0.00     0.152 C 
BRANCH  13  14
HETATM   14  N2  UNL     1      34.879  -0.133  82.469  1.00  0.00    -0.366 N 
ATOM     15  H2  UNL     1      35.855  -0.402  82.591  1.00  0.00     0.161 HD
BRANCH  14  16
HETATM   16  C2  UNL     1      34.282   0.762  83.374  1.00  0.00     0.167 C 
HETATM   17  S1  UNL     1      35.093   2.139  83.801  1.00  0.00    -0.041 SA
BRANCH  16  18
HETATM   18  N1  UNL     1      33.018   0.527  83.955  1.00  0.00    -0.372 N 
HETATM   19  C1  UNL     1      31.901   1.384  83.657  1.00  0.00     0.148 C 
ATOM     20  H1  UNL     1      32.894  -0.259  84.593  1.00  0.00     0.161 HD
ENDBRANCH  16  18
ENDBRANCH  14  16
ENDBRANCH  13  14
ENDBRANCH  12  13
ENDBRANCH   1  12
TORSDOF 5
ENDMDL
MODEL 3
REMARK VINA RESULT: -5.798178529      3.297      5.265
REMARK  5 active torsions:
REMARK  status: ('A' for Active; 'I' for Inactive)
REMARK    1  A    between atoms: N1_2  and  C2_4 
REMARK    2  A    between atoms: C2_4  and  N2_6 
REMARK    3  A    between atoms: N2_6  and  C3_8 
REMARK    4  A    between atoms: C3_8  and  C4_9 
REMARK    5  A    between atoms: C4_9  and  N3_10 
ROOT
HETATM    1  N3  UNL     1      33.313  -1.508  80.044  1.00  0.00     0.096 N 
HETATM    2  C5  UNL     1      33.763  -1.944  78.725  1.00  0.00     0.300 C 
HETATM    3  C6  UNL     1      32.634  -2.649  78.068  1.00  0.00     0.264 C 
HETATM    4  N4  UNL     1      32.350  -2.217  76.726  1.00  0.00    -0.058 N 
ATOM      5  H41 UNL     1      31.981  -2.961  76.133  1.00  0.00     0.279 HD
ATOM      6  H42 UNL     1      33.188  -2.023  76.180  1.00  0.00     0.279 HD
HETATM    7  C7  UNL     1      31.445  -1.057  76.840  1.00  0.00     0.356 C 
HETATM    8  N5  UNL     1      32.138  -0.092  77.608  1.00  0.00    -0.373 N 
HETATM    9  C8  UNL     1      32.622   1.044  76.880  1.00  0.00     0.150 C 
HETATM   10  C9  UNL     1      31.754   0.108  78.949  1.00  0.00     0.089 C 
HETATM   11  C10 UNL     1      32.738  -0.193  80.015  1.00  0.00     0.317 C 
ENDROOT
BRANCH   1  12
HETATM   12  C4  UNL     1      34.519  -1.363  80.882  1.00  0.00     0.292 C 
BRANCH  12  13
HETATM   13  C3  UNL     1      34.692   0.084  81.292  1.00  0.00     0.152 C 
BRANCH  13  14
HETATM   14  N2  UNL     1      34.933   0.049  82.725  1.00  0.00    -0.366 N 
ATOM     15  H2  UNL     1      35.628  -0.592  83.106  1.00  0.00     0.161 HD
BRANCH  14  16
HETATM   16  C2  UNL     1      34.214   0.895  83.588  1.00  0.00     0.167 C 
HETATM   17  S1  UNL     1      34.915   2.298  84.110  1.00  0.00    -0.041 SA
BRANCH  16  18
HETATM   18  N1  UNL     1      32.916   0.587  84.048  1.00  0.00    -0.372 N 
HETATM   19  C1  UNL     1      31.767   1.270  83.518  1.00  0.00     0.148 C 
ATOM     20  H1  UNL     1      32.791  -0.128  84.765  1.00  0.00     0.161 HD
ENDBRANCH  16  18
ENDBRANCH  14  16
ENDBRANCH  13  14
ENDBRANCH  12  13
ENDBRANCH   1  12
TORSDOF 5
ENDMDL
MODEL 4
REMARK VINA RESULT: -5.758836986      2.195      4.089
REMARK  5 active torsions:
REMARK  status: ('A' for Active; 'I' for Inactive)
REMARK    1  A    between atoms: N1_2  and  C2_4 
REMARK    2  A    between atoms: C2_4  and  N2_6 
REMARK    3  A    between atoms: N2_6  and  C3_8 
REMARK    4  A    between atoms: C3_8  and  C4_9 
REMARK    5  A    between atoms: C4_9  and  N3_10 
ROOT
HETATM    1  N3  UNL     1      32.494  -0.066  79.043  1.00  0.00     0.096 N 
HETATM    2  C5  UNL     1      32.907  -0.201  77.649  1.00  0.00     0.300 C 
HETATM    3  C6  UNL     1      33.576   1.062  77.248  1.00  0.00     0.264 C 
HETATM    4  N4  UNL     1      34.848   0.893  76.599  1.00  0.00    -0.058 N 
ATOM      5  H41 UNL     1      35.052   1.622  75.915  1.00  0.00     0.279 HD
ATOM      6  H42 UNL     1      34.870   0.104  75.955  1.00  0.00     0.279 HD
HETATM    7  C7  UNL     1      35.859   0.800  77.671  1.00  0.00     0.356 C 
HETATM    8  N5  UNL     1      35.482  -0.304  78.471  1.00  0.00    -0.373 N 
HETATM    9  C8  UNL     1      36.306  -1.471  78.338  1.00  0.00     0.150 C 
HETATM   10  C9  UNL     1      34.896  -0.060  79.729  1.00  0.00     0.089 C 
HETATM   11  C10 UNL     1      33.505  -0.517  79.956  1.00  0.00     0.317 C 
ENDROOT
BRANCH   1  12
HETATM   12  C4  UNL     1      31.370  -1.002  79.249  1.00  0.00     0.292 C 
BRANCH  12  13
HETATM   13  C3  UNL     1      31.160  -1.838  78.004  1.00  0.00     0.152 C 
BRANCH  13  14
HETATM   14  N2  UNL     1      31.046  -3.207  78.479  1.00  0.00    -0.366 N 
ATOM     15  H2  UNL     1      30.190  -3.512  78.942  1.00  0.00     0.161 HD
BRANCH  14  16
HETATM   16  C2  UNL     1      32.107  -4.112  78.303  1.00  0.00     0.167 C 
HETATM   17  S1  UNL     1      33.456  -3.624  77.481  1.00  0.00    -0.041 SA
BRANCH  16  18
HETATM   18  N1  UNL     1      32.064  -5.438  78.785  1.00  0.00    -0.372 N 
HETATM   19  C1  UNL     1      33.127  -5.956  79.604  1.00  0.00     0.148 C 
ATOM     20  H1  UNL     1      31.271  -6.035  78.550  1.00  0.00     0.161 HD
ENDBRANCH  16  18
ENDBRANCH  14  16
ENDBRANCH  13  14
ENDBRANCH  12  13
ENDBRANCH   1  12
TORSDOF 5
ENDMDL
MODEL 5
REMARK VINA RESULT: -5.733265690      2.906      5.308
REMARK  5 active torsions:
REMARK  status: ('A' for Active; 'I' for Inactive)
REMARK    1  A    between atoms: N1_2  and  C2_4 
REMARK    2  A    between atoms: C2_4  and  N2_6 
REMARK    3  A    between atoms: N2_6  and  C3_8 
REMARK    4  A    between atoms: C3_8  and  C4_9 
REMARK    5  A    between atoms: C4_9  and  N3_10 
ROOT
HETATM    1  N3  UNL     1      34.519  -1.100  78.735  1.00  0.00     0.096 N 
HETATM    2  C5  UNL     1      33.429  -0.131  78.811  1.00  0.00     0.300 C 
HETATM    3  C6  UNL     1      33.068   0.258  77.424  1.00  0.00     0.264 C 
HETATM    4  N4  UNL     1      31.663   0.201  77.126  1.00  0.00    -0.058 N 
ATOM      5  H41 UNL     1      31.368   0.894  76.437  1.00  0.00     0.279 HD
ATOM      6  H42 UNL     1      31.075   0.526  77.893  1.00  0.00     0.279 HD
HETATM    7  C7  UNL     1      31.375  -1.188  76.718  1.00  0.00     0.356 C 
HETATM    8  N5  UNL     1      31.754  -2.004  77.809  1.00  0.00    -0.373 N 
HETATM    9  C8  UNL     1      30.671  -2.574  78.558  1.00  0.00     0.150 C 
HETATM   10  C9  UNL     1      32.945  -2.751  77.714  1.00  0.00     0.089 C 
HETATM   11  C10 UNL     1      34.040  -2.452  78.667  1.00  0.00     0.317 C 
ENDROOT
BRANCH   1  12
HETATM   12  C4  UNL     1      35.243  -1.032  80.020  1.00  0.00     0.292 C 
BRANCH  12  13
HETATM   13  C3  UNL     1      34.260  -0.843  81.156  1.00  0.00     0.152 C 
BRANCH  13  14
HETATM   14  N2  UNL     1      35.073  -0.496  82.310  1.00  0.00    -0.366 N 
ATOM     15  H2  UNL     1      35.929  -1.016  82.502  1.00  0.00     0.161 HD
BRANCH  14  16
HETATM   16  C2  UNL     1      34.687   0.552  83.164  1.00  0.00     0.167 C 
HETATM   17  S1  UNL     1      33.078   0.811  83.446  1.00  0.00    -0.041 SA
BRANCH  16  18
HETATM   18  N1  UNL     1      35.618   1.413  83.782  1.00  0.00    -0.372 N 
HETATM   19  C1  UNL     1      35.465   2.841  83.700  1.00  0.00     0.148 C 
ATOM     20  H1  UNL     1      36.409   1.020  84.292  1.00  0.00     0.161 HD
ENDBRANCH  16  18
ENDBRANCH  14  16
ENDBRANCH  13  14
ENDBRANCH  12  13
ENDBRANCH   1  12
TORSDOF 5
ENDMDL
