MODEL 1
REMARK VINA RESULT: -6.293457976      0.000      0.000
REMARK  7 active torsions:
REMARK  status: ('A' for Active; 'I' for Inactive)
REMARK    1  A    between atoms: C2_2  and  N1_3 
REMARK    2  A    between atoms: N1_3  and  C3_4 
REMARK    3  A    between atoms: C8_12  and  N3_13 
REMARK    4  A    between atoms: N3_13  and  N4_15 
REMARK    5  A    between atoms: N4_15  and  N5_16 
REMARK    6  A    between atoms: C9_19  and  O1_20 
REMARK    7  A    between atoms: C10_22  and  O2_23 
ROOT
HETATM    1  N1  UNL     1      32.129  -0.814  77.716  1.00  0.00    -0.046 N 
HETATM    2  C5  UNL     1      32.929  -1.832  77.115  1.00  0.00     0.287 A 
HETATM    3  C6  UNL     1      33.530  -0.816  78.046  1.00  0.00     0.221 A 
HETATM    4  C7  UNL     1      34.467   0.197  77.598  1.00  0.00     0.049 C 
HETATM    5  N2  UNL     1      34.378   1.183  76.794  1.00  0.00    -0.402 N 
ATOM      6  H21 UNL     1      35.037   1.896  76.480  1.00  0.00     0.155 HD
ATOM      7  H22 UNL     1      33.493   1.369  76.322  1.00  0.00     0.155 HD
HETATM    8  C8  UNL     1      35.762  -0.074  78.289  1.00  0.00     0.193 C 
HETATM    9  C9  UNL     1      35.572  -1.289  79.118  1.00  0.00     0.180 C 
HETATM   10  C10 UNL     1      34.053  -1.415  79.312  1.00  0.00     0.193 C 
ENDROOT
BRANCH   1  11
HETATM   11  C2  UNL     1      31.518   0.231  76.980  1.00  0.00     0.234 C 
HETATM   12  C1  UNL     1      31.033   1.420  77.722  1.00  0.00     0.035 C 
ENDBRANCH   1  11
BRANCH   1  13
HETATM   13  C3  UNL     1      31.316  -1.272  78.856  1.00  0.00     0.234 C 
HETATM   14  C4  UNL     1      30.569  -2.541  78.518  1.00  0.00     0.035 C 
ENDBRANCH   1  13
BRANCH  10  15
HETATM   15  O2  UNL     1      33.861  -2.812  79.382  1.00  0.00    -0.390 OA
ATOM     16  H2  UNL     1      34.623  -3.306  79.102  1.00  0.00     0.210 HD
ENDBRANCH  10  15
BRANCH   8  17
HETATM   17  N3  UNL     1      36.860  -0.190  77.337  1.00  0.00    -0.240 N 
ATOM     18  H3  UNL     1      37.777   0.185  77.584  1.00  0.00     0.198 HD
BRANCH  17  19
HETATM   19  N4  UNL     1      36.702  -0.737  76.231  1.00  0.00    -0.248 NA
BRANCH  19  20
HETATM   20  N5  UNL     1      36.639  -1.368  75.181  1.00  0.00    -0.261 N 
ATOM     21  H52 UNL     1      35.898  -1.870  75.671  1.00  0.00     0.193 HD
ATOM     22  H51 UNL     1      36.670  -1.826  74.270  1.00  0.00     0.193 HD
ENDBRANCH  19  20
ENDBRANCH  17  19
ENDBRANCH   8  17
BRANCH   9  23
HETATM   23  O1  UNL     1      36.227  -1.192  80.340  1.00  0.00    -0.390 OA
ATOM     24  H1  UNL     1      36.957  -1.796  80.401  1.00  0.00     0.210 HD
ENDBRANCH   9  23
TORSDOF 7
ENDMDL
MODEL 2
REMARK VINA RESULT: -6.235754973      2.252      3.297
REMARK  7 active torsions:
REMARK  status: ('A' for Active; 'I' for Inactive)
REMARK    1  A    between atoms: C2_2  and  N1_3 
REMARK    2  A    between atoms: N1_3  and  C3_4 
REMARK    3  A    between atoms: C8_12  and  N3_13 
REMARK    4  A    between atoms: N3_13  and  N4_15 
REMARK    5  A    between atoms: N4_15  and  N5_16 
REMARK    6  A    between atoms: C9_19  and  O1_20 
REMARK    7  A    between atoms: C10_22  and  O2_23 
ROOT
HETATM    1  N1  UNL     1      33.407  -0.253  79.927  1.00  0.00    -0.046 N 
HETATM    2  C5  UNL     1      33.385   0.307  78.615  1.00  0.00     0.287 A 
HETATM    3  C6  UNL     1      33.707  -1.144  78.838  1.00  0.00     0.221 A 
HETATM    4  C7  UNL     1      35.024  -1.700  78.588  1.00  0.00     0.049 C 
HETATM    5  N2  UNL     1      36.174  -1.503  79.104  1.00  0.00    -0.402 N 
ATOM      6  H21 UNL     1      37.100  -1.893  78.929  1.00  0.00     0.155 HD
ATOM      7  H22 UNL     1      36.277  -0.825  79.859  1.00  0.00     0.155 HD
HETATM    8  C8  UNL     1      34.874  -2.692  77.484  1.00  0.00     0.193 C 
HETATM    9  C9  UNL     1      33.451  -2.676  77.068  1.00  0.00     0.180 C 
HETATM   10  C10 UNL     1      32.687  -2.070  78.256  1.00  0.00     0.193 C 
ENDROOT
BRANCH   1  11
HETATM   11  C2  UNL     1      34.363   0.104  80.909  1.00  0.00     0.234 C 
HETATM   12  C1  UNL     1      34.334  -0.612  82.208  1.00  0.00     0.035 C 
ENDBRANCH   1  11
BRANCH   1  13
HETATM   13  C3  UNL     1      32.075  -0.537  80.491  1.00  0.00     0.234 C 
HETATM   14  C4  UNL     1      31.172   0.670  80.389  1.00  0.00     0.035 C 
ENDBRANCH   1  13
BRANCH  10  15
HETATM   15  O2  UNL     1      31.620  -1.391  77.629  1.00  0.00    -0.390 OA
ATOM     16  H2  UNL     1      31.682  -1.397  76.681  1.00  0.00     0.210 HD
ENDBRANCH  10  15
BRANCH   8  17
HETATM   17  N3  UNL     1      35.799  -2.419  76.391  1.00  0.00    -0.240 N 
ATOM     18  H3  UNL     1      36.067  -3.176  75.761  1.00  0.00     0.198 HD
BRANCH  17  19
HETATM   19  N4  UNL     1      36.267  -1.280  76.210  1.00  0.00    -0.248 NA
BRANCH  19  20
HETATM   20  N5  UNL     1      36.839  -0.219  75.981  1.00  0.00    -0.261 N 
ATOM     21  H52 UNL     1      37.677  -0.796  76.061  1.00  0.00     0.193 HD
ATOM     22  H51 UNL     1      37.212   0.710  75.786  1.00  0.00     0.193 HD
ENDBRANCH  19  20
ENDBRANCH  17  19
ENDBRANCH   8  17
BRANCH   9  23
HETATM   23  O1  UNL     1      32.982  -3.949  76.768  1.00  0.00    -0.390 OA
ATOM     24  H1  UNL     1      32.214  -3.923  76.209  1.00  0.00     0.210 HD
ENDBRANCH   9  23
TORSDOF 7
ENDMDL
MODEL 3
REMARK VINA RESULT: -6.207406286      2.498      3.979
REMARK  7 active torsions:
REMARK  status: ('A' for Active; 'I' for Inactive)
REMARK    1  A    between atoms: C2_2  and  N1_3 
REMARK    2  A    between atoms: N1_3  and  C3_4 
REMARK    3  A    between atoms: C8_12  and  N3_13 
REMARK    4  A    between atoms: N3_13  and  N4_15 
REMARK    5  A    between atoms: N4_15  and  N5_16 
REMARK    6  A    between atoms: C9_19  and  O1_20 
REMARK    7  A    between atoms: C10_22  and  O2_23 
ROOT
HETATM    1  N1  UNL     1      33.715  -2.725  78.298  1.00  0.00    -0.046 N 
HETATM    2  C5  UNL     1      34.102  -2.676  76.926  1.00  0.00     0.287 A 
HETATM    3  C6  UNL     1      33.866  -1.418  77.715  1.00  0.00     0.221 A 
HETATM    4  C7  UNL     1      32.759  -0.521  77.443  1.00  0.00     0.049 C 
HETATM    5  N2  UNL     1      31.491  -0.644  77.512  1.00  0.00    -0.402 N 
ATOM      6  H21 UNL     1      30.712  -0.013  77.321  1.00  0.00     0.155 HD
ATOM      7  H22 UNL     1      31.087  -1.531  77.812  1.00  0.00     0.155 HD
HETATM    8  C8  UNL     1      33.349   0.776  77.004  1.00  0.00     0.193 C 
HETATM    9  C9  UNL     1      34.823   0.606  76.986  1.00  0.00     0.180 C 
HETATM   10  C10 UNL     1      35.103  -0.598  77.899  1.00  0.00     0.193 C 
ENDROOT
BRANCH   1  11
HETATM   11  C2  UNL     1      32.465  -3.228  78.736  1.00  0.00     0.234 C 
HETATM   12  C1  UNL     1      32.116  -4.629  78.398  1.00  0.00     0.035 C 
ENDBRANCH   1  11
BRANCH   1  13
HETATM   13  C3  UNL     1      34.816  -3.018  79.232  1.00  0.00     0.234 C 
HETATM   14  C4  UNL     1      34.652  -2.253  80.524  1.00  0.00     0.035 C 
ENDBRANCH   1  13
BRANCH  10  15
HETATM   15  O2  UNL     1      36.245  -1.181  77.307  1.00  0.00    -0.390 OA
ATOM     16  H2  UNL     1      37.056  -0.771  77.585  1.00  0.00     0.210 HD
ENDBRANCH  10  15
BRANCH   8  17
HETATM   17  N3  UNL     1      32.802   1.205  75.722  1.00  0.00    -0.240 N 
ATOM     18  H3  UNL     1      33.344   1.052  74.871  1.00  0.00     0.198 HD
BRANCH  17  19
HETATM   19  N4  UNL     1      31.688   1.754  75.646  1.00  0.00    -0.248 NA
BRANCH  19  20
HETATM   20  N5  UNL     1      30.591   2.301  75.707  1.00  0.00    -0.261 N 
ATOM     21  H52 UNL     1      30.967   2.681  76.577  1.00  0.00     0.193 HD
ATOM     22  H51 UNL     1      29.656   2.704  75.661  1.00  0.00     0.193 HD
ENDBRANCH  19  20
ENDBRANCH  17  19
ENDBRANCH   8  17
BRANCH   9  23
HETATM   23  O1  UNL     1      35.483   1.742  77.439  1.00  0.00    -0.390 OA
ATOM     24  H1  UNL     1      35.404   1.847  78.380  1.00  0.00     0.210 HD
ENDBRANCH   9  23
TORSDOF 7
ENDMDL
MODEL 4
REMARK VINA RESULT: -6.102333482      1.059      1.299
REMARK  7 active torsions:
REMARK  status: ('A' for Active; 'I' for Inactive)
REMARK    1  A    between atoms: C2_2  and  N1_3 
REMARK    2  A    between atoms: N1_3  and  C3_4 
REMARK    3  A    between atoms: C8_12  and  N3_13 
REMARK    4  A    between atoms: N3_13  and  N4_15 
REMARK    5  A    between atoms: N4_15  and  N5_16 
REMARK    6  A    between atoms: C9_19  and  O1_20 
REMARK    7  A    between atoms: C10_22  and  O2_23 
ROOT
HETATM    1  N1  UNL     1      32.340  -0.193  78.295  1.00  0.00    -0.046 N 
HETATM    2  C5  UNL     1      32.553  -1.096  77.211  1.00  0.00     0.287 A 
HETATM    3  C6  UNL     1      33.703  -0.561  78.016  1.00  0.00     0.221 A 
HETATM    4  C7  UNL     1      34.689   0.349  77.464  1.00  0.00     0.049 C 
HETATM    5  N2  UNL     1      34.629   1.538  77.007  1.00  0.00    -0.402 N 
ATOM      6  H21 UNL     1      35.322   2.178  76.618  1.00  0.00     0.155 HD
ATOM      7  H22 UNL     1      33.733   2.026  76.991  1.00  0.00     0.155 HD
HETATM    8  C8  UNL     1      35.999  -0.364  77.488  1.00  0.00     0.193 C 
HETATM    9  C9  UNL     1      35.752  -1.723  78.029  1.00  0.00     0.180 C 
HETATM   10  C10 UNL     1      34.421  -1.619  78.792  1.00  0.00     0.193 C 
ENDROOT
BRANCH   1  11
HETATM   11  C2  UNL     1      31.853   1.126  78.124  1.00  0.00     0.234 C 
HETATM   12  C1  UNL     1      31.086   1.436  76.894  1.00  0.00     0.035 C 
ENDBRANCH   1  11
BRANCH   1  13
HETATM   13  C3  UNL     1      31.863  -0.831  79.535  1.00  0.00     0.234 C 
HETATM   14  C4  UNL     1      31.515   0.202  80.580  1.00  0.00     0.035 C 
ENDBRANCH   1  13
BRANCH  10  15
HETATM   15  O2  UNL     1      33.862  -2.904  78.621  1.00  0.00    -0.390 OA
ATOM     16  H2  UNL     1      34.466  -3.604  78.840  1.00  0.00     0.210 HD
ENDBRANCH  10  15
BRANCH   8  17
HETATM   17  N3  UNL     1      36.627  -0.373  76.172  1.00  0.00    -0.240 N 
ATOM     18  H3  UNL     1      37.045   0.486  75.811  1.00  0.00     0.198 HD
BRANCH  17  19
HETATM   19  N4  UNL     1      36.663  -1.407  75.480  1.00  0.00    -0.248 NA
BRANCH  19  20
HETATM   20  N5  UNL     1      36.638  -2.353  74.700  1.00  0.00    -0.261 N 
ATOM     21  H52 UNL     1      37.514  -1.946  74.371  1.00  0.00     0.193 HD
ATOM     22  H51 UNL     1      36.520  -3.170  74.101  1.00  0.00     0.193 HD
ENDBRANCH  19  20
ENDBRANCH  17  19
ENDBRANCH   8  17
BRANCH   9  23
HETATM   23  O1  UNL     1      36.778  -2.144  78.867  1.00  0.00    -0.390 OA
ATOM     24  H1  UNL     1      37.223  -2.910  78.525  1.00  0.00     0.210 HD
ENDBRANCH   9  23
TORSDOF 7
ENDMDL
MODEL 5
REMARK VINA RESULT: -6.099700406      2.225      4.539
REMARK  7 active torsions:
REMARK  status: ('A' for Active; 'I' for Inactive)
REMARK    1  A    between atoms: C2_2  and  N1_3 
REMARK    2  A    between atoms: N1_3  and  C3_4 
REMARK    3  A    between atoms: C8_12  and  N3_13 
REMARK    4  A    between atoms: N3_13  and  N4_15 
REMARK    5  A    between atoms: N4_15  and  N5_16 
REMARK    6  A    between atoms: C9_19  and  O1_20 
REMARK    7  A    between atoms: C10_22  and  O2_23 
ROOT
HETATM    1  N1  UNL     1      34.783  -0.967  78.483  1.00  0.00    -0.046 N 
HETATM    2  C5  UNL     1      33.704  -0.737  79.388  1.00  0.00     0.287 A 
HETATM    3  C6  UNL     1      33.498  -0.682  77.900  1.00  0.00     0.221 A 
HETATM    4  C7  UNL     1      33.183   0.548  77.199  1.00  0.00     0.049 C 
HETATM    5  N2  UNL     1      33.813   1.643  77.018  1.00  0.00    -0.402 N 
ATOM      6  H21 UNL     1      33.592   2.508  76.526  1.00  0.00     0.155 HD
ATOM      7  H22 UNL     1      34.743   1.760  77.420  1.00  0.00     0.155 HD
HETATM    8  C8  UNL     1      31.823   0.377  76.611  1.00  0.00     0.193 C 
HETATM    9  C9  UNL     1      31.334  -0.963  77.016  1.00  0.00     0.180 C 
HETATM   10  C10 UNL     1      32.594  -1.759  77.391  1.00  0.00     0.193 C 
ENDROOT
BRANCH   1  11
HETATM   11  C2  UNL     1      35.891  -0.093  78.356  1.00  0.00     0.234 C 
HETATM   12  C1  UNL     1      36.727  -0.195  77.136  1.00  0.00     0.035 C 
ENDBRANCH   1  11
BRANCH   1  13
HETATM   13  C3  UNL     1      35.140  -2.386  78.308  1.00  0.00     0.234 C 
HETATM   14  C4  UNL     1      35.132  -3.116  79.630  1.00  0.00     0.035 C 
ENDBRANCH   1  13
BRANCH  10  15
HETATM   15  O2  UNL     1      32.130  -2.618  78.410  1.00  0.00    -0.390 OA
ATOM     16  H2  UNL     1      31.965  -2.167  79.230  1.00  0.00     0.210 HD
ENDBRANCH  10  15
BRANCH   8  17
HETATM   17  N3  UNL     1      30.930   1.461  77.005  1.00  0.00    -0.240 N 
ATOM     18  H3  UNL     1      30.226   1.292  77.723  1.00  0.00     0.198 HD
BRANCH  17  19
HETATM   19  N4  UNL     1      31.012   2.587  76.482  1.00  0.00    -0.248 NA
BRANCH  19  20
HETATM   20  N5  UNL     1      31.221   3.667  75.939  1.00  0.00    -0.261 N 
ATOM     21  H52 UNL     1      32.198   3.410  76.084  1.00  0.00     0.193 HD
ATOM     22  H51 UNL     1      31.284   4.575  75.479  1.00  0.00     0.193 HD
ENDBRANCH  19  20
ENDBRANCH  17  19
ENDBRANCH   8  17
BRANCH   9  23
HETATM   23  O1  UNL     1      30.631  -1.591  75.994  1.00  0.00    -0.390 OA
ATOM     24  H1  UNL     1      30.299  -2.440  76.261  1.00  0.00     0.210 HD
ENDBRANCH   9  23
TORSDOF 7
ENDMDL
