MODEL 1
REMARK VINA RESULT: -5.753230660      0.000      0.000
REMARK  5 active torsions:
REMARK  status: ('A' for Active; 'I' for Inactive)
REMARK    1  A    between atoms: C2_2  and  C3_3 
REMARK    2  A    between atoms: N1_4  and  O1_5 
REMARK    3  A    between atoms: N1_4  and  N2_7 
REMARK       I    between atoms: C4_9  and  N4_11 
REMARK    4  A    between atoms: N4_11  and  N5_13 
REMARK       I    between atoms: N5_13  and  C5_15 
REMARK    5  A    between atoms: C5_15  and  C6_17 
ROOT
HETATM    1  N2  UNL     1      30.631   1.831  83.144  1.00  0.00    -0.246 N 
ATOM      2  H2  UNL     1      31.366   2.069  83.811  1.00  0.00     0.192 HD
HETATM    3  C4  UNL     1      30.916   1.092  82.124  1.00  0.00     0.224 C 
HETATM    4  N3  UNL     1      29.951   0.715  81.148  1.00  0.00    -0.061 NA
HETATM    5  N4  UNL     1      32.254   0.632  81.969  1.00  0.00    -0.270 N 
ATOM      6  H4  UNL     1      32.890   0.742  82.759  1.00  0.00     0.190 HD
ENDROOT
BRANCH   5   7
HETATM    7  N5  UNL     1      32.753   0.041  80.810  1.00  0.00    -0.263 N 
HETATM    8  C5  UNL     1      33.876  -0.820  80.857  1.00  0.00     0.271 C 
HETATM    9  O2  UNL     1      34.415  -1.040  81.966  1.00  0.00    -0.266 OA
ATOM     10  H5  UNL     1      32.303   0.231  79.915  1.00  0.00     0.190 HD
BRANCH   8  11
HETATM   11  C6  UNL     1      34.431  -1.457  79.672  1.00  0.00     0.049 A 
HETATM   12  C7  UNL     1      33.663  -2.214  78.794  1.00  0.00     0.020 A 
HETATM   13  C8  UNL     1      34.213  -2.808  77.678  1.00  0.00     0.018 A 
HETATM   14  C9  UNL     1      35.557  -2.655  77.411  1.00  0.00     0.087 A 
HETATM   15  N6  UNL     1      36.322  -1.916  78.264  1.00  0.00    -0.374 N 
HETATM   16  C10 UNL     1      35.768  -1.343  79.350  1.00  0.00     0.104 A 
ATOM     17  H6  UNL     1      37.318  -1.795  78.078  1.00  0.00     0.164 HD
ENDBRANCH   8  11
ENDBRANCH   5   7
BRANCH   1  18
HETATM   18  N1  UNL     1      29.336   2.312  83.352  1.00  0.00    -0.173 N 
HETATM   19  C3  UNL     1      28.940   3.405  82.838  1.00  0.00     0.142 C 
BRANCH  19  20
HETATM   20  C2  UNL     1      27.593   3.878  83.071  1.00  0.00     0.011 C 
HETATM   21  C1  UNL     1      26.908   4.562  82.180  1.00  0.00     0.013 C 
ENDBRANCH  19  20
BRANCH  18  22
HETATM   22  O1  UNL     1      28.466   1.588  84.128  1.00  0.00    -0.268 OA
ATOM     23  H1  UNL     1      28.099   0.782  83.780  1.00  0.00     0.247 HD
ENDBRANCH  18  22
ENDBRANCH   1  18
TORSDOF 5
ENDMDL
MODEL 2
REMARK VINA RESULT: -5.453824233      2.212      8.086
REMARK  5 active torsions:
REMARK  status: ('A' for Active; 'I' for Inactive)
REMARK    1  A    between atoms: C2_2  and  C3_3 
REMARK    2  A    between atoms: N1_4  and  O1_5 
REMARK    3  A    between atoms: N1_4  and  N2_7 
REMARK       I    between atoms: C4_9  and  N4_11 
REMARK    4  A    between atoms: N4_11  and  N5_13 
REMARK       I    between atoms: N5_13  and  C5_15 
REMARK    5  A    between atoms: C5_15  and  C6_17 
ROOT
HETATM    1  N2  UNL     1      33.295  -1.082  79.322  1.00  0.00    -0.246 N 
ATOM      2  H2  UNL     1      33.449  -1.784  80.046  1.00  0.00     0.192 HD
HETATM    3  C4  UNL     1      32.443  -0.134  79.530  1.00  0.00     0.224 C 
HETATM    4  N3  UNL     1      32.167   0.883  78.573  1.00  0.00    -0.061 NA
HETATM    5  N4  UNL     1      31.749  -0.103  80.773  1.00  0.00    -0.270 N 
ATOM      6  H4  UNL     1      32.083  -0.712  81.520  1.00  0.00     0.190 HD
ENDROOT
BRANCH   5   7
HETATM    7  N5  UNL     1      30.644   0.704  81.036  1.00  0.00    -0.263 N 
HETATM    8  C5  UNL     1      30.526   1.401  82.262  1.00  0.00     0.271 C 
HETATM    9  O2  UNL     1      31.440   1.277  83.110  1.00  0.00    -0.266 OA
ATOM     10  H5  UNL     1      29.908   0.793  80.335  1.00  0.00     0.190 HD
BRANCH   8  11
HETATM   11  C6  UNL     1      29.391   2.252  82.580  1.00  0.00     0.049 A 
HETATM   12  C7  UNL     1      28.833   2.321  83.852  1.00  0.00     0.020 A 
HETATM   13  C8  UNL     1      27.756   3.137  84.129  1.00  0.00     0.018 A 
HETATM   14  C9  UNL     1      27.208   3.912  83.129  1.00  0.00     0.087 A 
HETATM   15  N6  UNL     1      27.745   3.855  81.877  1.00  0.00    -0.374 N 
HETATM   16  C10 UNL     1      28.796   3.051  81.624  1.00  0.00     0.104 A 
ATOM     17  H6  UNL     1      27.349   4.423  81.127  1.00  0.00     0.164 HD
ENDBRANCH   8  11
ENDBRANCH   5   7
BRANCH   1  18
HETATM   18  N1  UNL     1      34.008  -1.165  78.123  1.00  0.00    -0.173 N 
HETATM   19  C3  UNL     1      35.220  -0.792  78.041  1.00  0.00     0.142 C 
BRANCH  19  20
HETATM   20  C2  UNL     1      35.934  -0.889  76.787  1.00  0.00     0.011 C 
HETATM   21  C1  UNL     1      36.727   0.058  76.336  1.00  0.00     0.013 C 
ENDBRANCH  19  20
BRANCH  18  22
HETATM   22  O1  UNL     1      33.388  -1.663  77.005  1.00  0.00    -0.268 OA
ATOM     23  H1  UNL     1      32.770  -2.379  77.100  1.00  0.00     0.247 HD
ENDBRANCH  18  22
ENDBRANCH   1  18
TORSDOF 5
ENDMDL
MODEL 3
REMARK VINA RESULT: -5.383325695      1.919      8.280
REMARK  5 active torsions:
REMARK  status: ('A' for Active; 'I' for Inactive)
REMARK    1  A    between atoms: C2_2  and  C3_3 
REMARK    2  A    between atoms: N1_4  and  O1_5 
REMARK    3  A    between atoms: N1_4  and  N2_7 
REMARK       I    between atoms: C4_9  and  N4_11 
REMARK    4  A    between atoms: N4_11  and  N5_13 
REMARK       I    between atoms: N5_13  and  C5_15 
REMARK    5  A    between atoms: C5_15  and  C6_17 
ROOT
HETATM    1  N2  UNL     1      32.800  -0.776  79.975  1.00  0.00    -0.246 N 
ATOM      2  H2  UNL     1      33.077  -1.239  80.840  1.00  0.00     0.192 HD
HETATM    3  C4  UNL     1      31.875   0.125  80.006  1.00  0.00     0.224 C 
HETATM    4  N3  UNL     1      31.429   0.818  78.846  1.00  0.00    -0.061 NA
HETATM    5  N4  UNL     1      31.276   0.441  81.258  1.00  0.00    -0.270 N 
ATOM      6  H4  UNL     1      31.724   0.087  82.104  1.00  0.00     0.190 HD
ENDROOT
BRANCH   5   7
HETATM    7  N5  UNL     1      30.117   1.202  81.406  1.00  0.00    -0.263 N 
HETATM    8  C5  UNL     1      29.920   2.014  82.548  1.00  0.00     0.271 C 
HETATM    9  O2  UNL     1      30.812   2.035  83.428  1.00  0.00    -0.266 OA
ATOM     10  H5  UNL     1      29.401   1.174  80.680  1.00  0.00     0.190 HD
BRANCH   8  11
HETATM   11  C6  UNL     1      28.727   2.824  82.744  1.00  0.00     0.049 A 
HETATM   12  C7  UNL     1      28.063   2.903  83.963  1.00  0.00     0.020 A 
HETATM   13  C8  UNL     1      26.934   3.678  84.124  1.00  0.00     0.018 A 
HETATM   14  C9  UNL     1      26.440   4.401  83.059  1.00  0.00     0.087 A 
HETATM   15  N6  UNL     1      27.082   4.333  81.858  1.00  0.00    -0.374 N 
HETATM   16  C10 UNL     1      28.183   3.569  81.718  1.00  0.00     0.104 A 
ATOM     17  H6  UNL     1      26.727   4.862  81.061  1.00  0.00     0.164 HD
ENDBRANCH   8  11
ENDBRANCH   5   7
BRANCH   1  18
HETATM   18  N1  UNL     1      33.427  -1.128  78.777  1.00  0.00    -0.173 N 
HETATM   19  C3  UNL     1      33.524  -2.341  78.406  1.00  0.00     0.142 C 
BRANCH  19  20
HETATM   20  C2  UNL     1      34.179  -2.676  77.160  1.00  0.00     0.011 C 
HETATM   21  C1  UNL     1      35.478  -2.578  76.983  1.00  0.00     0.013 C 
ENDBRANCH  19  20
BRANCH  18  22
HETATM   22  O1  UNL     1      33.952  -0.144  77.978  1.00  0.00    -0.268 OA
ATOM     23  H1  UNL     1      33.373   0.335  77.396  1.00  0.00     0.247 HD
ENDBRANCH  18  22
ENDBRANCH   1  18
TORSDOF 5
ENDMDL
MODEL 4
REMARK VINA RESULT: -5.206940434      1.868      2.194
REMARK  5 active torsions:
REMARK  status: ('A' for Active; 'I' for Inactive)
REMARK    1  A    between atoms: C2_2  and  C3_3 
REMARK    2  A    between atoms: N1_4  and  O1_5 
REMARK    3  A    between atoms: N1_4  and  N2_7 
REMARK       I    between atoms: C4_9  and  N4_11 
REMARK    4  A    between atoms: N4_11  and  N5_13 
REMARK       I    between atoms: N5_13  and  C5_15 
REMARK    5  A    between atoms: C5_15  and  C6_17 
ROOT
HETATM    1  N2  UNL     1      33.008   1.283  83.589  1.00  0.00    -0.246 N 
ATOM      2  H2  UNL     1      33.781   1.194  84.249  1.00  0.00     0.192 HD
HETATM    3  C4  UNL     1      32.959   0.503  82.561  1.00  0.00     0.224 C 
HETATM    4  N3  UNL     1      31.917   0.562  81.593  1.00  0.00    -0.061 NA
HETATM    5  N4  UNL     1      33.992  -0.461  82.389  1.00  0.00    -0.270 N 
ATOM      6  H4  UNL     1      34.624  -0.628  83.172  1.00  0.00     0.190 HD
ENDROOT
BRANCH   5   7
HETATM    7  N5  UNL     1      34.199  -1.192  81.220  1.00  0.00    -0.263 N 
HETATM    8  C5  UNL     1      34.774  -0.589  80.076  1.00  0.00     0.271 C 
HETATM    9  O2  UNL     1      35.094   0.620  80.135  1.00  0.00    -0.266 OA
ATOM     10  H5  UNL     1      33.933  -2.176  81.189  1.00  0.00     0.190 HD
BRANCH   8  11
HETATM   11  C6  UNL     1      35.007  -1.313  78.836  1.00  0.00     0.049 A 
HETATM   12  C7  UNL     1      34.430  -2.549  78.565  1.00  0.00     0.020 A 
HETATM   13  C8  UNL     1      34.666  -3.215  77.381  1.00  0.00     0.018 A 
HETATM   14  C9  UNL     1      35.492  -2.654  76.431  1.00  0.00     0.087 A 
HETATM   15  N6  UNL     1      36.065  -1.442  76.683  1.00  0.00    -0.374 N 
HETATM   16  C10 UNL     1      35.824  -0.806  77.846  1.00  0.00     0.104 A 
ATOM     17  H6  UNL     1      36.680  -1.016  75.989  1.00  0.00     0.164 HD
ENDBRANCH   8  11
ENDBRANCH   5   7
BRANCH   1  18
HETATM   18  N1  UNL     1      32.022   2.247  83.814  1.00  0.00    -0.173 N 
HETATM   19  C3  UNL     1      30.791   1.938  83.892  1.00  0.00     0.142 C 
BRANCH  19  20
HETATM   20  C2  UNL     1      29.792   2.957  84.126  1.00  0.00     0.011 C 
HETATM   21  C1  UNL     1      28.835   3.235  83.269  1.00  0.00     0.013 C 
ENDBRANCH  19  20
BRANCH  18  22
HETATM   22  O1  UNL     1      32.387   3.562  83.955  1.00  0.00    -0.268 OA
ATOM     23  H1  UNL     1      32.067   4.052  84.705  1.00  0.00     0.247 HD
ENDBRANCH  18  22
ENDBRANCH   1  18
TORSDOF 5
ENDMDL
MODEL 5
REMARK VINA RESULT: -5.063813989      1.573      1.763
REMARK  5 active torsions:
REMARK  status: ('A' for Active; 'I' for Inactive)
REMARK    1  A    between atoms: C2_2  and  C3_3 
REMARK    2  A    between atoms: N1_4  and  O1_5 
REMARK    3  A    between atoms: N1_4  and  N2_7 
REMARK       I    between atoms: C4_9  and  N4_11 
REMARK    4  A    between atoms: N4_11  and  N5_13 
REMARK       I    between atoms: N5_13  and  C5_15 
REMARK    5  A    between atoms: C5_15  and  C6_17 
ROOT
HETATM    1  N2  UNL     1      29.193   1.920  81.702  1.00  0.00    -0.246 N 
ATOM      2  H2  UNL     1      28.728   2.037  80.802  1.00  0.00     0.192 HD
HETATM    3  C4  UNL     1      30.349   1.347  81.749  1.00  0.00     0.224 C 
HETATM    4  N3  UNL     1      31.064   1.143  82.962  1.00  0.00    -0.061 NA
HETATM    5  N4  UNL     1      30.937   0.901  80.531  1.00  0.00    -0.270 N 
ATOM      6  H4  UNL     1      30.517   1.216  79.656  1.00  0.00     0.190 HD
ENDROOT
BRANCH   5   7
HETATM    7  N5  UNL     1      32.048   0.063  80.454  1.00  0.00    -0.263 N 
HETATM    8  C5  UNL     1      32.825  -0.010  79.274  1.00  0.00     0.271 C 
HETATM    9  O2  UNL     1      32.492   0.696  78.295  1.00  0.00    -0.266 OA
ATOM     10  H5  UNL     1      32.305  -0.506  81.261  1.00  0.00     0.190 HD
BRANCH   8  11
HETATM   11  C6  UNL     1      33.991  -0.871  79.149  1.00  0.00     0.049 A 
HETATM   12  C7  UNL     1      33.933  -2.249  79.323  1.00  0.00     0.020 A 
HETATM   13  C8  UNL     1      35.053  -3.044  79.199  1.00  0.00     0.018 A 
HETATM   14  C9  UNL     1      36.269  -2.472  78.893  1.00  0.00     0.087 A 
HETATM   15  N6  UNL     1      36.342  -1.121  78.720  1.00  0.00    -0.374 N 
HETATM   16  C10 UNL     1      35.237  -0.360  78.846  1.00  0.00     0.104 A 
ATOM     17  H6  UNL     1      37.236  -0.685  78.495  1.00  0.00     0.164 HD
ENDBRANCH   8  11
ENDBRANCH   5   7
BRANCH   1  18
HETATM   18  N1  UNL     1      28.566   2.380  82.863  1.00  0.00    -0.173 N 
HETATM   19  C3  UNL     1      27.802   3.397  82.850  1.00  0.00     0.142 C 
BRANCH  19  20
HETATM   20  C2  UNL     1      27.167   3.852  84.067  1.00  0.00     0.011 C 
HETATM   21  C1  UNL     1      25.913   4.245  84.119  1.00  0.00     0.013 C 
ENDBRANCH  19  20
BRANCH  18  22
HETATM   22  O1  UNL     1      28.776   1.721  84.048  1.00  0.00    -0.268 OA
ATOM     23  H1  UNL     1      28.071   1.681  84.684  1.00  0.00     0.247 HD
ENDBRANCH  18  22
ENDBRANCH   1  18
TORSDOF 5
ENDMDL
