MODEL 1
REMARK VINA RESULT: -8.384490143      0.000      0.000
REMARK  4 active torsions:
REMARK  status: ('A' for Active; 'I' for Inactive)
REMARK    1  A    between atoms: C2_5  and  N3_6 
REMARK    2  A    between atoms: C2_5  and  C4_13 
REMARK    3  A    between atoms: N3_6  and  N4_8 
REMARK    4  A    between atoms: C6_15  and  C7_16 
ROOT
HETATM    1  N1  UNL     1      30.319   2.331  75.780  1.00  0.00    -0.172 NA
HETATM    2  C1  UNL     1      31.411   2.164  76.130  1.00  0.00     0.183 C 
HETATM    3  N2  UNL     1      32.683   1.989  76.505  1.00  0.00    -0.281 N 
ATOM      4  H2  UNL     1      33.318   2.633  76.034  1.00  0.00     0.179 HD
HETATM    5  C2  UNL     1      33.277   1.232  77.289  1.00  0.00     0.109 C 
ENDROOT
BRANCH   5   6
HETATM    6  N3  UNL     1      34.716   1.426  77.358  1.00  0.00    -0.286 N 
ATOM      7  H3  UNL     1      35.131   1.967  78.117  1.00  0.00     0.188 HD
BRANCH   6   8
HETATM    8  N4  UNL     1      35.509   0.868  76.380  1.00  0.00    -0.275 N 
HETATM    9  C3  UNL     1      36.478   0.064  76.570  1.00  0.00     0.215 C 
HETATM   10  N5  UNL     1      36.870  -0.366  77.862  1.00  0.00    -0.065 NA
HETATM   11  N6  UNL     1      37.189  -0.412  75.424  1.00  0.00    -0.065 NA
ATOM     12  H4  UNL     1      35.301   1.121  75.414  1.00  0.00     0.189 HD
ENDBRANCH   6   8
ENDBRANCH   5   6
BRANCH   5  13
HETATM   13  C4  UNL     1      32.776   0.157  78.157  1.00  0.00     0.064 A 
HETATM   14  C5  UNL     1      33.531  -0.264  79.322  1.00  0.00     0.023 A 
HETATM   15  C6  UNL     1      33.377  -1.199  78.102  1.00  0.00     0.030 A 
BRANCH  15  16
HETATM   16  C7  UNL     1      32.569  -2.416  78.309  1.00  0.00    -0.053 A 
HETATM   17  C8  UNL     1      33.146  -3.667  78.350  1.00  0.00     0.007 A 
HETATM   18  C9  UNL     1      32.401  -4.823  78.544  1.00  0.00     0.001 A 
HETATM   19  C10 UNL     1      31.033  -4.745  78.703  1.00  0.00     0.000 A 
HETATM   20  C11 UNL     1      30.439  -3.501  78.665  1.00  0.00     0.001 A 
HETATM   21  C12 UNL     1      31.194  -2.359  78.470  1.00  0.00     0.007 A 
ENDBRANCH  15  16
ENDBRANCH   5  13
TORSDOF 4
ENDMDL
MODEL 2
REMARK VINA RESULT: -8.375747844      0.012      1.113
REMARK  4 active torsions:
REMARK  status: ('A' for Active; 'I' for Inactive)
REMARK    1  A    between atoms: C2_5  and  N3_6 
REMARK    2  A    between atoms: C2_5  and  C4_13 
REMARK    3  A    between atoms: N3_6  and  N4_8 
REMARK    4  A    between atoms: C6_15  and  C7_16 
ROOT
HETATM    1  N1  UNL     1      30.312   2.336  75.802  1.00  0.00    -0.172 NA
HETATM    2  C1  UNL     1      31.406   2.168  76.148  1.00  0.00     0.183 C 
HETATM    3  N2  UNL     1      32.679   1.993  76.518  1.00  0.00    -0.281 N 
ATOM      4  H2  UNL     1      33.311   2.640  76.047  1.00  0.00     0.179 HD
HETATM    5  C2  UNL     1      33.276   1.234  77.297  1.00  0.00     0.109 C 
ENDROOT
BRANCH   5   6
HETATM    6  N3  UNL     1      34.716   1.430  77.363  1.00  0.00    -0.286 N 
ATOM      7  H3  UNL     1      35.132   1.973  78.119  1.00  0.00     0.188 HD
BRANCH   6   8
HETATM    8  N4  UNL     1      35.507   0.869  76.384  1.00  0.00    -0.275 N 
HETATM    9  C3  UNL     1      36.477   0.068  76.575  1.00  0.00     0.215 C 
HETATM   10  N5  UNL     1      36.872  -0.358  77.867  1.00  0.00    -0.065 NA
HETATM   11  N6  UNL     1      37.186  -0.411  75.428  1.00  0.00    -0.065 NA
ATOM     12  H4  UNL     1      35.296   1.119  75.418  1.00  0.00     0.189 HD
ENDBRANCH   6   8
ENDBRANCH   5   6
BRANCH   5  13
HETATM   13  C4  UNL     1      32.779   0.156  78.162  1.00  0.00     0.064 A 
HETATM   14  C5  UNL     1      33.537  -0.267  79.325  1.00  0.00     0.023 A 
HETATM   15  C6  UNL     1      33.383  -1.198  78.103  1.00  0.00     0.030 A 
BRANCH  15  16
HETATM   16  C7  UNL     1      32.578  -2.418  78.307  1.00  0.00    -0.053 A 
HETATM   17  C8  UNL     1      31.212  -2.361  78.475  1.00  0.00     0.007 A 
HETATM   18  C9  UNL     1      30.438  -3.498  78.668  1.00  0.00     0.001 A 
HETATM   19  C10 UNL     1      31.034  -4.742  78.700  1.00  0.00     0.000 A 
HETATM   20  C11 UNL     1      32.401  -4.817  78.533  1.00  0.00     0.001 A 
HETATM   21  C12 UNL     1      33.157  -3.676  78.342  1.00  0.00     0.007 A 
ENDBRANCH  15  16
ENDBRANCH   5  13
TORSDOF 4
ENDMDL
MODEL 3
REMARK VINA RESULT: -7.994523895      2.300      5.146
REMARK  4 active torsions:
REMARK  status: ('A' for Active; 'I' for Inactive)
REMARK    1  A    between atoms: C2_5  and  N3_6 
REMARK    2  A    between atoms: C2_5  and  C4_13 
REMARK    3  A    between atoms: N3_6  and  N4_8 
REMARK    4  A    between atoms: C6_15  and  C7_16 
ROOT
HETATM    1  N1  UNL     1      37.393   0.093  77.010  1.00  0.00    -0.172 NA
HETATM    2  C1  UNL     1      36.240   0.086  76.893  1.00  0.00     0.183 C 
HETATM    3  N2  UNL     1      34.912   0.098  76.726  1.00  0.00    -0.281 N 
ATOM      4  H2  UNL     1      34.644   0.333  75.771  1.00  0.00     0.179 HD
HETATM    5  C2  UNL     1      33.929  -0.110  77.454  1.00  0.00     0.109 C 
ENDROOT
BRANCH   5   6
HETATM    6  N3  UNL     1      32.639   0.027  76.797  1.00  0.00    -0.286 N 
ATOM      7  H3  UNL     1      31.956  -0.729  76.832  1.00  0.00     0.188 HD
BRANCH   6   8
HETATM    8  N4  UNL     1      32.357   1.198  76.127  1.00  0.00    -0.275 N 
HETATM    9  C3  UNL     1      31.401   1.997  76.388  1.00  0.00     0.215 C 
HETATM   10  N5  UNL     1      30.480   1.767  77.439  1.00  0.00    -0.065 NA
HETATM   11  N6  UNL     1      31.267   3.168  75.577  1.00  0.00    -0.065 NA
ATOM     12  H4  UNL     1      32.970   1.447  75.351  1.00  0.00     0.189 HD
ENDBRANCH   6   8
ENDBRANCH   5   6
BRANCH   5  13
HETATM   13  C4  UNL     1      33.841  -0.461  78.878  1.00  0.00     0.064 A 
HETATM   14  C5  UNL     1      33.099  -1.632  79.305  1.00  0.00     0.023 A 
HETATM   15  C6  UNL     1      32.593  -0.212  79.641  1.00  0.00     0.030 A 
BRANCH  15  16
HETATM   16  C7  UNL     1      32.616   0.170  81.066  1.00  0.00    -0.053 A 
HETATM   17  C8  UNL     1      31.500   0.679  81.695  1.00  0.00     0.007 A 
HETATM   18  C9  UNL     1      31.503   1.045  83.035  1.00  0.00     0.001 A 
HETATM   19  C10 UNL     1      32.652   0.904  83.787  1.00  0.00     0.000 A 
HETATM   20  C11 UNL     1      33.778   0.396  83.173  1.00  0.00     0.001 A 
HETATM   21  C12 UNL     1      33.759   0.038  81.838  1.00  0.00     0.007 A 
ENDBRANCH  15  16
ENDBRANCH   5  13
TORSDOF 4
ENDMDL
MODEL 4
REMARK VINA RESULT: -7.850484035      2.689      4.027
REMARK  4 active torsions:
REMARK  status: ('A' for Active; 'I' for Inactive)
REMARK    1  A    between atoms: C2_5  and  N3_6 
REMARK    2  A    between atoms: C2_5  and  C4_13 
REMARK    3  A    between atoms: N3_6  and  N4_8 
REMARK    4  A    between atoms: C6_15  and  C7_16 
ROOT
HETATM    1  N1  UNL     1      30.676  -1.432  76.488  1.00  0.00    -0.172 NA
HETATM    2  C1  UNL     1      31.606  -0.757  76.638  1.00  0.00     0.183 C 
HETATM    3  N2  UNL     1      32.686   0.020  76.774  1.00  0.00    -0.281 N 
ATOM      4  H2  UNL     1      32.990   0.420  75.887  1.00  0.00     0.179 HD
HETATM    5  C2  UNL     1      33.407   0.373  77.721  1.00  0.00     0.109 C 
ENDROOT
BRANCH   5   6
HETATM    6  N3  UNL     1      34.503   1.258  77.361  1.00  0.00    -0.286 N 
ATOM      7  H3  UNL     1      34.585   2.182  77.786  1.00  0.00     0.188 HD
BRANCH   6   8
HETATM    8  N4  UNL     1      35.429   0.826  76.437  1.00  0.00    -0.275 N 
HETATM    9  C3  UNL     1      36.418   0.060  76.670  1.00  0.00     0.215 C 
HETATM   10  N5  UNL     1      36.693  -0.459  77.959  1.00  0.00    -0.065 NA
HETATM   11  N6  UNL     1      37.276  -0.280  75.577  1.00  0.00    -0.065 NA
ATOM     12  H4  UNL     1      35.311   1.151  75.477  1.00  0.00     0.189 HD
ENDBRANCH   6   8
ENDBRANCH   5   6
BRANCH   5  13
HETATM   13  C4  UNL     1      33.352   0.039  79.151  1.00  0.00     0.064 A 
HETATM   14  C5  UNL     1      32.856  -1.252  79.589  1.00  0.00     0.023 A 
HETATM   15  C6  UNL     1      32.058   0.038  79.876  1.00  0.00     0.030 A 
BRANCH  15  16
HETATM   16  C7  UNL     1      31.959   0.445  81.291  1.00  0.00    -0.053 A 
HETATM   17  C8  UNL     1      30.774   0.897  81.831  1.00  0.00     0.007 A 
HETATM   18  C9  UNL     1      30.663   1.284  83.160  1.00  0.00     0.001 A 
HETATM   19  C10 UNL     1      31.762   1.226  83.992  1.00  0.00     0.000 A 
HETATM   20  C11 UNL     1      32.956   0.776  83.467  1.00  0.00     0.001 A 
HETATM   21  C12 UNL     1      33.051   0.394  82.142  1.00  0.00     0.007 A 
ENDBRANCH  15  16
ENDBRANCH   5  13
TORSDOF 4
ENDMDL
MODEL 5
REMARK VINA RESULT: -7.846966029      0.866      4.066
REMARK  4 active torsions:
REMARK  status: ('A' for Active; 'I' for Inactive)
REMARK    1  A    between atoms: C2_5  and  N3_6 
REMARK    2  A    between atoms: C2_5  and  C4_13 
REMARK    3  A    between atoms: N3_6  and  N4_8 
REMARK    4  A    between atoms: C6_15  and  C7_16 
ROOT
HETATM    1  N1  UNL     1      37.603  -0.066  77.250  1.00  0.00    -0.172 NA
HETATM    2  C1  UNL     1      36.557   0.382  77.030  1.00  0.00     0.183 C 
HETATM    3  N2  UNL     1      35.366   0.930  76.763  1.00  0.00    -0.281 N 
ATOM      4  H2  UNL     1      35.437   1.713  76.113  1.00  0.00     0.179 HD
HETATM    5  C2  UNL     1      34.196   0.715  77.114  1.00  0.00     0.109 C 
ENDROOT
BRANCH   5   6
HETATM    6  N3  UNL     1      33.206   1.609  76.535  1.00  0.00    -0.286 N 
ATOM      7  H3  UNL     1      33.436   2.181  75.723  1.00  0.00     0.188 HD
BRANCH   6   8
HETATM    8  N4  UNL     1      31.953   1.669  77.104  1.00  0.00    -0.275 N 
HETATM    9  C3  UNL     1      30.961   2.333  76.661  1.00  0.00     0.215 C 
HETATM   10  N5  UNL     1      31.034   3.119  75.485  1.00  0.00    -0.065 NA
HETATM   11  N6  UNL     1      29.733   2.272  77.392  1.00  0.00    -0.065 NA
ATOM     12  H4  UNL     1      31.805   1.131  77.958  1.00  0.00     0.189 HD
ENDBRANCH   6   8
ENDBRANCH   5   6
BRANCH   5  13
HETATM   13  C4  UNL     1      33.634  -0.287  78.030  1.00  0.00     0.064 A 
HETATM   14  C5  UNL     1      34.497  -1.042  78.918  1.00  0.00     0.023 A 
HETATM   15  C6  UNL     1      33.775  -1.736  77.742  1.00  0.00     0.030 A 
BRANCH  15  16
HETATM   16  C7  UNL     1      32.723  -2.706  78.101  1.00  0.00    -0.053 A 
HETATM   17  C8  UNL     1      31.432  -2.304  78.369  1.00  0.00     0.007 A 
HETATM   18  C9  UNL     1      30.428  -3.203  78.708  1.00  0.00     0.001 A 
HETATM   19  C10 UNL     1      30.707  -4.552  78.788  1.00  0.00     0.000 A 
HETATM   20  C11 UNL     1      31.994  -4.971  78.523  1.00  0.00     0.001 A 
HETATM   21  C12 UNL     1      32.982  -4.064  78.187  1.00  0.00     0.007 A 
ENDBRANCH  15  16
ENDBRANCH   5  13
TORSDOF 4
ENDMDL
