MODEL 1
REMARK VINA RESULT: -7.805802974      0.000      0.000
REMARK  4 active torsions:
REMARK  status: ('A' for Active; 'I' for Inactive)
REMARK    1  A    between atoms: C2_2  and  N1_3 
REMARK    2  A    between atoms: C2_2  and  C4_8 
REMARK       I    between atoms: N1_3  and  C3_5 
REMARK       I    between atoms: C4_8  and  N3_10 
REMARK    3  A    between atoms: N3_10  and  C5_12 
REMARK    4  A    between atoms: C5_12  and  C7_14 
REMARK       I    between atoms: C7_14  and  N4_16 
ROOT
HETATM    1  C7  UNL     1      31.283  -1.191  77.087  1.00  0.00     0.254 C 
HETATM    2  O3  UNL     1      30.851  -1.408  75.927  1.00  0.00    -0.270 OA
HETATM    3  N4  UNL     1      31.410   0.137  77.556  1.00  0.00    -0.258 N 
HETATM    4  C8  UNL     1      31.898   0.469  78.877  1.00  0.00     0.172 C 
HETATM    5  C9  UNL     1      31.046   1.182  76.701  1.00  0.00     0.186 C 
HETATM    6  N5  UNL     1      30.747   2.054  76.002  1.00  0.00    -0.172 NA
ENDROOT
BRANCH   1   7
HETATM    7  C5  UNL     1      31.642  -2.375  77.911  1.00  0.00     0.173 C 
HETATM    8  C6  UNL     1      30.567  -2.666  78.904  1.00  0.00     0.042 C 
BRANCH   7   9
HETATM    9  N3  UNL     1      32.939  -2.147  78.549  1.00  0.00    -0.346 N 
HETATM   10  C4  UNL     1      34.141  -2.653  77.975  1.00  0.00     0.240 C 
HETATM   11  O2  UNL     1      34.147  -3.313  76.904  1.00  0.00    -0.271 OA
ATOM     12  H3  UNL     1      32.984  -1.617  79.420  1.00  0.00     0.163 HD
BRANCH  10  13
HETATM   13  C2  UNL     1      35.434  -2.395  78.660  1.00  0.00     0.174 C 
HETATM   14  C1  UNL     1      35.116  -1.434  79.814  1.00  0.00     0.042 C 
BRANCH  13  15
HETATM   15  N1  UNL     1      36.396  -1.785  77.789  1.00  0.00    -0.333 N 
HETATM   16  C3  UNL     1      36.060  -0.574  77.135  1.00  0.00     0.329 C 
HETATM   17  N2  UNL     1      36.984   0.048  76.274  1.00  0.00    -0.040 NA
HETATM   18  O1  UNL     1      34.916  -0.078  77.350  1.00  0.00    -0.251 OA
ATOM     19  H1  UNL     1      37.308  -2.216  77.642  1.00  0.00     0.164 HD
ENDBRANCH  13  15
ENDBRANCH  10  13
ENDBRANCH   7   9
ENDBRANCH   1   7
TORSDOF 4
ENDMDL
MODEL 2
REMARK VINA RESULT: -7.413740587      1.690      2.322
REMARK  4 active torsions:
REMARK  status: ('A' for Active; 'I' for Inactive)
REMARK    1  A    between atoms: C2_2  and  N1_3 
REMARK    2  A    between atoms: C2_2  and  C4_8 
REMARK       I    between atoms: N1_3  and  C3_5 
REMARK       I    between atoms: C4_8  and  N3_10 
REMARK    3  A    between atoms: N3_10  and  C5_12 
REMARK    4  A    between atoms: C5_12  and  C7_14 
REMARK       I    between atoms: C7_14  and  N4_16 
ROOT
HETATM    1  C7  UNL     1      31.264  -1.132  77.067  1.00  0.00     0.254 C 
HETATM    2  O3  UNL     1      30.843  -1.380  75.909  1.00  0.00    -0.270 OA
HETATM    3  N4  UNL     1      31.359   0.207  77.512  1.00  0.00    -0.258 N 
HETATM    4  C8  UNL     1      31.832   0.573  78.829  1.00  0.00     0.172 C 
HETATM    5  C9  UNL     1      30.977   1.227  76.636  1.00  0.00     0.186 C 
HETATM    6  N5  UNL     1      30.663   2.080  75.919  1.00  0.00    -0.172 NA
ENDROOT
BRANCH   1   7
HETATM    7  C5  UNL     1      31.644  -2.293  77.914  1.00  0.00     0.173 C 
HETATM    8  C6  UNL     1      30.489  -2.729  78.753  1.00  0.00     0.042 C 
BRANCH   7   9
HETATM    9  N3  UNL     1      32.814  -1.943  78.721  1.00  0.00    -0.346 N 
HETATM   10  C4  UNL     1      34.133  -2.078  78.202  1.00  0.00     0.240 C 
HETATM   11  O2  UNL     1      34.357  -2.501  77.038  1.00  0.00    -0.271 OA
ATOM     12  H3  UNL     1      32.682  -1.596  79.671  1.00  0.00     0.163 HD
BRANCH  10  13
HETATM   13  C2  UNL     1      35.290  -1.710  79.059  1.00  0.00     0.174 C 
HETATM   14  C1  UNL     1      36.412  -2.694  78.700  1.00  0.00     0.042 C 
BRANCH  13  15
HETATM   15  N1  UNL     1      34.988  -1.829  80.456  1.00  0.00    -0.333 N 
HETATM   16  C3  UNL     1      34.770  -0.653  81.215  1.00  0.00     0.329 C 
HETATM   17  N2  UNL     1      34.471  -0.738  82.588  1.00  0.00    -0.040 NA
HETATM   18  O1  UNL     1      34.851   0.462  80.622  1.00  0.00    -0.251 OA
ATOM     19  H1  UNL     1      34.930  -2.746  80.897  1.00  0.00     0.164 HD
ENDBRANCH  13  15
ENDBRANCH  10  13
ENDBRANCH   7   9
ENDBRANCH   1   7
TORSDOF 4
ENDMDL
MODEL 3
REMARK VINA RESULT: -7.019272888      2.976      4.998
REMARK  4 active torsions:
REMARK  status: ('A' for Active; 'I' for Inactive)
REMARK    1  A    between atoms: C2_2  and  N1_3 
REMARK    2  A    between atoms: C2_2  and  C4_8 
REMARK       I    between atoms: N1_3  and  C3_5 
REMARK       I    between atoms: C4_8  and  N3_10 
REMARK    3  A    between atoms: N3_10  and  C5_12 
REMARK    4  A    between atoms: C5_12  and  C7_14 
REMARK       I    between atoms: C7_14  and  N4_16 
ROOT
HETATM    1  C7  UNL     1      34.043  -0.795  81.348  1.00  0.00     0.254 C 
HETATM    2  O3  UNL     1      35.080  -1.016  82.023  1.00  0.00    -0.270 OA
HETATM    3  N4  UNL     1      33.048   0.076  81.849  1.00  0.00    -0.258 N 
HETATM    4  C8  UNL     1      31.828   0.382  81.134  1.00  0.00     0.172 C 
HETATM    5  C9  UNL     1      33.252   0.672  83.097  1.00  0.00     0.186 C 
HETATM    6  N5  UNL     1      33.412   1.171  84.129  1.00  0.00    -0.172 NA
ENDROOT
BRANCH   1   7
HETATM    7  C5  UNL     1      33.928  -1.482  80.035  1.00  0.00     0.173 C 
HETATM    8  C6  UNL     1      34.822  -2.675  79.989  1.00  0.00     0.042 C 
BRANCH   7   9
HETATM    9  N3  UNL     1      34.219  -0.529  78.962  1.00  0.00    -0.346 N 
HETATM   10  C4  UNL     1      33.300  -0.320  77.895  1.00  0.00     0.240 C 
HETATM   11  O2  UNL     1      32.206  -0.936  77.821  1.00  0.00    -0.271 OA
ATOM     12  H3  UNL     1      35.095  -0.007  78.980  1.00  0.00     0.163 HD
BRANCH  10  13
HETATM   13  C2  UNL     1      33.640   0.657  76.829  1.00  0.00     0.174 C 
HETATM   14  C1  UNL     1      35.125   0.997  77.025  1.00  0.00     0.042 C 
BRANCH  13  15
HETATM   15  N1  UNL     1      32.865   1.859  76.929  1.00  0.00    -0.333 N 
HETATM   16  C3  UNL     1      31.708   2.001  76.125  1.00  0.00     0.329 C 
HETATM   17  N2  UNL     1      30.926   3.169  76.202  1.00  0.00    -0.040 NA
HETATM   18  O1  UNL     1      31.405   1.051  75.345  1.00  0.00    -0.251 OA
ATOM     19  H1  UNL     1      33.142   2.602  77.571  1.00  0.00     0.164 HD
ENDBRANCH  13  15
ENDBRANCH  10  13
ENDBRANCH   7   9
ENDBRANCH   1   7
TORSDOF 4
ENDMDL
MODEL 4
REMARK VINA RESULT: -6.861197012      3.246      4.346
REMARK  4 active torsions:
REMARK  status: ('A' for Active; 'I' for Inactive)
REMARK    1  A    between atoms: C2_2  and  N1_3 
REMARK    2  A    between atoms: C2_2  and  C4_8 
REMARK       I    between atoms: N1_3  and  C3_5 
REMARK       I    between atoms: C4_8  and  N3_10 
REMARK    3  A    between atoms: N3_10  and  C5_12 
REMARK    4  A    between atoms: C5_12  and  C7_14 
REMARK       I    between atoms: C7_14  and  N4_16 
ROOT
HETATM    1  C7  UNL     1      32.054  -0.243  77.570  1.00  0.00     0.254 C 
HETATM    2  O3  UNL     1      30.828  -0.499  77.465  1.00  0.00    -0.270 OA
HETATM    3  N4  UNL     1      32.597   0.889  76.919  1.00  0.00    -0.258 N 
HETATM    4  C8  UNL     1      33.996   1.251  76.992  1.00  0.00     0.172 C 
HETATM    5  C9  UNL     1      31.740   1.699  76.167  1.00  0.00     0.186 C 
HETATM    6  N5  UNL     1      31.040   2.376  75.543  1.00  0.00    -0.172 NA
ENDROOT
BRANCH   1   7
HETATM    7  C5  UNL     1      32.873  -1.171  78.393  1.00  0.00     0.173 C 
HETATM    8  C6  UNL     1      32.357  -2.566  78.278  1.00  0.00     0.042 C 
BRANCH   7   9
HETATM    9  N3  UNL     1      32.894  -0.700  79.779  1.00  0.00    -0.346 N 
HETATM   10  C4  UNL     1      34.086  -0.184  80.362  1.00  0.00     0.240 C 
HETATM   11  O2  UNL     1      35.168  -0.107  79.724  1.00  0.00    -0.271 OA
ATOM     12  H3  UNL     1      32.041  -0.743  80.336  1.00  0.00     0.163 HD
BRANCH  10  13
HETATM   13  C2  UNL     1      34.058   0.282  81.773  1.00  0.00     0.174 C 
HETATM   14  C1  UNL     1      34.934  -0.703  82.560  1.00  0.00     0.042 C 
BRANCH  13  15
HETATM   15  N1  UNL     1      32.732   0.275  82.319  1.00  0.00    -0.333 N 
HETATM   16  C3  UNL     1      32.413   1.177  83.363  1.00  0.00     0.329 C 
HETATM   17  N2  UNL     1      31.120   1.193  83.919  1.00  0.00    -0.040 NA
HETATM   18  O1  UNL     1      33.320   1.959  83.772  1.00  0.00    -0.251 OA
ATOM     19  H1  UNL     1      32.029  -0.371  81.961  1.00  0.00     0.164 HD
ENDBRANCH  13  15
ENDBRANCH  10  13
ENDBRANCH   7   9
ENDBRANCH   1   7
TORSDOF 4
ENDMDL
MODEL 5
REMARK VINA RESULT: -6.831771557      2.188      5.348
REMARK  4 active torsions:
REMARK  status: ('A' for Active; 'I' for Inactive)
REMARK    1  A    between atoms: C2_2  and  N1_3 
REMARK    2  A    between atoms: C2_2  and  C4_8 
REMARK       I    between atoms: N1_3  and  C3_5 
REMARK       I    between atoms: C4_8  and  N3_10 
REMARK    3  A    between atoms: N3_10  and  C5_12 
REMARK    4  A    between atoms: C5_12  and  C7_14 
REMARK       I    between atoms: C7_14  and  N4_16 
ROOT
HETATM    1  C7  UNL     1      35.143  -0.488  79.167  1.00  0.00     0.254 C 
HETATM    2  O3  UNL     1      35.193   0.716  79.522  1.00  0.00    -0.270 OA
HETATM    3  N4  UNL     1      35.039  -1.507  80.142  1.00  0.00    -0.258 N 
HETATM    4  C8  UNL     1      34.975  -2.915  79.814  1.00  0.00     0.172 C 
HETATM    5  C9  UNL     1      34.996  -1.138  81.489  1.00  0.00     0.186 C 
HETATM    6  N5  UNL     1      34.959  -0.842  82.607  1.00  0.00    -0.172 NA
ENDROOT
BRANCH   1   7
HETATM    7  C5  UNL     1      35.198  -0.769  77.709  1.00  0.00     0.173 C 
HETATM    8  C6  UNL     1      36.401  -0.132  77.098  1.00  0.00     0.042 C 
BRANCH   7   9
HETATM    9  N3  UNL     1      33.954  -0.318  77.081  1.00  0.00    -0.346 N 
HETATM   10  C4  UNL     1      32.687  -0.754  77.563  1.00  0.00     0.240 C 
HETATM   11  O2  UNL     1      32.574  -1.539  78.540  1.00  0.00    -0.271 OA
ATOM     12  H3  UNL     1      33.996   0.319  76.286  1.00  0.00     0.163 HD
BRANCH  10  13
HETATM   13  C2  UNL     1      31.452  -0.269  76.894  1.00  0.00     0.174 C 
HETATM   14  C1  UNL     1      30.976  -1.422  76.000  1.00  0.00     0.042 C 
BRANCH  13  15
HETATM   15  N1  UNL     1      31.696   0.888  76.082  1.00  0.00    -0.333 N 
HETATM   16  C3  UNL     1      30.975   2.078  76.346  1.00  0.00     0.329 C 
HETATM   17  N2  UNL     1      31.193   3.229  75.565  1.00  0.00    -0.040 NA
HETATM   18  O1  UNL     1      30.140   2.070  77.296  1.00  0.00    -0.251 OA
ATOM     19  H1  UNL     1      32.378   0.854  75.325  1.00  0.00     0.164 HD
ENDBRANCH  13  15
ENDBRANCH  10  13
ENDBRANCH   7   9
ENDBRANCH   1   7
TORSDOF 4
ENDMDL
