MODEL 1
REMARK VINA RESULT: -8.838956640      0.000      0.000
REMARK  10 active torsions:
REMARK  status: ('A' for Active; 'I' for Inactive)
REMARK    1  A    between atoms: S1_2  and  N1_4 
REMARK    2  A    between atoms: S1_2  and  C8_25 
REMARK    3  A    between atoms: N1_4  and  C2_6 
REMARK    4  A    between atoms: N6_18  and  C6_19 
REMARK    5  A    between atoms: C6_19  and  C7_20 
REMARK    6  A    between atoms: C7_20  and  N7_21 
REMARK    7  A    between atoms: C14_34  and  C15_35 
REMARK    8  A    between atoms: C15_35  and  N9_36 
REMARK    9  A    between atoms: C15_35  and  O3_40 
REMARK   10  A    between atoms: N10_42  and  N11_43 
ROOT
HETATM    1  C1  UNL     1      27.883  73.688   0.755  1.00  0.00     0.144 C 
HETATM    2  S1  UNL     1      27.403  72.982  -0.619  1.00  0.00     0.070 S 
HETATM    3  O1  UNL     1      28.441  71.870  -0.706  1.00  0.00    -0.243 OA
ENDROOT
BRANCH   2   4
HETATM    4  N1  UNL     1      25.819  72.467  -0.502  1.00  0.00    -0.296 N 
ATOM      5  H1  UNL     1      25.719  71.466  -0.676  1.00  0.00     0.177 HD
BRANCH   4   6
HETATM    6  C2  UNL     1      24.725  73.023  -0.251  1.00  0.00     0.146 A 
HETATM    7  N2  UNL     1      23.968  73.359  -1.343  1.00  0.00    -0.336 N 
HETATM    8  C3  UNL     1      22.775  73.959  -1.224  1.00  0.00     0.183 A 
ATOM      9  H2  UNL     1      24.322  73.146  -2.276  1.00  0.00     0.168 HD
HETATM   10  N3  UNL     1      22.245  74.271  -0.028  1.00  0.00    -0.335 N 
HETATM   11  C4  UNL     1      22.926  73.974   1.077  1.00  0.00     0.157 A 
ATOM     12  H3  UNL     1      21.335  74.728   0.033  1.00  0.00     0.168 HD
HETATM   13  C5  UNL     1      24.172  73.347   0.959  1.00  0.00     0.140 A 
HETATM   14  N6  UNL     1      22.658  74.158   2.389  1.00  0.00    -0.258 N 
HETATM   15  N4  UNL     1      24.589  73.187   2.203  1.00  0.00    -0.279 N 
HETATM   16  N5  UNL     1      23.688  73.669   3.030  1.00  0.00    -0.238 N 
ATOM     17  H4  UNL     1      25.472  72.756   2.479  1.00  0.00     0.189 HD
ATOM     18  H5  UNL     1      23.780  73.662   4.046  1.00  0.00     0.208 HD
BRANCH  14  19
HETATM   19  C6  UNL     1      21.490  74.766   2.980  1.00  0.00     0.179 C 
BRANCH  19  20
HETATM   20  C7  UNL     1      21.633  74.792   4.490  1.00  0.00     0.251 C 
BRANCH  20  21
HETATM   21  N7  UNL     1      21.632  76.184   4.904  1.00  0.00    -0.078 N 
ATOM     22  H73 UNL     1      22.570  76.579   4.975  1.00  0.00     0.274 HD
ATOM     23  H72 UNL     1      21.277  76.812   4.183  1.00  0.00     0.274 HD
ATOM     24  H71 UNL     1      21.108  76.243   5.777  1.00  0.00     0.274 HD
ENDBRANCH  20  21
ENDBRANCH  19  20
ENDBRANCH  14  19
ENDBRANCH   4   6
ENDBRANCH   2   4
BRANCH   2  25
HETATM   25  C8  UNL     1      27.578  74.128  -1.929  1.00  0.00     0.110 A 
HETATM   26  C9  UNL     1      28.294  73.960  -3.094  1.00  0.00     0.074 A 
HETATM   27  C10 UNL     1      28.184  75.091  -3.868  1.00  0.00     0.089 A 
HETATM   28  C11 UNL     1      27.383  75.969  -3.160  1.00  0.00     0.113 A 
HETATM   29  N10 UNL     1      28.663  75.461  -5.063  1.00  0.00    -0.260 N 
HETATM   30  N8  UNL     1      27.043  75.361  -2.013  1.00  0.00    -0.343 N 
HETATM   31  C12 UNL     1      27.080  77.215  -3.679  1.00  0.00     0.203 A 
ATOM     32  H8  UNL     1      26.452  75.780  -1.295  1.00  0.00     0.167 HD
HETATM   33  O2  UNL     1      26.356  78.014  -3.044  1.00  0.00    -0.286 OA
HETATM   34  C13 UNL     1      27.599  77.539  -4.910  1.00  0.00     0.089 A 
HETATM   35  C14 UNL     1      28.391  76.676  -5.616  1.00  0.00     0.093 A 
BRANCH  35  36
HETATM   36  C15 UNL     1      28.913  77.086  -6.925  1.00  0.00     0.369 C 
BRANCH  36  37
HETATM   37  N9  UNL     1      28.027  78.136  -7.440  1.00  0.00    -0.047 N 
ATOM     38  H93 UNL     1      27.054  77.837  -7.509  1.00  0.00     0.277 HD
ATOM     39  H92 UNL     1      27.884  78.897  -6.777  1.00  0.00     0.277 HD
ATOM     40  H91 UNL     1      28.412  78.450  -8.331  1.00  0.00     0.277 HD
ENDBRANCH  36  37
BRANCH  36  41
HETATM   41  O3  UNL     1      30.204  77.603  -6.871  1.00  0.00    -0.365 OA
ATOM     42  H3  UNL     1      30.581  77.769  -7.727  1.00  0.00     0.212 HD
ENDBRANCH  36  41
ENDBRANCH  35  36
BRANCH  29  43
HETATM   43  N11 UNL     1      29.473  74.584  -5.791  1.00  0.00    -0.338 N 
ATOM     44 2H11 UNL     1      30.113  73.987  -5.267  1.00  0.00     0.177 HD
ATOM     45 1H11 UNL     1      29.410  74.559  -6.808  1.00  0.00     0.177 HD
ENDBRANCH  29  43
ENDBRANCH   2  25
TORSDOF 10
ENDMDL
MODEL 2
REMARK VINA RESULT: -8.612756902      3.333      4.776
REMARK  10 active torsions:
REMARK  status: ('A' for Active; 'I' for Inactive)
REMARK    1  A    between atoms: S1_2  and  N1_4 
REMARK    2  A    between atoms: S1_2  and  C8_25 
REMARK    3  A    between atoms: N1_4  and  C2_6 
REMARK    4  A    between atoms: N6_18  and  C6_19 
REMARK    5  A    between atoms: C6_19  and  C7_20 
REMARK    6  A    between atoms: C7_20  and  N7_21 
REMARK    7  A    between atoms: C14_34  and  C15_35 
REMARK    8  A    between atoms: C15_35  and  N9_36 
REMARK    9  A    between atoms: C15_35  and  O3_40 
REMARK   10  A    between atoms: N10_42  and  N11_43 
ROOT
HETATM    1  C1  UNL     1      24.770  72.836  -4.872  1.00  0.00     0.144 C 
HETATM    2  S1  UNL     1      24.210  73.816  -3.714  1.00  0.00     0.070 S 
HETATM    3  O1  UNL     1      23.958  75.069  -4.543  1.00  0.00    -0.243 OA
ENDROOT
BRANCH   2   4
HETATM    4  N1  UNL     1      22.856  73.163  -2.985  1.00  0.00    -0.296 N 
ATOM      5  H1  UNL     1      22.623  72.239  -3.348  1.00  0.00     0.177 HD
BRANCH   4   6
HETATM    6  C2  UNL     1      22.061  73.545  -2.095  1.00  0.00     0.146 A 
HETATM    7  N2  UNL     1      20.774  73.774  -2.511  1.00  0.00    -0.336 N 
HETATM    8  C3  UNL     1      19.817  74.185  -1.666  1.00  0.00     0.183 A 
ATOM      9  H2  UNL     1      20.537  73.626  -3.492  1.00  0.00     0.168 HD
HETATM   10  N3  UNL     1      20.057  74.401  -0.361  1.00  0.00    -0.335 N 
HETATM   11  C4  UNL     1      21.285  74.199   0.112  1.00  0.00     0.157 A 
ATOM     12  H3  UNL     1      19.309  74.714   0.258  1.00  0.00     0.168 HD
HETATM   13  C5  UNL     1      22.288  73.769  -0.764  1.00  0.00     0.140 A 
HETATM   14  N6  UNL     1      21.816  74.328   1.348  1.00  0.00    -0.258 N 
HETATM   15  N4  UNL     1      23.369  73.661  -0.012  1.00  0.00    -0.279 N 
HETATM   16  N5  UNL     1      23.075  73.993   1.226  1.00  0.00    -0.238 N 
ATOM     17  H4  UNL     1      24.289  73.367  -0.340  1.00  0.00     0.189 HD
ATOM     18  H5  UNL     1      23.745  73.990   1.995  1.00  0.00     0.208 HD
BRANCH  14  19
HETATM   19  C6  UNL     1      21.154  74.745   2.561  1.00  0.00     0.179 C 
BRANCH  19  20
HETATM   20  C7  UNL     1      22.087  74.562   3.744  1.00  0.00     0.251 C 
BRANCH  20  21
HETATM   21  N7  UNL     1      22.558  75.879   4.135  1.00  0.00    -0.078 N 
ATOM     22  H73 UNL     1      22.371  76.594   3.432  1.00  0.00     0.274 HD
ATOM     23  H72 UNL     1      22.010  76.289   4.891  1.00  0.00     0.274 HD
ATOM     24  H71 UNL     1      23.549  75.794   4.362  1.00  0.00     0.274 HD
ENDBRANCH  20  21
ENDBRANCH  19  20
ENDBRANCH  14  19
ENDBRANCH   4   6
ENDBRANCH   2   4
BRANCH   2  25
HETATM   25  C8  UNL     1      25.476  74.071  -2.534  1.00  0.00     0.110 A 
HETATM   26  C9  UNL     1      26.268  73.112  -1.941  1.00  0.00     0.074 A 
HETATM   27  C10 UNL     1      27.144  73.715  -1.070  1.00  0.00     0.089 A 
HETATM   28  C11 UNL     1      26.882  75.072  -1.133  1.00  0.00     0.113 A 
HETATM   29  N10 UNL     1      28.109  73.273  -0.252  1.00  0.00    -0.260 N 
HETATM   30  N8  UNL     1      25.885  75.244  -2.014  1.00  0.00    -0.343 N 
HETATM   31  C12 UNL     1      27.607  75.961  -0.361  1.00  0.00     0.203 A 
ATOM     32  H8  UNL     1      25.486  76.150  -2.260  1.00  0.00     0.167 HD
HETATM   33  O2  UNL     1      27.376  77.190  -0.413  1.00  0.00    -0.286 OA
HETATM   34  C13 UNL     1      28.585  75.450   0.458  1.00  0.00     0.089 A 
HETATM   35  C14 UNL     1      28.850  74.110   0.526  1.00  0.00     0.093 A 
BRANCH  35  36
HETATM   36  C15 UNL     1      29.908  73.630   1.423  1.00  0.00     0.369 C 
BRANCH  36  37
HETATM   37  N9  UNL     1      30.212  74.717   2.361  1.00  0.00    -0.047 N 
ATOM     38  H93 UNL     1      30.559  75.557   1.898  1.00  0.00     0.277 HD
ATOM     39  H92 UNL     1      29.377  75.130   2.776  1.00  0.00     0.277 HD
ATOM     40  H91 UNL     1      30.861  74.347   3.055  1.00  0.00     0.277 HD
ENDBRANCH  36  37
BRANCH  36  41
HETATM   41  O3  UNL     1      29.542  72.512   2.166  1.00  0.00    -0.365 OA
ATOM     42  H3  UNL     1      30.241  71.875   2.260  1.00  0.00     0.212 HD
ENDBRANCH  36  41
ENDBRANCH  35  36
BRANCH  29  43
HETATM   43  N11 UNL     1      28.386  71.903  -0.178  1.00  0.00    -0.338 N 
ATOM     44 2H11 UNL     1      28.356  71.464   0.742  1.00  0.00     0.177 HD
ATOM     45 1H11 UNL     1      28.607  71.383  -1.027  1.00  0.00     0.177 HD
ENDBRANCH  29  43
ENDBRANCH   2  25
TORSDOF 10
ENDMDL
MODEL 3
REMARK VINA RESULT: -8.607901051      1.431      1.902
REMARK  10 active torsions:
REMARK  status: ('A' for Active; 'I' for Inactive)
REMARK    1  A    between atoms: S1_2  and  N1_4 
REMARK    2  A    between atoms: S1_2  and  C8_25 
REMARK    3  A    between atoms: N1_4  and  C2_6 
REMARK    4  A    between atoms: N6_18  and  C6_19 
REMARK    5  A    between atoms: C6_19  and  C7_20 
REMARK    6  A    between atoms: C7_20  and  N7_21 
REMARK    7  A    between atoms: C14_34  and  C15_35 
REMARK    8  A    between atoms: C15_35  and  N9_36 
REMARK    9  A    between atoms: C15_35  and  O3_40 
REMARK   10  A    between atoms: N10_42  and  N11_43 
ROOT
HETATM    1  C1  UNL     1      27.826  73.735   0.693  1.00  0.00     0.144 C 
HETATM    2  S1  UNL     1      27.460  72.900  -0.643  1.00  0.00     0.070 S 
HETATM    3  O1  UNL     1      28.468  71.765  -0.515  1.00  0.00    -0.243 OA
ENDROOT
BRANCH   2   4
HETATM    4  N1  UNL     1      25.857  72.431  -0.631  1.00  0.00    -0.296 N 
ATOM      5  H1  UNL     1      25.734  71.451  -0.887  1.00  0.00     0.177 HD
BRANCH   4   6
HETATM    6  C2  UNL     1      24.771  73.002  -0.380  1.00  0.00     0.146 A 
HETATM    7  N2  UNL     1      24.030  73.369  -1.474  1.00  0.00    -0.336 N 
HETATM    8  C3  UNL     1      22.847  73.989  -1.356  1.00  0.00     0.183 A 
ATOM      9  H2  UNL     1      24.390  73.165  -2.407  1.00  0.00     0.168 HD
HETATM   10  N3  UNL     1      22.311  74.290  -0.160  1.00  0.00    -0.335 N 
HETATM   11  C4  UNL     1      22.976  73.963   0.946  1.00  0.00     0.157 A 
ATOM     12  H3  UNL     1      21.409  74.762  -0.100  1.00  0.00     0.168 HD
HETATM   13  C5  UNL     1      24.212  73.316   0.829  1.00  0.00     0.140 A 
HETATM   14  N6  UNL     1      22.699  74.131   2.258  1.00  0.00    -0.258 N 
HETATM   15  N4  UNL     1      24.614  73.128   2.074  1.00  0.00    -0.279 N 
HETATM   16  N5  UNL     1      23.713  73.612   2.901  1.00  0.00    -0.238 N 
ATOM     17  H4  UNL     1      25.486  72.677   2.351  1.00  0.00     0.189 HD
ATOM     18  H5  UNL     1      23.795  73.587   3.917  1.00  0.00     0.208 HD
BRANCH  14  19
HETATM   19  C6  UNL     1      21.536  74.749   2.848  1.00  0.00     0.179 C 
BRANCH  19  20
HETATM   20  C7  UNL     1      21.604  74.634   4.360  1.00  0.00     0.251 C 
BRANCH  20  21
HETATM   21  N7  UNL     1      21.901  75.956   4.884  1.00  0.00    -0.078 N 
ATOM     22  H73 UNL     1      22.902  76.138   4.962  1.00  0.00     0.274 HD
ATOM     23  H72 UNL     1      21.681  76.703   4.225  1.00  0.00     0.274 HD
ATOM     24  H71 UNL     1      21.409  76.050   5.773  1.00  0.00     0.274 HD
ENDBRANCH  20  21
ENDBRANCH  19  20
ENDBRANCH  14  19
ENDBRANCH   4   6
ENDBRANCH   2   4
BRANCH   2  25
HETATM   25  C8  UNL     1      27.793  73.900  -2.039  1.00  0.00     0.110 A 
HETATM   26  C9  UNL     1      27.400  75.205  -2.242  1.00  0.00     0.074 A 
HETATM   27  C10 UNL     1      27.860  75.638  -3.464  1.00  0.00     0.089 A 
HETATM   28  C11 UNL     1      28.549  74.574  -4.018  1.00  0.00     0.113 A 
HETATM   29  N10 UNL     1      27.771  76.787  -4.147  1.00  0.00    -0.260 N 
HETATM   30  N8  UNL     1      28.487  73.560  -3.141  1.00  0.00    -0.343 N 
HETATM   31  C12 UNL     1      29.139  74.695  -5.263  1.00  0.00     0.203 A 
ATOM     32  H8  UNL     1      28.914  72.645  -3.291  1.00  0.00     0.167 HD
HETATM   33  O2  UNL     1      29.764  73.737  -5.770  1.00  0.00    -0.286 OA
HETATM   34  C13 UNL     1      29.015  75.897  -5.917  1.00  0.00     0.089 A 
HETATM   35  C14 UNL     1      28.336  76.953  -5.375  1.00  0.00     0.093 A 
BRANCH  35  36
HETATM   36  C15 UNL     1      28.242  78.210  -6.128  1.00  0.00     0.369 C 
BRANCH  36  37
HETATM   37  N9  UNL     1      29.504  78.932  -5.933  1.00  0.00    -0.047 N 
ATOM     38  H93 UNL     1      29.891  78.813  -4.997  1.00  0.00     0.277 HD
ATOM     39  H92 UNL     1      30.282  78.522  -6.450  1.00  0.00     0.277 HD
ATOM     40  H91 UNL     1      29.336  79.909  -6.174  1.00  0.00     0.277 HD
ENDBRANCH  36  37
BRANCH  36  41
HETATM   41  O3  UNL     1      28.059  78.026  -7.495  1.00  0.00    -0.365 OA
ATOM     42  H3  UNL     1      27.273  78.442  -7.831  1.00  0.00     0.212 HD
ENDBRANCH  36  41
ENDBRANCH  35  36
BRANCH  29  43
HETATM   43  N11 UNL     1      27.078  77.871  -3.599  1.00  0.00    -0.338 N 
ATOM     44 2H11 UNL     1      26.474  78.409  -4.221  1.00  0.00     0.177 HD
ATOM     45 1H11 UNL     1      27.188  78.097  -2.611  1.00  0.00     0.177 HD
ENDBRANCH  29  43
ENDBRANCH   2  25
TORSDOF 10
ENDMDL
MODEL 4
REMARK VINA RESULT: -8.381450316      3.830      5.409
REMARK  10 active torsions:
REMARK  status: ('A' for Active; 'I' for Inactive)
REMARK    1  A    between atoms: S1_2  and  N1_4 
REMARK    2  A    between atoms: S1_2  and  C8_25 
REMARK    3  A    between atoms: N1_4  and  C2_6 
REMARK    4  A    between atoms: N6_18  and  C6_19 
REMARK    5  A    between atoms: C6_19  and  C7_20 
REMARK    6  A    between atoms: C7_20  and  N7_21 
REMARK    7  A    between atoms: C14_34  and  C15_35 
REMARK    8  A    between atoms: C15_35  and  N9_36 
REMARK    9  A    between atoms: C15_35  and  O3_40 
REMARK   10  A    between atoms: N10_42  and  N11_43 
ROOT
HETATM    1  C1  UNL     1      26.699  75.165  -5.232  1.00  0.00     0.144 C 
HETATM    2  S1  UNL     1      27.445  74.372  -4.035  1.00  0.00     0.070 S 
HETATM    3  O1  UNL     1      28.345  75.486  -3.517  1.00  0.00    -0.243 OA
ENDROOT
BRANCH   2   4
HETATM    4  N1  UNL     1      26.338  73.783  -2.932  1.00  0.00    -0.296 N 
ATOM      5  H1  UNL     1      25.475  73.466  -3.373  1.00  0.00     0.177 HD
BRANCH   4   6
HETATM    6  C2  UNL     1      26.322  73.639  -1.688  1.00  0.00     0.146 A 
HETATM    7  N2  UNL     1      27.537  73.380  -1.106  1.00  0.00    -0.336 N 
HETATM    8  C3  UNL     1      27.669  73.205   0.217  1.00  0.00     0.183 A 
ATOM      9  H2  UNL     1      28.366  73.320  -1.698  1.00  0.00     0.168 HD
HETATM   10  N3  UNL     1      26.621  73.269   1.057  1.00  0.00    -0.335 N 
HETATM   11  C4  UNL     1      25.410  73.517   0.561  1.00  0.00     0.157 A 
ATOM     12  H3  UNL     1      26.751  73.131   2.059  1.00  0.00     0.168 HD
HETATM   13  C5  UNL     1      25.266  73.702  -0.819  1.00  0.00     0.140 A 
HETATM   14  N6  UNL     1      24.196  73.639   1.143  1.00  0.00    -0.258 N 
HETATM   15  N4  UNL     1      23.976  73.925  -0.996  1.00  0.00    -0.279 N 
HETATM   16  N5  UNL     1      23.362  73.884   0.166  1.00  0.00    -0.238 N 
ATOM     17  H4  UNL     1      23.526  74.101  -1.895  1.00  0.00     0.189 HD
ATOM     18  H5  UNL     1      22.360  74.027   0.291  1.00  0.00     0.208 HD
BRANCH  14  19
HETATM   19  C6  UNL     1      23.867  73.525   2.543  1.00  0.00     0.179 C 
BRANCH  19  20
HETATM   20  C7  UNL     1      23.020  74.711   2.969  1.00  0.00     0.251 C 
BRANCH  20  21
HETATM   21  N7  UNL     1      23.899  75.864   3.056  1.00  0.00    -0.078 N 
ATOM     22  H73 UNL     1      24.882  75.626   2.924  1.00  0.00     0.274 HD
ATOM     23  H72 UNL     1      23.807  76.495   2.260  1.00  0.00     0.274 HD
ATOM     24  H71 UNL     1      23.716  76.321   3.950  1.00  0.00     0.274 HD
ENDBRANCH  20  21
ENDBRANCH  19  20
ENDBRANCH  14  19
ENDBRANCH   4   6
ENDBRANCH   2   4
BRANCH   2  25
HETATM   25  C8  UNL     1      28.376  73.062  -4.726  1.00  0.00     0.110 A 
HETATM   26  C9  UNL     1      28.999  73.039  -5.955  1.00  0.00     0.074 A 
HETATM   27  C10 UNL     1      29.628  71.828  -6.128  1.00  0.00     0.089 A 
HETATM   28  C11 UNL     1      29.383  71.096  -4.980  1.00  0.00     0.113 A 
HETATM   29  N10 UNL     1      30.360  71.283  -7.108  1.00  0.00    -0.260 N 
HETATM   30  N8  UNL     1      28.636  71.863  -4.171  1.00  0.00    -0.343 N 
HETATM   31  C12 UNL     1      29.888  69.815  -4.846  1.00  0.00     0.203 A 
ATOM     32  H8  UNL     1      28.307  71.573  -3.250  1.00  0.00     0.167 HD
HETATM   33  O2  UNL     1      29.671  69.148  -3.810  1.00  0.00    -0.286 OA
HETATM   34  C13 UNL     1      30.633  69.309  -5.883  1.00  0.00     0.089 A 
HETATM   35  C14 UNL     1      30.879  70.027  -7.021  1.00  0.00     0.093 A 
BRANCH  35  36
HETATM   36  C15 UNL     1      31.683  69.425  -8.092  1.00  0.00     0.369 C 
BRANCH  36  37
HETATM   37  N9  UNL     1      32.391  68.277  -7.514  1.00  0.00    -0.047 N 
ATOM     38  H93 UNL     1      33.382  68.258  -7.754  1.00  0.00     0.277 HD
ATOM     39  H92 UNL     1      32.501  68.344  -6.503  1.00  0.00     0.277 HD
ATOM     40  H91 UNL     1      31.894  67.435  -7.806  1.00  0.00     0.277 HD
ENDBRANCH  36  37
BRANCH  36  41
HETATM   41  O3  UNL     1      30.925  68.966  -9.164  1.00  0.00    -0.365 OA
ATOM     42  H3  UNL     1      31.277  68.183  -9.570  1.00  0.00     0.212 HD
ENDBRANCH  36  41
ENDBRANCH  35  36
BRANCH  29  43
HETATM   43  N11 UNL     1      30.616  72.011  -8.274  1.00  0.00    -0.338 N 
ATOM     44 2H11 UNL     1      29.963  72.755  -8.521  1.00  0.00     0.177 HD
ATOM     45 1H11 UNL     1      31.434  71.790  -8.843  1.00  0.00     0.177 HD
ENDBRANCH  29  43
ENDBRANCH   2  25
TORSDOF 10
ENDMDL
MODEL 5
REMARK VINA RESULT: -8.380405016      4.263      8.173
REMARK  10 active torsions:
REMARK  status: ('A' for Active; 'I' for Inactive)
REMARK    1  A    between atoms: S1_2  and  N1_4 
REMARK    2  A    between atoms: S1_2  and  C8_25 
REMARK    3  A    between atoms: N1_4  and  C2_6 
REMARK    4  A    between atoms: N6_18  and  C6_19 
REMARK    5  A    between atoms: C6_19  and  C7_20 
REMARK    6  A    between atoms: C7_20  and  N7_21 
REMARK    7  A    between atoms: C14_34  and  C15_35 
REMARK    8  A    between atoms: C15_35  and  N9_36 
REMARK    9  A    between atoms: C15_35  and  O3_40 
REMARK   10  A    between atoms: N10_42  and  N11_43 
ROOT
HETATM    1  C1  UNL     1      24.238  74.397  -4.699  1.00  0.00     0.144 C 
HETATM    2  S1  UNL     1      25.788  73.996  -4.928  1.00  0.00     0.070 S 
HETATM    3  O1  UNL     1      25.617  72.528  -5.297  1.00  0.00    -0.243 OA
ENDROOT
BRANCH   2   4
HETATM    4  N1  UNL     1      26.482  74.949  -6.111  1.00  0.00    -0.296 N 
ATOM      5  H1  UNL     1      25.976  74.903  -6.996  1.00  0.00     0.177 HD
BRANCH   4   6
HETATM    6  C2  UNL     1      27.478  75.706  -6.165  1.00  0.00     0.146 A 
HETATM    7  N2  UNL     1      28.575  75.194  -6.809  1.00  0.00    -0.336 N 
HETATM    8  C3  UNL     1      29.712  75.893  -6.942  1.00  0.00     0.183 A 
ATOM      9  H2  UNL     1      28.526  74.253  -7.199  1.00  0.00     0.168 HD
HETATM   10  N3  UNL     1      29.849  77.138  -6.453  1.00  0.00    -0.335 N 
HETATM   11  C4  UNL     1      28.823  77.698  -5.815  1.00  0.00     0.157 A 
ATOM     12  H3  UNL     1      30.726  77.646  -6.568  1.00  0.00     0.168 HD
HETATM   13  C5  UNL     1      27.634  76.973  -5.673  1.00  0.00     0.140 A 
HETATM   14  N6  UNL     1      28.665  78.906  -5.229  1.00  0.00    -0.258 N 
HETATM   15  N4  UNL     1      26.824  77.780  -5.011  1.00  0.00    -0.279 N 
HETATM   16  N5  UNL     1      27.445  78.911  -4.758  1.00  0.00    -0.238 N 
ATOM     17  H4  UNL     1      25.865  77.561  -4.739  1.00  0.00     0.189 HD
ATOM     18  H5  UNL     1      27.028  79.696  -4.257  1.00  0.00     0.208 HD
BRANCH  14  19
HETATM   19  C6  UNL     1      29.627  79.978  -5.132  1.00  0.00     0.179 C 
BRANCH  19  20
HETATM   20  C7  UNL     1      29.883  80.564  -6.508  1.00  0.00     0.251 C 
BRANCH  20  21
HETATM   21  N7  UNL     1      31.313  80.492  -6.752  1.00  0.00    -0.078 N 
ATOM     22  H73 UNL     1      31.778  81.396  -6.665  1.00  0.00     0.274 HD
ATOM     23  H72 UNL     1      31.820  80.011  -6.009  1.00  0.00     0.274 HD
ATOM     24  H71 UNL     1      31.446  80.063  -7.668  1.00  0.00     0.274 HD
ENDBRANCH  20  21
ENDBRANCH  19  20
ENDBRANCH  14  19
ENDBRANCH   4   6
ENDBRANCH   2   4
BRANCH   2  25
HETATM   25  C8  UNL     1      26.644  74.182  -3.414  1.00  0.00     0.110 A 
HETATM   26  C9  UNL     1      27.408  73.236  -2.766  1.00  0.00     0.074 A 
HETATM   27  C10 UNL     1      27.913  73.771  -1.604  1.00  0.00     0.089 A 
HETATM   28  C11 UNL     1      27.447  75.072  -1.541  1.00  0.00     0.113 A 
HETATM   29  N10 UNL     1      28.695  73.308  -0.620  1.00  0.00    -0.260 N 
HETATM   30  N8  UNL     1      26.697  75.279  -2.634  1.00  0.00    -0.343 N 
HETATM   31  C12 UNL     1      27.785  75.885  -0.474  1.00  0.00     0.203 A 
ATOM     32  H8  UNL     1      26.226  76.159  -2.848  1.00  0.00     0.167 HD
HETATM   33  O2  UNL     1      27.367  77.064  -0.412  1.00  0.00    -0.286 OA
HETATM   34  C13 UNL     1      28.590  75.357   0.505  1.00  0.00     0.089 A 
HETATM   35  C14 UNL     1      29.055  74.071   0.449  1.00  0.00     0.093 A 
BRANCH  35  36
HETATM   36  C15 UNL     1      29.912  73.569   1.530  1.00  0.00     0.369 C 
BRANCH  36  37
HETATM   37  N9  UNL     1      30.052  74.649   2.514  1.00  0.00    -0.047 N 
ATOM     38  H93 UNL     1      31.021  74.931   2.661  1.00  0.00     0.277 HD
ATOM     39  H92 UNL     1      29.703  75.545   2.175  1.00  0.00     0.277 HD
ATOM     40  H91 UNL     1      29.593  74.340   3.371  1.00  0.00     0.277 HD
ENDBRANCH  36  37
BRANCH  36  41
HETATM   41  O3  UNL     1      29.388  72.458   2.183  1.00  0.00    -0.365 OA
ATOM     42  H3  UNL     1      29.819  72.266   3.008  1.00  0.00     0.212 HD
ENDBRANCH  36  41
ENDBRANCH  35  36
BRANCH  29  43
HETATM   43  N11 UNL     1      29.174  71.995  -0.670  1.00  0.00    -0.338 N 
ATOM     44 2H11 UNL     1      29.599  71.680  -1.542  1.00  0.00     0.177 HD
ATOM     45 1H11 UNL     1      29.090  71.392   0.149  1.00  0.00     0.177 HD
ENDBRANCH  29  43
ENDBRANCH   2  25
TORSDOF 10
ENDMDL
