MODEL 1
REMARK VINA RESULT: -9.404009675      0.000      0.000
REMARK  6 active torsions:
REMARK  status: ('A' for Active; 'I' for Inactive)
REMARK    1  A    between atoms: C2_2  and  N1_3 
REMARK    2  A    between atoms: C3_4  and  S1_5 
REMARK    3  A    between atoms: S1_5  and  C4_6 
REMARK    4  A    between atoms: C4_6  and  C5_7 
REMARK       I    between atoms: C5_7  and  N2_9 
REMARK    5  A    between atoms: C10_21  and  N6_22 
REMARK    6  A    between atoms: C12_33  and  C13_34 
ROOT
HETATM    1  C5  UNL     1      28.221  73.265  -6.789  1.00  0.00     0.233 C 
HETATM    2  O1  UNL     1      27.101  73.145  -7.342  1.00  0.00    -0.272 OA
HETATM    3  N2  UNL     1      29.230  72.348  -7.221  1.00  0.00    -0.311 N 
ATOM      4  H2  UNL     1      29.696  72.520  -8.112  1.00  0.00     0.170 HD
HETATM    5  C6  UNL     1      29.575  71.322  -6.541  1.00  0.00     0.135 C 
HETATM    6  N3  UNL     1      28.935  71.070  -5.297  1.00  0.00    -0.358 N 
ATOM      7  H3  UNL     1      28.089  71.585  -5.055  1.00  0.00     0.162 HD
HETATM    8  C7  UNL     1      29.468  70.093  -4.368  1.00  0.00     0.245 C 
HETATM    9  N4  UNL     1      30.283  69.113  -5.025  1.00  0.00    -0.367 N 
ATOM     10  H4  UNL     1      30.395  68.204  -4.577  1.00  0.00     0.161 HD
HETATM   11  C8  UNL     1      30.946  69.337  -6.269  1.00  0.00     0.130 A 
HETATM   12  C9  UNL     1      30.606  70.425  -7.029  1.00  0.00     0.125 A 
HETATM   13  N5  UNL     1      31.234  70.641  -8.212  1.00  0.00    -0.186 N 
ATOM     14  H5  UNL     1      30.980  71.452  -8.777  1.00  0.00     0.184 HD
HETATM   15  C10 UNL     1      32.185  69.800  -8.649  1.00  0.00     0.679 A 
HETATM   16  N7  UNL     1      32.515  68.735  -7.900  1.00  0.00    -0.154 N 
ATOM     17  H7  UNL     1      33.240  68.102  -8.239  1.00  0.00     0.187 HD
HETATM   18  C11 UNL     1      31.929  68.476  -6.728  1.00  0.00     0.288 A 
HETATM   19  O2  UNL     1      32.222  67.479  -6.005  1.00  0.00    -0.265 OA
ENDROOT
BRANCH   1  20
HETATM   20  C4  UNL     1      28.458  74.290  -5.763  1.00  0.00     0.185 C 
BRANCH  20  21
HETATM   21  S1  UNL     1      27.163  74.154  -4.504  1.00  0.00    -0.083 SA
BRANCH  21  22
HETATM   22  C3  UNL     1      27.810  74.052  -2.864  1.00  0.00     0.164 A 
HETATM   23  N1  UNL     1      27.410  74.947  -1.952  1.00  0.00    -0.292 N 
HETATM   24  C16 UNL     1      27.933  74.828  -0.705  1.00  0.00     0.281 A 
HETATM   25  C12 UNL     1      28.832  73.830  -0.407  1.00  0.00     0.160 A 
HETATM   26  O3  UNL     1      27.571  75.655   0.159  1.00  0.00    -0.265 OA
HETATM   27  N9  UNL     1      29.204  72.952  -1.368  1.00  0.00    -0.290 N 
HETATM   28  N8  UNL     1      28.699  73.070  -2.562  1.00  0.00    -0.279 N 
ATOM     29  H9  UNL     1      29.870  72.209  -1.160  1.00  0.00     0.187 HD
ATOM     30  H8  UNL     1      28.976  72.409  -3.288  1.00  0.00     0.189 HD
BRANCH  23  31
HETATM   31  C2  UNL     1      26.473  75.959  -2.326  1.00  0.00     0.130 C 
HETATM   32  C1  UNL     1      27.120  77.262  -2.731  1.00  0.00     0.027 C 
ENDBRANCH  23  31
BRANCH  25  33
HETATM   33  C13 UNL     1      29.423  73.681   0.941  1.00  0.00     0.131 C 
HETATM   34  N10 UNL     1      29.889  72.569   1.405  1.00  0.00    -0.373 N 
HETATM   35  C14 UNL     1      30.404  72.732   2.755  1.00  0.00     0.141 C 
ATOM     36  H10 UNL     1      29.894  71.688   0.891  1.00  0.00     0.161 HD
HETATM   37  C15 UNL     1      30.620  74.235   2.821  1.00  0.00     0.141 C 
HETATM   38  N11 UNL     1      29.566  74.688   1.931  1.00  0.00    -0.373 N 
ATOM     39  H11 UNL     1      29.034  75.555   2.003  1.00  0.00     0.161 HD
ENDBRANCH  25  33
ENDBRANCH  21  22
ENDBRANCH  20  21
ENDBRANCH   1  20
BRANCH  15  40
HETATM   40  N6  UNL     1      32.784  70.013  -9.785  1.00  0.00    -0.234 N 
ATOM     41  H62 UNL     1      32.564  70.845 -10.334  1.00  0.00     0.174 HD
ATOM     42  H61 UNL     1      33.476  69.352 -10.138  1.00  0.00     0.174 HD
ENDBRANCH  15  40
TORSDOF 6
ENDMDL
MODEL 2
REMARK VINA RESULT: -9.241800237      4.629      9.280
REMARK  6 active torsions:
REMARK  status: ('A' for Active; 'I' for Inactive)
REMARK    1  A    between atoms: C2_2  and  N1_3 
REMARK    2  A    between atoms: C3_4  and  S1_5 
REMARK    3  A    between atoms: S1_5  and  C4_6 
REMARK    4  A    between atoms: C4_6  and  C5_7 
REMARK       I    between atoms: C5_7  and  N2_9 
REMARK    5  A    between atoms: C10_21  and  N6_22 
REMARK    6  A    between atoms: C12_33  and  C13_34 
ROOT
HETATM    1  C5  UNL     1      27.828  72.951  -0.692  1.00  0.00     0.233 C 
HETATM    2  O1  UNL     1      28.291  71.785  -0.646  1.00  0.00    -0.272 OA
HETATM    3  N2  UNL     1      26.662  73.190   0.101  1.00  0.00    -0.311 N 
ATOM      4  H2  UNL     1      26.775  73.318   1.107  1.00  0.00     0.170 HD
HETATM    5  C6  UNL     1      25.485  73.252  -0.393  1.00  0.00     0.135 C 
HETATM    6  N3  UNL     1      25.313  73.077  -1.793  1.00  0.00    -0.358 N 
ATOM      7  H3  UNL     1      26.085  72.715  -2.352  1.00  0.00     0.162 HD
HETATM    8  C7  UNL     1      24.055  73.404  -2.437  1.00  0.00     0.245 C 
HETATM    9  N4  UNL     1      22.955  73.376  -1.518  1.00  0.00    -0.367 N 
ATOM     10  H4  UNL     1      22.020  73.216  -1.893  1.00  0.00     0.161 HD
HETATM   11  C8  UNL     1      23.093  73.557  -0.108  1.00  0.00     0.130 A 
HETATM   12  C9  UNL     1      24.337  73.497   0.461  1.00  0.00     0.125 A 
HETATM   13  N5  UNL     1      24.472  73.668   1.801  1.00  0.00    -0.186 N 
ATOM     14  H5  UNL     1      25.400  73.625   2.224  1.00  0.00     0.184 HD
HETATM   15  C10 UNL     1      23.400  73.894   2.576  1.00  0.00     0.679 A 
HETATM   16  N7  UNL     1      22.182  73.951   2.013  1.00  0.00    -0.154 N 
ATOM     17  H7  UNL     1      21.372  74.124   2.609  1.00  0.00     0.187 HD
HETATM   18  C11 UNL     1      21.993  73.790   0.700  1.00  0.00     0.288 A 
HETATM   19  O2  UNL     1      20.855  73.839   0.146  1.00  0.00    -0.265 OA
ENDROOT
BRANCH   1  20
HETATM   20  C4  UNL     1      28.460  73.988  -1.519  1.00  0.00     0.185 C 
BRANCH  20  21
HETATM   21  S1  UNL     1      28.201  73.573  -3.262  1.00  0.00    -0.083 SA
BRANCH  21  22
HETATM   22  C3  UNL     1      28.461  74.948  -4.340  1.00  0.00     0.164 A 
HETATM   23  N1  UNL     1      27.626  75.992  -4.272  1.00  0.00    -0.292 N 
HETATM   24  C16 UNL     1      27.866  77.026  -5.119  1.00  0.00     0.281 A 
HETATM   25  C12 UNL     1      28.922  76.988  -6.000  1.00  0.00     0.160 A 
HETATM   26  O3  UNL     1      27.096  78.009  -5.069  1.00  0.00    -0.265 OA
HETATM   27  N9  UNL     1      29.735  75.906  -6.027  1.00  0.00    -0.290 N 
HETATM   28  N8  UNL     1      29.501  74.918  -5.213  1.00  0.00    -0.279 N 
ATOM     29  H9  UNL     1      30.520  75.866  -6.677  1.00  0.00     0.187 HD
ATOM     30  H8  UNL     1      30.113  74.103  -5.231  1.00  0.00     0.189 HD
BRANCH  23  31
HETATM   31  C2  UNL     1      26.548  75.969  -3.333  1.00  0.00     0.130 C 
HETATM   32  C1  UNL     1      26.762  76.875  -2.145  1.00  0.00     0.027 C 
ENDBRANCH  23  31
BRANCH  25  33
HETATM   33  C13 UNL     1      29.203  78.097  -6.937  1.00  0.00     0.131 C 
HETATM   34  N10 UNL     1      28.520  78.325  -8.011  1.00  0.00    -0.373 N 
HETATM   35  C14 UNL     1      29.031  79.482  -8.728  1.00  0.00     0.141 C 
ATOM     36  H10 UNL     1      27.724  77.765  -8.315  1.00  0.00     0.161 HD
HETATM   37  C15 UNL     1      29.816  80.196  -7.641  1.00  0.00     0.141 C 
HETATM   38  N11 UNL     1      30.240  79.061  -6.840  1.00  0.00    -0.373 N 
ATOM     39  H11 UNL     1      31.108  78.975  -6.312  1.00  0.00     0.161 HD
ENDBRANCH  25  33
ENDBRANCH  21  22
ENDBRANCH  20  21
ENDBRANCH   1  20
BRANCH  15  40
HETATM   40  N6  UNL     1      23.536  74.058   3.861  1.00  0.00    -0.234 N 
ATOM     41  H62 UNL     1      23.300  74.951   4.292  1.00  0.00     0.174 HD
ATOM     42  H61 UNL     1      23.880  73.296   4.446  1.00  0.00     0.174 HD
ENDBRANCH  15  40
TORSDOF 6
ENDMDL
MODEL 3
REMARK VINA RESULT: -9.106782543      5.214      7.299
REMARK  6 active torsions:
REMARK  status: ('A' for Active; 'I' for Inactive)
REMARK    1  A    between atoms: C2_2  and  N1_3 
REMARK    2  A    between atoms: C3_4  and  S1_5 
REMARK    3  A    between atoms: S1_5  and  C4_6 
REMARK    4  A    between atoms: C4_6  and  C5_7 
REMARK       I    between atoms: C5_7  and  N2_9 
REMARK    5  A    between atoms: C10_21  and  N6_22 
REMARK    6  A    between atoms: C12_33  and  C13_34 
ROOT
HETATM    1  C5  UNL     1      26.779  74.499  -1.955  1.00  0.00     0.233 C 
HETATM    2  O1  UNL     1      27.474  74.341  -0.921  1.00  0.00    -0.272 OA
HETATM    3  N2  UNL     1      27.505  74.602  -3.184  1.00  0.00    -0.311 N 
ATOM      4  H2  UNL     1      27.869  73.748  -3.607  1.00  0.00     0.170 HD
HETATM    5  C6  UNL     1      27.717  75.714  -3.775  1.00  0.00     0.135 C 
HETATM    6  N3  UNL     1      27.214  76.912  -3.197  1.00  0.00    -0.358 N 
ATOM      7  H3  UNL     1      26.868  76.899  -2.238  1.00  0.00     0.162 HD
HETATM    8  C7  UNL     1      27.187  78.151  -3.950  1.00  0.00     0.245 C 
HETATM    9  N4  UNL     1      28.148  78.156  -5.014  1.00  0.00    -0.367 N 
ATOM     10  H4  UNL     1      28.481  79.057  -5.356  1.00  0.00     0.161 HD
HETATM   11  C8  UNL     1      28.666  76.973  -5.622  1.00  0.00     0.130 A 
HETATM   12  C9  UNL     1      28.461  75.759  -5.020  1.00  0.00     0.125 A 
HETATM   13  N5  UNL     1      28.952  74.632  -5.595  1.00  0.00    -0.186 N 
ATOM     14  H5  UNL     1      28.799  73.729  -5.146  1.00  0.00     0.184 HD
HETATM   15  C10 UNL     1      29.639  74.692  -6.747  1.00  0.00     0.679 A 
HETATM   16  N7  UNL     1      29.837  75.884  -7.333  1.00  0.00    -0.154 N 
ATOM     17  H7  UNL     1      30.359  75.920  -8.209  1.00  0.00     0.187 HD
HETATM   18  C11 UNL     1      29.376  77.023  -6.811  1.00  0.00     0.288 A 
HETATM   19  O2  UNL     1      29.550  78.159  -7.344  1.00  0.00    -0.265 OA
ENDROOT
BRANCH   1  20
HETATM   20  C4  UNL     1      25.314  74.573  -1.883  1.00  0.00     0.185 C 
BRANCH  20  21
HETATM   21  S1  UNL     1      24.715  73.184  -0.887  1.00  0.00    -0.083 SA
BRANCH  21  22
HETATM   22  C3  UNL     1      23.760  73.703   0.506  1.00  0.00     0.164 A 
HETATM   23  N1  UNL     1      22.436  73.844   0.367  1.00  0.00    -0.292 N 
HETATM   24  C16 UNL     1      21.743  74.244   1.465  1.00  0.00     0.281 A 
HETATM   25  C12 UNL     1      22.385  74.488   2.656  1.00  0.00     0.160 A 
HETATM   26  O3  UNL     1      20.506  74.381   1.354  1.00  0.00    -0.265 OA
HETATM   27  N9  UNL     1      23.728  74.330   2.740  1.00  0.00    -0.290 N 
HETATM   28  N8  UNL     1      24.387  73.947   1.686  1.00  0.00    -0.279 N 
ATOM     29  H9  UNL     1      24.216  74.510   3.618  1.00  0.00     0.187 HD
ATOM     30  H8  UNL     1      25.398  73.826   1.747  1.00  0.00     0.189 HD
BRANCH  23  31
HETATM   31  C2  UNL     1      21.829  73.574  -0.898  1.00  0.00     0.130 C 
HETATM   32  C1  UNL     1      21.555  74.814  -1.715  1.00  0.00     0.027 C 
ENDBRANCH  23  31
BRANCH  25  33
HETATM   33  C13 UNL     1      21.658  74.930   3.866  1.00  0.00     0.131 C 
HETATM   34  N10 UNL     1      21.944  76.001   4.529  1.00  0.00    -0.373 N 
HETATM   35  C14 UNL     1      21.057  76.173   5.667  1.00  0.00     0.141 C 
ATOM     36  H10 UNL     1      22.698  76.644   4.285  1.00  0.00     0.161 HD
HETATM   37  C15 UNL     1      19.882  75.292   5.277  1.00  0.00     0.141 C 
HETATM   38  N11 UNL     1      20.568  74.276   4.498  1.00  0.00    -0.373 N 
ATOM     39  H11 UNL     1      20.317  73.291   4.421  1.00  0.00     0.161 HD
ENDBRANCH  25  33
ENDBRANCH  21  22
ENDBRANCH  20  21
ENDBRANCH   1  20
BRANCH  15  40
HETATM   40  N6  UNL     1      30.108  73.607  -7.294  1.00  0.00    -0.234 N 
ATOM     41  H62 UNL     1      29.480  72.838  -7.529  1.00  0.00     0.174 HD
ATOM     42  H61 UNL     1      31.105  73.515  -7.489  1.00  0.00     0.174 HD
ENDBRANCH  15  40
TORSDOF 6
ENDMDL
MODEL 4
REMARK VINA RESULT: -9.104152338      3.119      5.240
REMARK  6 active torsions:
REMARK  status: ('A' for Active; 'I' for Inactive)
REMARK    1  A    between atoms: C2_2  and  N1_3 
REMARK    2  A    between atoms: C3_4  and  S1_5 
REMARK    3  A    between atoms: S1_5  and  C4_6 
REMARK    4  A    between atoms: C4_6  and  C5_7 
REMARK       I    between atoms: C5_7  and  N2_9 
REMARK    5  A    between atoms: C10_21  and  N6_22 
REMARK    6  A    between atoms: C12_33  and  C13_34 
ROOT
HETATM    1  C5  UNL     1      28.647  71.670  -4.836  1.00  0.00     0.233 C 
HETATM    2  O1  UNL     1      29.131  72.282  -3.851  1.00  0.00    -0.272 OA
HETATM    3  N2  UNL     1      29.513  70.724  -5.469  1.00  0.00    -0.311 N 
ATOM      4  H2  UNL     1      29.651  69.817  -5.024  1.00  0.00     0.170 HD
HETATM    5  C6  UNL     1      30.121  70.964  -6.567  1.00  0.00     0.135 C 
HETATM    6  N3  UNL     1      29.937  72.225  -7.198  1.00  0.00    -0.358 N 
ATOM      7  H3  UNL     1      29.490  72.983  -6.684  1.00  0.00     0.162 HD
HETATM    8  C7  UNL     1      30.376  72.448  -8.562  1.00  0.00     0.245 C 
HETATM    9  N4  UNL     1      31.415  71.539  -8.949  1.00  0.00    -0.367 N 
ATOM     10  H4  UNL     1      32.044  71.820  -9.701  1.00  0.00     0.161 HD
HETATM   11  C8  UNL     1      31.622  70.263  -8.342  1.00  0.00     0.130 A 
HETATM   12  C9  UNL     1      30.989  69.967  -7.164  1.00  0.00     0.125 A 
HETATM   13  N5  UNL     1      31.183  68.755  -6.583  1.00  0.00    -0.186 N 
ATOM     14  H5  UNL     1      30.711  68.535  -5.706  1.00  0.00     0.184 HD
HETATM   15  C10 UNL     1      31.990  67.843  -7.149  1.00  0.00     0.679 A 
HETATM   16  N7  UNL     1      32.608  68.139  -8.304  1.00  0.00    -0.154 N 
ATOM     17  H7  UNL     1      33.219  67.441  -8.728  1.00  0.00     0.187 HD
HETATM   18  C11 UNL     1      32.452  69.316  -8.917  1.00  0.00     0.288 A 
HETATM   19  O2  UNL     1      33.024  69.619 -10.006  1.00  0.00    -0.265 OA
ENDROOT
BRANCH   1  20
HETATM   20  C4  UNL     1      27.274  71.929  -5.292  1.00  0.00     0.185 C 
BRANCH  20  21
HETATM   21  S1  UNL     1      26.604  73.318  -4.343  1.00  0.00    -0.083 SA
BRANCH  21  22
HETATM   22  C3  UNL     1      27.289  74.873  -4.828  1.00  0.00     0.164 A 
HETATM   23  N1  UNL     1      27.223  75.903  -3.976  1.00  0.00    -0.292 N 
HETATM   24  C16 UNL     1      27.763  77.078  -4.392  1.00  0.00     0.281 A 
HETATM   25  C12 UNL     1      28.348  77.188  -5.632  1.00  0.00     0.160 A 
HETATM   26  O3  UNL     1      27.710  78.052  -3.609  1.00  0.00    -0.265 OA
HETATM   27  N9  UNL     1      28.386  76.113  -6.454  1.00  0.00    -0.290 N 
HETATM   28  N8  UNL     1      27.868  74.990  -6.051  1.00  0.00    -0.279 N 
ATOM     29  H9  UNL     1      28.816  76.182  -7.377  1.00  0.00     0.187 HD
ATOM     30  H8  UNL     1      27.896  74.178  -6.668  1.00  0.00     0.189 HD
BRANCH  23  31
HETATM   31  C2  UNL     1      26.602  75.723  -2.702  1.00  0.00     0.130 C 
HETATM   32  C1  UNL     1      27.585  75.515  -1.574  1.00  0.00     0.027 C 
ENDBRANCH  23  31
BRANCH  25  33
HETATM   33  C13 UNL     1      28.939  78.456  -6.113  1.00  0.00     0.131 C 
HETATM   34  N10 UNL     1      29.489  79.334  -5.340  1.00  0.00    -0.373 N 
HETATM   35  C14 UNL     1      29.979  80.474  -6.099  1.00  0.00     0.141 C 
ATOM     36  H10 UNL     1      29.569  79.240  -4.328  1.00  0.00     0.161 HD
HETATM   37  C15 UNL     1      30.073  79.893  -7.500  1.00  0.00     0.141 C 
HETATM   38  N11 UNL     1      28.992  78.924  -7.451  1.00  0.00    -0.373 N 
ATOM     39  H11 UNL     1      28.392  78.638  -8.225  1.00  0.00     0.161 HD
ENDBRANCH  25  33
ENDBRANCH  21  22
ENDBRANCH  20  21
ENDBRANCH   1  20
BRANCH  15  40
HETATM   40  N6  UNL     1      32.172  66.683  -6.587  1.00  0.00    -0.234 N 
ATOM     41  H62 UNL     1      31.718  66.465  -5.700  1.00  0.00     0.174 HD
ATOM     42  H61 UNL     1      32.770  65.983  -7.027  1.00  0.00     0.174 HD
ENDBRANCH  15  40
TORSDOF 6
ENDMDL
MODEL 5
REMARK VINA RESULT: -9.048861716      5.291      6.935
REMARK  6 active torsions:
REMARK  status: ('A' for Active; 'I' for Inactive)
REMARK    1  A    between atoms: C2_2  and  N1_3 
REMARK    2  A    between atoms: C3_4  and  S1_5 
REMARK    3  A    between atoms: S1_5  and  C4_6 
REMARK    4  A    between atoms: C4_6  and  C5_7 
REMARK       I    between atoms: C5_7  and  N2_9 
REMARK    5  A    between atoms: C10_21  and  N6_22 
REMARK    6  A    between atoms: C12_33  and  C13_34 
ROOT
HETATM    1  C5  UNL     1      25.695  74.909  -2.605  1.00  0.00     0.233 C 
HETATM    2  O1  UNL     1      24.508  74.839  -3.009  1.00  0.00    -0.272 OA
HETATM    3  N2  UNL     1      26.626  75.513  -3.508  1.00  0.00    -0.311 N 
ATOM      4  H2  UNL     1      26.635  76.530  -3.589  1.00  0.00     0.170 HD
HETATM    5  C6  UNL     1      27.446  74.837  -4.218  1.00  0.00     0.135 C 
HETATM    6  N3  UNL     1      27.444  73.419  -4.114  1.00  0.00    -0.358 N 
ATOM      7  H3  UNL     1      26.674  72.952  -3.636  1.00  0.00     0.162 HD
HETATM    8  C7  UNL     1      28.520  72.628  -4.680  1.00  0.00     0.245 C 
HETATM    9  N4  UNL     1      29.202  73.320  -5.733  1.00  0.00    -0.367 N 
ATOM     10  H4  UNL     1      29.695  72.765  -6.432  1.00  0.00     0.161 HD
HETATM   11  C8  UNL     1      29.231  74.742  -5.861  1.00  0.00     0.130 A 
HETATM   12  C9  UNL     1      28.368  75.503  -5.118  1.00  0.00     0.125 A 
HETATM   13  N5  UNL     1      28.392  76.856  -5.237  1.00  0.00    -0.186 N 
ATOM     14  H5  UNL     1      27.749  77.422  -4.683  1.00  0.00     0.184 HD
HETATM   15  C10 UNL     1      29.251  77.456  -6.075  1.00  0.00     0.679 A 
HETATM   16  N7  UNL     1      30.095  76.705  -6.801  1.00  0.00    -0.154 N 
ATOM     17  H7  UNL     1      30.746  77.169  -7.435  1.00  0.00     0.187 HD
HETATM   18  C11 UNL     1      30.114  75.372  -6.723  1.00  0.00     0.288 A 
HETATM   19  O2  UNL     1      30.899  74.641  -7.397  1.00  0.00    -0.265 OA
ENDROOT
BRANCH   1  20
HETATM   20  C4  UNL     1      26.082  74.393  -1.285  1.00  0.00     0.185 C 
BRANCH  20  21
HETATM   21  S1  UNL     1      24.870  73.147  -0.776  1.00  0.00    -0.083 SA
BRANCH  21  22
HETATM   22  C3  UNL     1      23.885  73.670   0.594  1.00  0.00     0.164 A 
HETATM   23  N1  UNL     1      22.563  73.804   0.427  1.00  0.00    -0.292 N 
HETATM   24  C16 UNL     1      21.846  74.208   1.509  1.00  0.00     0.281 A 
HETATM   25  C12 UNL     1      22.463  74.463   2.711  1.00  0.00     0.160 A 
HETATM   26  O3  UNL     1      20.611  74.338   1.372  1.00  0.00    -0.265 OA
HETATM   27  N9  UNL     1      23.804  74.313   2.823  1.00  0.00    -0.290 N 
HETATM   28  N8  UNL     1      24.487  73.926   1.785  1.00  0.00    -0.279 N 
ATOM     29  H9  UNL     1      24.274  74.501   3.709  1.00  0.00     0.187 HD
ATOM     30  H8  UNL     1      25.497  73.810   1.867  1.00  0.00     0.189 HD
BRANCH  23  31
HETATM   31  C2  UNL     1      21.984  73.522  -0.848  1.00  0.00     0.130 C 
HETATM   32  C1  UNL     1      21.486  74.751  -1.571  1.00  0.00     0.027 C 
ENDBRANCH  23  31
BRANCH  25  33
HETATM   33  C13 UNL     1      21.709  74.910   3.902  1.00  0.00     0.131 C 
HETATM   34  N10 UNL     1      21.959  76.002   4.547  1.00  0.00    -0.373 N 
HETATM   35  C14 UNL     1      21.053  76.173   5.670  1.00  0.00     0.141 C 
ATOM     36  H10 UNL     1      22.697  76.660   4.298  1.00  0.00     0.161 HD
HETATM   37  C15 UNL     1      19.907  75.252   5.285  1.00  0.00     0.141 C 
HETATM   38  N11 UNL     1      20.630  74.240   4.536  1.00  0.00    -0.373 N 
ATOM     39  H11 UNL     1      20.407  73.246   4.476  1.00  0.00     0.161 HD
ENDBRANCH  25  33
ENDBRANCH  21  22
ENDBRANCH  20  21
ENDBRANCH   1  20
BRANCH  15  40
HETATM   40  N6  UNL     1      29.270  78.754  -6.185  1.00  0.00    -0.234 N 
ATOM     41  H62 UNL     1      29.731  79.323  -5.474  1.00  0.00     0.174 HD
ATOM     42  H61 UNL     1      28.823  79.212  -6.979  1.00  0.00     0.174 HD
ENDBRANCH  15  40
TORSDOF 6
ENDMDL
