MODEL 1
REMARK VINA RESULT: -9.544277758      0.000      0.000
REMARK  8 active torsions:
REMARK  status: ('A' for Active; 'I' for Inactive)
REMARK    1  A    between atoms: C2_3  and  N2_4 
REMARK    2  A    between atoms: C5_14  and  N5_15 
REMARK    3  A    between atoms: C7_17  and  C8_18 
REMARK    4  A    between atoms: C8_18  and  N6_19 
REMARK    5  A    between atoms: N6_19  and  C9_21 
REMARK    6  A    between atoms: C9_21  and  C12_24 
REMARK    7  A    between atoms: C14_28  and  S1_29 
REMARK    8  A    between atoms: S1_29  and  N8_30 
ROOT
HETATM    1  N5  UNL     1      29.500  71.165  -4.170  1.00  0.00    -0.081 N 
HETATM    2  C6  UNL     1      29.861  71.294  -5.452  1.00  0.00     0.164 A 
HETATM    3  C7  UNL     1      30.180  70.017  -5.955  1.00  0.00     0.062 A 
HETATM    4  N10 UNL     1      29.993  69.196  -4.920  1.00  0.00    -0.287 N 
ATOM      5  H10 UNL     1      30.139  68.187  -4.941  1.00  0.00     0.188 HD
HETATM    6  N11 UNL     1      29.584  69.889  -3.847  1.00  0.00    -0.222 N 
ATOM      7  H11 UNL     1      29.373  69.495  -2.931  1.00  0.00     0.209 HD
ENDROOT
BRANCH   3   8
HETATM    8  C8  UNL     1      30.555  69.781  -7.371  1.00  0.00     0.175 C 
BRANCH   8   9
HETATM    9  N6  UNL     1      31.927  69.434  -7.458  1.00  0.00    -0.402 N 
ATOM     10  H6  UNL     1      32.666  70.125  -7.328  1.00  0.00     0.154 HD
BRANCH   9  11
HETATM   11  C9  UNL     1      32.214  68.078  -7.735  1.00  0.00     0.077 C 
HETATM   12  C10 UNL     1      30.925  67.384  -8.175  1.00  0.00     0.046 C 
HETATM   13  C11 UNL     1      32.628  67.319  -6.459  1.00  0.00     0.046 C 
BRANCH  11  14
HETATM   14  C12 UNL     1      33.273  67.789  -8.714  1.00  0.00     0.110 A 
HETATM   15  N7  UNL     1      34.594  68.071  -8.652  1.00  0.00    -0.351 N 
HETATM   16  C13 UNL     1      35.258  67.590  -9.685  1.00  0.00     0.133 A 
ATOM     17  H7  UNL     1      35.028  68.597  -7.893  1.00  0.00     0.166 HD
HETATM   18  C14 UNL     1      34.324  66.959 -10.465  1.00  0.00     0.165 A 
HETATM   19  N9  UNL     1      33.145  67.088  -9.875  1.00  0.00    -0.332 N 
ATOM     20  H9  UNL     1      32.267  66.716 -10.238  1.00  0.00     0.168 HD
BRANCH  18  21
HETATM   21  S1  UNL     1      34.755  66.090 -11.918  1.00  0.00     0.273 S 
HETATM   22  O2  UNL     1      33.653  66.425 -12.931  1.00  0.00    -0.199 OA
HETATM   23  O3  UNL     1      34.732  64.610 -11.653  1.00  0.00    -0.199 OA
BRANCH  21  24
HETATM   24  N8  UNL     1      36.266  66.608 -12.587  1.00  0.00    -0.323 N 
ATOM     25  H82 UNL     1      36.892  67.252 -12.103  1.00  0.00     0.169 HD
ATOM     26  H81 UNL     1      36.454  66.200 -13.503  1.00  0.00     0.169 HD
ENDBRANCH  21  24
ENDBRANCH  18  21
ENDBRANCH  11  14
ENDBRANCH   9  11
ENDBRANCH   8   9
ENDBRANCH   3   8
BRANCH   1  27
HETATM   27  C5  UNL     1      29.024  72.236  -3.352  1.00  0.00     0.706 A 
HETATM   28  N4  UNL     1      29.285  72.352  -2.020  1.00  0.00    -0.180 N 
HETATM   29  C4  UNL     1      28.780  73.496  -1.528  1.00  0.00     0.162 A 
ATOM     30  H4  UNL     1      29.795  71.661  -1.470  1.00  0.00     0.184 HD
HETATM   31  C3  UNL     1      28.786  74.103  -0.285  1.00  0.00     0.290 A 
HETATM   32  C15 UNL     1      28.175  74.127  -2.593  1.00  0.00     0.171 A 
HETATM   33  N3  UNL     1      28.212  75.292  -0.099  1.00  0.00    -0.154 N 
HETATM   34  O1  UNL     1      29.359  73.460   0.632  1.00  0.00    -0.265 OA
HETATM   35  C2  UNL     1      27.621  75.903  -1.148  1.00  0.00     0.682 A 
ATOM     36  H3  UNL     1      28.219  75.734   0.821  1.00  0.00     0.187 HD
HETATM   37  N1  UNL     1      27.603  75.336  -2.357  1.00  0.00    -0.170 N 
HETATM   38  C1  UNL     1      26.966  75.977  -3.472  1.00  0.00     0.177 C 
HETATM   39  N12 UNL     1      28.339  73.340  -3.676  1.00  0.00    -0.171 N 
ATOM     40  H12 UNL     1      27.992  73.556  -4.611  1.00  0.00     0.186 HD
BRANCH  35  41
HETATM   41  N2  UNL     1      27.098  77.059  -0.934  1.00  0.00    -0.234 N 
ATOM     42  H22 UNL     1      26.494  77.437  -1.664  1.00  0.00     0.174 HD
ATOM     43  H21 UNL     1      27.264  77.572  -0.068  1.00  0.00     0.174 HD
ENDBRANCH  35  41
ENDBRANCH   1  27
TORSDOF 8
ENDMDL
MODEL 2
REMARK VINA RESULT: -9.300813360      7.936      9.761
REMARK  8 active torsions:
REMARK  status: ('A' for Active; 'I' for Inactive)
REMARK    1  A    between atoms: C2_3  and  N2_4 
REMARK    2  A    between atoms: C5_14  and  N5_15 
REMARK    3  A    between atoms: C7_17  and  C8_18 
REMARK    4  A    between atoms: C8_18  and  N6_19 
REMARK    5  A    between atoms: N6_19  and  C9_21 
REMARK    6  A    between atoms: C9_21  and  C12_24 
REMARK    7  A    between atoms: C14_28  and  S1_29 
REMARK    8  A    between atoms: S1_29  and  N8_30 
ROOT
HETATM    1  N5  UNL     1      26.215  73.559  -0.230  1.00  0.00    -0.081 N 
HETATM    2  C6  UNL     1      26.517  74.056  -1.436  1.00  0.00     0.164 A 
HETATM    3  C7  UNL     1      27.807  73.613  -1.789  1.00  0.00     0.062 A 
HETATM    4  N10 UNL     1      28.201  72.874  -0.750  1.00  0.00    -0.287 N 
ATOM      5  H10 UNL     1      29.101  72.401  -0.678  1.00  0.00     0.188 HD
HETATM    6  N11 UNL     1      27.242  72.844   0.187  1.00  0.00    -0.222 N 
ATOM      7  H11 UNL     1      27.297  72.349   1.076  1.00  0.00     0.209 HD
ENDROOT
BRANCH   3   8
HETATM    8  C8  UNL     1      28.432  73.920  -3.099  1.00  0.00     0.175 C 
BRANCH   8   9
HETATM    9  N6  UNL     1      28.050  75.216  -3.527  1.00  0.00    -0.402 N 
ATOM     10  H6  UNL     1      27.606  75.883  -2.895  1.00  0.00     0.154 HD
BRANCH   9  11
HETATM   11  C9  UNL     1      28.320  75.535  -4.878  1.00  0.00     0.077 C 
HETATM   12  C10 UNL     1      27.215  74.941  -5.752  1.00  0.00     0.046 C 
HETATM   13  C11 UNL     1      29.601  74.837  -5.374  1.00  0.00     0.046 C 
BRANCH  11  14
HETATM   14  C12 UNL     1      28.496  76.954  -5.225  1.00  0.00     0.110 A 
HETATM   15  N7  UNL     1      28.130  78.054  -4.529  1.00  0.00    -0.351 N 
HETATM   16  C13 UNL     1      28.521  79.169  -5.115  1.00  0.00     0.133 A 
ATOM     17  H7  UNL     1      27.610  78.025  -3.651  1.00  0.00     0.166 HD
HETATM   18  C14 UNL     1      29.177  78.780  -6.254  1.00  0.00     0.165 A 
HETATM   19  N9  UNL     1      29.151  77.457  -6.307  1.00  0.00    -0.332 N 
ATOM     20  H9  UNL     1      29.564  76.894  -7.052  1.00  0.00     0.168 HD
BRANCH  18  21
HETATM   21  S1  UNL     1      29.951  79.925  -7.322  1.00  0.00     0.273 S 
HETATM   22  O2  UNL     1      29.283  79.718  -8.687  1.00  0.00    -0.199 OA
HETATM   23  O3  UNL     1      31.413  79.597  -7.447  1.00  0.00    -0.199 OA
BRANCH  21  24
HETATM   24  N8  UNL     1      29.691  81.570  -6.846  1.00  0.00    -0.323 N 
ATOM     25  H82 UNL     1      28.953  82.149  -7.246  1.00  0.00     0.169 HD
ATOM     26  H81 UNL     1      30.350  81.884  -6.134  1.00  0.00     0.169 HD
ENDBRANCH  21  24
ENDBRANCH  18  21
ENDBRANCH  11  14
ENDBRANCH   9  11
ENDBRANCH   8   9
ENDBRANCH   3   8
BRANCH   1  27
HETATM   27  C5  UNL     1      24.953  73.723   0.420  1.00  0.00     0.706 A 
HETATM   28  N4  UNL     1      23.751  73.568  -0.199  1.00  0.00    -0.180 N 
HETATM   29  C4  UNL     1      22.738  73.704   0.673  1.00  0.00     0.162 A 
ATOM     30  H4  UNL     1      23.635  73.374  -1.194  1.00  0.00     0.184 HD
HETATM   31  C3  UNL     1      21.360  73.613   0.581  1.00  0.00     0.290 A 
HETATM   32  C15 UNL     1      23.326  73.957   1.893  1.00  0.00     0.171 A 
HETATM   33  N3  UNL     1      20.589  73.769   1.658  1.00  0.00    -0.154 N 
HETATM   34  O1  UNL     1      20.905  73.381  -0.568  1.00  0.00    -0.265 OA
HETATM   35  C2  UNL     1      21.174  74.017   2.849  1.00  0.00     0.682 A 
ATOM     36  H3  UNL     1      19.573  73.703   1.583  1.00  0.00     0.187 HD
HETATM   37  N1  UNL     1      22.502  74.109   2.961  1.00  0.00    -0.170 N 
HETATM   38  C1  UNL     1      23.126  74.384   4.224  1.00  0.00     0.177 C 
HETATM   39  N12 UNL     1      24.662  73.963   1.705  1.00  0.00    -0.171 N 
ATOM     40  H12 UNL     1      25.352  74.126   2.438  1.00  0.00     0.186 HD
BRANCH  35  41
HETATM   41  N2  UNL     1      20.398  74.140   3.869  1.00  0.00    -0.234 N 
ATOM     42  H22 UNL     1      20.616  73.572   4.688  1.00  0.00     0.174 HD
ATOM     43  H21 UNL     1      19.609  74.786   3.868  1.00  0.00     0.174 HD
ENDBRANCH  35  41
ENDBRANCH   1  27
TORSDOF 8
ENDMDL
MODEL 3
REMARK VINA RESULT: -9.272739541      7.254      9.449
REMARK  8 active torsions:
REMARK  status: ('A' for Active; 'I' for Inactive)
REMARK    1  A    between atoms: C2_3  and  N2_4 
REMARK    2  A    between atoms: C5_14  and  N5_15 
REMARK    3  A    between atoms: C7_17  and  C8_18 
REMARK    4  A    between atoms: C8_18  and  N6_19 
REMARK    5  A    between atoms: N6_19  and  C9_21 
REMARK    6  A    between atoms: C9_21  and  C12_24 
REMARK    7  A    between atoms: C14_28  and  S1_29 
REMARK    8  A    between atoms: S1_29  and  N8_30 
ROOT
HETATM    1  N5  UNL     1      26.583  73.346   0.560  1.00  0.00    -0.081 N 
HETATM    2  C6  UNL     1      26.989  73.110  -0.694  1.00  0.00     0.164 A 
HETATM    3  C7  UNL     1      28.364  72.801  -0.664  1.00  0.00     0.062 A 
HETATM    4  N10 UNL     1      28.695  72.883   0.626  1.00  0.00    -0.287 N 
ATOM      5  H10 UNL     1      29.630  72.719   1.000  1.00  0.00     0.188 HD
HETATM    6  N11 UNL     1      27.622  73.211   1.360  1.00  0.00    -0.222 N 
ATOM      7  H11 UNL     1      27.612  73.337   2.371  1.00  0.00     0.209 HD
ENDROOT
BRANCH   3   8
HETATM    8  C8  UNL     1      29.127  72.415  -1.876  1.00  0.00     0.175 C 
BRANCH   8   9
HETATM    9  N6  UNL     1      28.235  72.082  -2.926  1.00  0.00    -0.402 N 
ATOM     10  H6  UNL     1      27.396  71.525  -2.764  1.00  0.00     0.154 HD
BRANCH   9  11
HETATM   11  C9  UNL     1      28.574  72.564  -4.212  1.00  0.00     0.077 C 
HETATM   12  C10 UNL     1      27.690  71.868  -5.246  1.00  0.00     0.046 C 
HETATM   13  C11 UNL     1      30.005  72.152  -4.608  1.00  0.00     0.046 C 
BRANCH  11  14
HETATM   14  C12 UNL     1      28.518  74.018  -4.434  1.00  0.00     0.110 A 
HETATM   15  N7  UNL     1      29.087  74.754  -5.415  1.00  0.00    -0.351 N 
HETATM   16  C13 UNL     1      28.755  76.029  -5.341  1.00  0.00     0.133 A 
ATOM     17  H7  UNL     1      29.704  74.368  -6.131  1.00  0.00     0.166 HD
HETATM   18  C14 UNL     1      27.925  76.133  -4.255  1.00  0.00     0.165 A 
HETATM   19  N9  UNL     1      27.795  74.927  -3.724  1.00  0.00    -0.332 N 
ATOM     20  H9  UNL     1      27.233  74.710  -2.900  1.00  0.00     0.168 HD
BRANCH  18  21
HETATM   21  S1  UNL     1      27.159  77.638  -3.808  1.00  0.00     0.273 S 
HETATM   22  O2  UNL     1      26.069  77.866  -4.863  1.00  0.00    -0.199 OA
HETATM   23  O3  UNL     1      28.155  78.761  -3.893  1.00  0.00    -0.199 OA
BRANCH  21  24
HETATM   24  N8  UNL     1      26.391  77.566  -2.257  1.00  0.00    -0.323 N 
ATOM     25  H82 UNL     1      25.609  76.943  -2.057  1.00  0.00     0.169 HD
ATOM     26  H81 UNL     1      26.805  78.206  -1.580  1.00  0.00     0.169 HD
ENDBRANCH  21  24
ENDBRANCH  18  21
ENDBRANCH  11  14
ENDBRANCH   9  11
ENDBRANCH   8   9
ENDBRANCH   3   8
BRANCH   1  27
HETATM   27  C5  UNL     1      25.229  73.608   0.935  1.00  0.00     0.706 A 
HETATM   28  N4  UNL     1      24.175  73.550   0.075  1.00  0.00    -0.180 N 
HETATM   29  C4  UNL     1      23.015  73.763   0.720  1.00  0.00     0.162 A 
ATOM     30  H4  UNL     1      24.255  73.370  -0.926  1.00  0.00     0.184 HD
HETATM   31  C3  UNL     1      21.684  73.783   0.341  1.00  0.00     0.290 A 
HETATM   32  C15 UNL     1      23.352  73.965   2.040  1.00  0.00     0.171 A 
HETATM   33  N3  UNL     1      20.719  73.996   1.236  1.00  0.00    -0.154 N 
HETATM   34  O1  UNL     1      21.464  73.591  -0.882  1.00  0.00    -0.265 OA
HETATM   35  C2  UNL     1      21.059  74.193   2.527  1.00  0.00     0.682 A 
ATOM     36  H3  UNL     1      19.739  74.010   0.949  1.00  0.00     0.187 HD
HETATM   37  N1  UNL     1      22.336  74.179   2.916  1.00  0.00    -0.170 N 
HETATM   38  C1  UNL     1      22.701  74.399   4.286  1.00  0.00     0.177 C 
HETATM   39  N12 UNL     1      24.694  73.866   2.135  1.00  0.00    -0.171 N 
ATOM     40  H12 UNL     1      25.226  73.972   2.999  1.00  0.00     0.186 HD
BRANCH  35  41
HETATM   41  N2  UNL     1      20.098  74.373   3.365  1.00  0.00    -0.234 N 
ATOM     42  H22 UNL     1      20.356  74.632   4.317  1.00  0.00     0.174 HD
ATOM     43  H21 UNL     1      19.120  74.278   3.089  1.00  0.00     0.174 HD
ENDBRANCH  35  41
ENDBRANCH   1  27
TORSDOF 8
ENDMDL
MODEL 4
REMARK VINA RESULT: -9.266535685      7.305      9.371
REMARK  8 active torsions:
REMARK  status: ('A' for Active; 'I' for Inactive)
REMARK    1  A    between atoms: C2_3  and  N2_4 
REMARK    2  A    between atoms: C5_14  and  N5_15 
REMARK    3  A    between atoms: C7_17  and  C8_18 
REMARK    4  A    between atoms: C8_18  and  N6_19 
REMARK    5  A    between atoms: N6_19  and  C9_21 
REMARK    6  A    between atoms: C9_21  and  C12_24 
REMARK    7  A    between atoms: C14_28  and  S1_29 
REMARK    8  A    between atoms: S1_29  and  N8_30 
ROOT
HETATM    1  N5  UNL     1      26.362  73.341   0.537  1.00  0.00    -0.081 N 
HETATM    2  C6  UNL     1      26.778  73.024  -0.695  1.00  0.00     0.164 A 
HETATM    3  C7  UNL     1      28.151  72.714  -0.635  1.00  0.00     0.062 A 
HETATM    4  N10 UNL     1      28.473  72.877   0.650  1.00  0.00    -0.287 N 
ATOM      5  H10 UNL     1      29.403  72.735   1.042  1.00  0.00     0.188 HD
HETATM    6  N11 UNL     1      27.395  73.254   1.353  1.00  0.00    -0.222 N 
ATOM      7  H11 UNL     1      27.376  73.444   2.354  1.00  0.00     0.209 HD
ENDROOT
BRANCH   3   8
HETATM    8  C8  UNL     1      28.924  72.250  -1.813  1.00  0.00     0.175 C 
BRANCH   8   9
HETATM    9  N6  UNL     1      28.061  72.088  -2.926  1.00  0.00    -0.402 N 
ATOM     10  H6  UNL     1      27.146  71.646  -2.839  1.00  0.00     0.154 HD
BRANCH   9  11
HETATM   11  C9  UNL     1      28.539  72.575  -4.165  1.00  0.00     0.077 C 
HETATM   12  C10 UNL     1      27.788  71.869  -5.293  1.00  0.00     0.046 C 
HETATM   13  C11 UNL     1      30.011  72.180  -4.393  1.00  0.00     0.046 C 
BRANCH  11  14
HETATM   14  C12 UNL     1      28.492  74.028  -4.393  1.00  0.00     0.110 A 
HETATM   15  N7  UNL     1      29.065  74.757  -5.377  1.00  0.00    -0.351 N 
HETATM   16  C13 UNL     1      28.741  76.033  -5.309  1.00  0.00     0.133 A 
ATOM     17  H7  UNL     1      29.679  74.364  -6.092  1.00  0.00     0.166 HD
HETATM   18  C14 UNL     1      27.912  76.148  -4.223  1.00  0.00     0.165 A 
HETATM   19  N9  UNL     1      27.775  74.945  -3.686  1.00  0.00    -0.332 N 
ATOM     20  H9  UNL     1      27.212  74.734  -2.861  1.00  0.00     0.168 HD
BRANCH  18  21
HETATM   21  S1  UNL     1      27.156  77.659  -3.782  1.00  0.00     0.273 S 
HETATM   22  O2  UNL     1      26.053  77.879  -4.826  1.00  0.00    -0.199 OA
HETATM   23  O3  UNL     1      28.153  78.779  -3.891  1.00  0.00    -0.199 OA
BRANCH  21  24
HETATM   24  N8  UNL     1      26.407  77.605  -2.221  1.00  0.00    -0.323 N 
ATOM     25  H82 UNL     1      26.932  77.441  -1.362  1.00  0.00     0.169 HD
ATOM     26  H81 UNL     1      25.398  77.753  -2.260  1.00  0.00     0.169 HD
ENDBRANCH  21  24
ENDBRANCH  18  21
ENDBRANCH  11  14
ENDBRANCH   9  11
ENDBRANCH   8   9
ENDBRANCH   3   8
BRANCH   1  27
HETATM   27  C5  UNL     1      25.006  73.629   0.884  1.00  0.00     0.706 A 
HETATM   28  N4  UNL     1      24.617  74.132   2.087  1.00  0.00    -0.180 N 
HETATM   29  C4  UNL     1      23.296  74.378   2.103  1.00  0.00     0.162 A 
ATOM     30  H4  UNL     1      25.246  74.300   2.873  1.00  0.00     0.184 HD
HETATM   31  C3  UNL     1      22.419  74.905   3.034  1.00  0.00     0.290 A 
HETATM   32  C15 UNL     1      22.833  74.013   0.859  1.00  0.00     0.171 A 
HETATM   33  N3  UNL     1      21.127  75.065   2.746  1.00  0.00    -0.154 N 
HETATM   34  O1  UNL     1      22.923  75.212   4.145  1.00  0.00    -0.265 OA
HETATM   35  C2  UNL     1      20.681  74.704   1.524  1.00  0.00     0.682 A 
ATOM     36  H3  UNL     1      20.485  75.453   3.438  1.00  0.00     0.187 HD
HETATM   37  N1  UNL     1      21.510  74.193   0.610  1.00  0.00    -0.170 N 
HETATM   38  C1  UNL     1      21.037  73.797  -0.686  1.00  0.00     0.177 C 
HETATM   39  N12 UNL     1      23.888  73.564   0.149  1.00  0.00    -0.171 N 
ATOM     40  H12 UNL     1      23.842  73.225  -0.812  1.00  0.00     0.186 HD
BRANCH  35  41
HETATM   41  N2  UNL     1      19.433  74.893   1.276  1.00  0.00    -0.234 N 
ATOM     42  H22 UNL     1      19.136  74.815   0.303  1.00  0.00     0.174 HD
ATOM     43  H21 UNL     1      18.763  75.097   2.018  1.00  0.00     0.174 HD
ENDBRANCH  35  41
ENDBRANCH   1  27
TORSDOF 8
ENDMDL
MODEL 5
REMARK VINA RESULT: -9.240665100      7.820      9.540
REMARK  8 active torsions:
REMARK  status: ('A' for Active; 'I' for Inactive)
REMARK    1  A    between atoms: C2_3  and  N2_4 
REMARK    2  A    between atoms: C5_14  and  N5_15 
REMARK    3  A    between atoms: C7_17  and  C8_18 
REMARK    4  A    between atoms: C8_18  and  N6_19 
REMARK    5  A    between atoms: N6_19  and  C9_21 
REMARK    6  A    between atoms: C9_21  and  C12_24 
REMARK    7  A    between atoms: C14_28  and  S1_29 
REMARK    8  A    between atoms: S1_29  and  N8_30 
ROOT
HETATM    1  N5  UNL     1      26.184  73.350  -0.446  1.00  0.00    -0.081 N 
HETATM    2  C6  UNL     1      26.534  73.907  -1.612  1.00  0.00     0.164 A 
HETATM    3  C7  UNL     1      27.820  73.444  -1.958  1.00  0.00     0.062 A 
HETATM    4  N10 UNL     1      28.163  72.634  -0.954  1.00  0.00    -0.287 N 
ATOM      5  H10 UNL     1      29.046  72.129  -0.887  1.00  0.00     0.188 HD
HETATM    6  N11 UNL     1      27.177  72.580  -0.046  1.00  0.00    -0.222 N 
ATOM      7  H11 UNL     1      27.193  72.033   0.814  1.00  0.00     0.209 HD
ENDROOT
BRANCH   3   8
HETATM    8  C8  UNL     1      28.490  73.806  -3.231  1.00  0.00     0.175 C 
BRANCH   8   9
HETATM    9  N6  UNL     1      28.146  75.131  -3.600  1.00  0.00    -0.402 N 
ATOM     10  H6  UNL     1      27.769  75.797  -2.926  1.00  0.00     0.154 HD
BRANCH   9  11
HETATM   11  C9  UNL     1      28.353  75.476  -4.956  1.00  0.00     0.077 C 
HETATM   12  C10 UNL     1      27.200  74.915  -5.787  1.00  0.00     0.046 C 
HETATM   13  C11 UNL     1      29.600  74.777  -5.530  1.00  0.00     0.046 C 
BRANCH  11  14
HETATM   14  C12 UNL     1      28.528  76.901  -5.279  1.00  0.00     0.110 A 
HETATM   15  N7  UNL     1      28.163  77.990  -4.566  1.00  0.00    -0.351 N 
HETATM   16  C13 UNL     1      28.553  79.115  -5.134  1.00  0.00     0.133 A 
ATOM     17  H7  UNL     1      27.644  77.947  -3.688  1.00  0.00     0.166 HD
HETATM   18  C14 UNL     1      29.209  78.744  -6.279  1.00  0.00     0.165 A 
HETATM   19  N9  UNL     1      29.183  77.422  -6.354  1.00  0.00    -0.332 N 
ATOM     20  H9  UNL     1      29.595  76.872  -7.108  1.00  0.00     0.168 HD
BRANCH  18  21
HETATM   21  S1  UNL     1      29.982  79.906  -7.329  1.00  0.00     0.273 S 
HETATM   22  O2  UNL     1      29.309  79.726  -8.696  1.00  0.00    -0.199 OA
HETATM   23  O3  UNL     1      31.443  79.576  -7.465  1.00  0.00    -0.199 OA
BRANCH  21  24
HETATM   24  N8  UNL     1      29.729  81.543  -6.822  1.00  0.00    -0.323 N 
ATOM     25  H82 UNL     1      29.784  81.832  -5.846  1.00  0.00     0.169 HD
ATOM     26  H81 UNL     1      29.522  82.170  -7.599  1.00  0.00     0.169 HD
ENDBRANCH  21  24
ENDBRANCH  18  21
ENDBRANCH  11  14
ENDBRANCH   9  11
ENDBRANCH   8   9
ENDBRANCH   3   8
BRANCH   1  27
HETATM   27  C5  UNL     1      24.910  73.517   0.179  1.00  0.00     0.706 A 
HETATM   28  N4  UNL     1      24.740  73.775   1.505  1.00  0.00    -0.180 N 
HETATM   29  C4  UNL     1      23.442  73.962   1.797  1.00  0.00     0.162 A 
ATOM     30  H4  UNL     1      25.498  73.820   2.187  1.00  0.00     0.184 HD
HETATM   31  C3  UNL     1      22.742  74.274   2.949  1.00  0.00     0.290 A 
HETATM   32  C15 UNL     1      22.765  73.813   0.606  1.00  0.00     0.171 A 
HETATM   33  N3  UNL     1      21.418  74.433   2.926  1.00  0.00    -0.154 N 
HETATM   34  O1  UNL     1      23.434  74.391   3.992  1.00  0.00    -0.265 OA
HETATM   35  C2  UNL     1      20.763  74.285   1.754  1.00  0.00     0.682 A 
ATOM     36  H3  UNL     1      20.907  74.662   3.779  1.00  0.00     0.187 HD
HETATM   37  N1  UNL     1      21.418  73.984   0.630  1.00  0.00    -0.170 N 
HETATM   38  C1  UNL     1      20.724  73.815  -0.615  1.00  0.00     0.177 C 
HETATM   39  N12 UNL     1      23.680  73.544  -0.349  1.00  0.00    -0.171 N 
ATOM     40  H12 UNL     1      23.465  73.385  -1.333  1.00  0.00     0.186 HD
BRANCH  35  41
HETATM   41  N2  UNL     1      19.489  74.468   1.768  1.00  0.00    -0.234 N 
ATOM     42  H22 UNL     1      18.995  74.349   0.883  1.00  0.00     0.174 HD
ATOM     43  H21 UNL     1      18.990  74.705   2.625  1.00  0.00     0.174 HD
ENDBRANCH  35  41
ENDBRANCH   1  27
TORSDOF 8
ENDMDL
