MODEL 1
REMARK VINA RESULT: -9.212083268      0.000      0.000
REMARK  9 active torsions:
REMARK  status: ('A' for Active; 'I' for Inactive)
REMARK    1  A    between atoms: N1_1  and  S1_4 
REMARK    2  A    between atoms: S1_4  and  C1_7 
REMARK    3  A    between atoms: C3_11  and  C4_12 
REMARK    4  A    between atoms: C4_12  and  C5_13 
REMARK    5  A    between atoms: C5_13  and  C6_14 
REMARK    6  A    between atoms: C5_13  and  C7_17 
REMARK    7  A    between atoms: C8_20  and  C9_21 
REMARK       I    between atoms: C9_21  and  N4_23 
REMARK    8  A    between atoms: N4_23  and  C10_25 
REMARK    9  A    between atoms: C11_34  and  O6_35 
ROOT
HETATM    1  C7  UNL     1      23.692  73.957  -2.485  1.00  0.00     0.119 A 
HETATM    2  N3  UNL     1      24.783  74.622  -1.947  1.00  0.00    -0.343 N 
ATOM      3  H3  UNL     1      24.648  75.181  -1.104  1.00  0.00     0.166 HD
HETATM    4  C8  UNL     1      26.000  74.561  -2.484  1.00  0.00     0.153 A 
HETATM    5  C11 UNL     1      26.253  73.827  -3.621  1.00  0.00     0.176 A 
HETATM    6  N9  UNL     1      25.220  73.181  -4.155  1.00  0.00    -0.300 N 
ATOM      7  H9  UNL     1      25.366  72.626  -4.998  1.00  0.00     0.171 HD
HETATM    8  C12 UNL     1      23.956  73.241  -3.602  1.00  0.00     0.275 A 
HETATM    9  O7  UNL     1      23.086  72.599  -4.203  1.00  0.00    -0.266 OA
ENDROOT
BRANCH   1  10
HETATM   10  C5  UNL     1      22.396  74.138  -1.840  1.00  0.00     0.075 C 
BRANCH  10  11
HETATM   11  C4  UNL     1      22.263  73.484  -0.689  1.00  0.00     0.058 C 
BRANCH  11  12
HETATM   12  C3  UNL     1      22.307  73.963   0.667  1.00  0.00     0.076 A 
HETATM   13  N2  UNL     1      23.218  74.394   1.510  1.00  0.00    -0.358 N 
HETATM   14  C2  UNL     1      22.911  74.759   2.710  1.00  0.00     0.121 A 
ATOM     15  H2  UNL     1      24.191  74.443   1.209  1.00  0.00     0.166 HD
HETATM   16  C1  UNL     1      21.593  74.680   3.080  1.00  0.00     0.137 A 
HETATM   17  S2  UNL     1      20.876  74.078   1.655  1.00  0.00    -0.058 SA
BRANCH  16  18
HETATM   18  S1  UNL     1      20.847  75.090   4.625  1.00  0.00     0.264 S 
HETATM   19  O1  UNL     1      19.731  74.172   4.949  1.00  0.00    -0.200 OA
HETATM   20  O2  UNL     1      21.887  75.068   5.716  1.00  0.00    -0.200 OA
BRANCH  18  21
HETATM   21  N1  UNL     1      20.295  76.720   4.487  1.00  0.00    -0.324 N 
ATOM     22  H12 UNL     1      20.126  77.184   3.595  1.00  0.00     0.169 HD
ATOM     23  H11 UNL     1      20.166  77.145   5.405  1.00  0.00     0.169 HD
ENDBRANCH  18  21
ENDBRANCH  16  18
ENDBRANCH  11  12
ENDBRANCH  10  11
BRANCH  10  24
HETATM   24  C6  UNL     1      21.319  74.886  -2.352  1.00  0.00     0.211 C 
HETATM   25  O3  UNL     1      20.187  74.944  -1.742  1.00  0.00    -0.644 OA
HETATM   26  O4  UNL     1      21.305  75.619  -3.512  1.00  0.00    -0.644 OA
ENDBRANCH  10  24
ENDBRANCH   1  10
BRANCH   4  27
HETATM   27  C9  UNL     1      27.106  75.283  -1.862  1.00  0.00     0.290 C 
HETATM   28  O5  UNL     1      26.994  76.515  -1.561  1.00  0.00    -0.265 OA
HETATM   29  N4  UNL     1      28.336  74.645  -1.572  1.00  0.00    -0.151 N 
ATOM     30  H4  UNL     1      28.972  74.434  -2.341  1.00  0.00     0.188 HD
BRANCH  29  31
HETATM   31  C10 UNL     1      28.686  74.318  -0.367  1.00  0.00     0.716 A 
HETATM   32  N5  UNL     1      28.704  75.192   0.646  1.00  0.00    -0.115 N 
HETATM   33  N6  UNL     1      29.103  74.523   1.705  1.00  0.00    -0.213 N 
ATOM     34  H5  UNL     1      28.456  76.181   0.605  1.00  0.00     0.207 HD
HETATM   35  N7  UNL     1      29.332  73.270   1.383  1.00  0.00    -0.213 N 
ATOM     36  H6  UNL     1      29.218  74.918   2.639  1.00  0.00     0.210 HD
HETATM   37  N8  UNL     1      29.077  73.138   0.106  1.00  0.00    -0.115 N 
ATOM     38  H7  UNL     1      29.651  72.534   2.013  1.00  0.00     0.210 HD
ATOM     39  H8  UNL     1      29.163  72.277  -0.434  1.00  0.00     0.207 HD
ENDBRANCH  29  31
ENDBRANCH   4  27
BRANCH   5  40
HETATM   40  O6  UNL     1      27.509  73.747  -4.201  1.00  0.00    -0.344 OA
ATOM     41  H6  UNL     1      27.937  74.490  -4.611  1.00  0.00     0.219 HD
ENDBRANCH   5  40
TORSDOF 9
ENDMDL
MODEL 2
REMARK VINA RESULT: -9.080529683      3.894      8.247
REMARK  9 active torsions:
REMARK  status: ('A' for Active; 'I' for Inactive)
REMARK    1  A    between atoms: N1_1  and  S1_4 
REMARK    2  A    between atoms: S1_4  and  C1_7 
REMARK    3  A    between atoms: C3_11  and  C4_12 
REMARK    4  A    between atoms: C4_12  and  C5_13 
REMARK    5  A    between atoms: C5_13  and  C6_14 
REMARK    6  A    between atoms: C5_13  and  C7_17 
REMARK    7  A    between atoms: C8_20  and  C9_21 
REMARK       I    between atoms: C9_21  and  N4_23 
REMARK    8  A    between atoms: N4_23  and  C10_25 
REMARK    9  A    between atoms: C11_34  and  O6_35 
ROOT
HETATM    1  C7  UNL     1      25.758  73.924   0.512  1.00  0.00     0.119 A 
HETATM    2  N3  UNL     1      25.293  74.422   1.719  1.00  0.00    -0.343 N 
ATOM      3  H3  UNL     1      25.952  74.893   2.340  1.00  0.00     0.166 HD
HETATM    4  C8  UNL     1      24.023  74.310   2.101  1.00  0.00     0.153 A 
HETATM    5  C11 UNL     1      23.081  73.687   1.314  1.00  0.00     0.176 A 
HETATM    6  N9  UNL     1      23.506  73.201   0.151  1.00  0.00    -0.300 N 
ATOM      7  H9  UNL     1      22.840  72.731  -0.462  1.00  0.00     0.171 HD
HETATM    8  C12 UNL     1      24.823  73.313  -0.250  1.00  0.00     0.275 A 
HETATM    9  O7  UNL     1      25.084  72.812  -1.351  1.00  0.00    -0.266 OA
ENDROOT
BRANCH   1  10
HETATM   10  C5  UNL     1      27.181  74.058   0.221  1.00  0.00     0.075 C 
BRANCH  10  11
HETATM   11  C4  UNL     1      27.549  75.281  -0.155  1.00  0.00     0.058 C 
BRANCH  11  12
HETATM   12  C3  UNL     1      27.394  75.956  -1.417  1.00  0.00     0.076 A 
HETATM   13  N2  UNL     1      26.991  77.133  -1.839  1.00  0.00    -0.358 N 
HETATM   14  C2  UNL     1      26.970  77.429  -3.095  1.00  0.00     0.121 A 
ATOM     15  H2  UNL     1      26.688  77.829  -1.158  1.00  0.00     0.166 HD
HETATM   16  C1  UNL     1      27.384  76.468  -3.983  1.00  0.00     0.137 A 
HETATM   17  S2  UNL     1      27.782  75.186  -2.932  1.00  0.00    -0.058 SA
BRANCH  16  18
HETATM   18  S1  UNL     1      27.473  76.546  -5.743  1.00  0.00     0.264 S 
HETATM   19  O1  UNL     1      26.793  77.753  -6.266  1.00  0.00    -0.200 OA
HETATM   20  O2  UNL     1      28.914  76.514  -6.183  1.00  0.00    -0.200 OA
BRANCH  18  21
HETATM   21  N1  UNL     1      26.732  75.104  -6.336  1.00  0.00    -0.324 N 
ATOM     22  H12 UNL     1      26.716  74.844  -7.322  1.00  0.00     0.169 HD
ATOM     23  H11 UNL     1      26.321  74.561  -5.577  1.00  0.00     0.169 HD
ENDBRANCH  18  21
ENDBRANCH  16  18
ENDBRANCH  11  12
ENDBRANCH  10  11
BRANCH  10  24
HETATM   24  C6  UNL     1      28.133  73.022   0.269  1.00  0.00     0.211 C 
HETATM   25  O3  UNL     1      29.112  73.041   1.105  1.00  0.00    -0.644 OA
HETATM   26  O4  UNL     1      28.171  71.903  -0.524  1.00  0.00    -0.644 OA
ENDBRANCH  10  24
ENDBRANCH   1  10
BRANCH   4  27
HETATM   27  C9  UNL     1      23.599  74.862   3.385  1.00  0.00     0.290 C 
HETATM   28  O5  UNL     1      23.773  76.095   3.655  1.00  0.00    -0.265 OA
HETATM   29  N4  UNL     1      22.984  74.055   4.371  1.00  0.00    -0.151 N 
ATOM     30  H4  UNL     1      23.562  73.401   4.899  1.00  0.00     0.188 HD
BRANCH  29  31
HETATM   31  C10 UNL     1      21.714  74.113   4.630  1.00  0.00     0.716 A 
HETATM   32  N5  UNL     1      21.159  75.115   5.321  1.00  0.00    -0.115 N 
HETATM   33  N6  UNL     1      19.874  74.849   5.390  1.00  0.00    -0.213 N 
ATOM     34  H5  UNL     1      21.639  75.924   5.716  1.00  0.00     0.207 HD
HETATM   35  N7  UNL     1      19.616  73.721   4.768  1.00  0.00    -0.213 N 
ATOM     36  H6  UNL     1      19.179  75.432   5.858  1.00  0.00     0.210 HD
HETATM   37  N8  UNL     1      20.747  73.263   4.297  1.00  0.00    -0.115 N 
ATOM     38  H7  UNL     1      18.700  73.282   4.669  1.00  0.00     0.210 HD
ATOM     39  H8  UNL     1      20.867  72.400   3.765  1.00  0.00     0.207 HD
ENDBRANCH  29  31
ENDBRANCH   4  27
BRANCH   5  40
HETATM   40  O6  UNL     1      21.754  73.557   1.688  1.00  0.00    -0.344 OA
ATOM     41  H6  UNL     1      21.316  72.717   1.756  1.00  0.00     0.219 HD
ENDBRANCH   5  40
TORSDOF 9
ENDMDL
MODEL 3
REMARK VINA RESULT: -8.982944383      3.333      5.172
REMARK  9 active torsions:
REMARK  status: ('A' for Active; 'I' for Inactive)
REMARK    1  A    between atoms: N1_1  and  S1_4 
REMARK    2  A    between atoms: S1_4  and  C1_7 
REMARK    3  A    between atoms: C3_11  and  C4_12 
REMARK    4  A    between atoms: C4_12  and  C5_13 
REMARK    5  A    between atoms: C5_13  and  C6_14 
REMARK    6  A    between atoms: C5_13  and  C7_17 
REMARK    7  A    between atoms: C8_20  and  C9_21 
REMARK       I    between atoms: C9_21  and  N4_23 
REMARK    8  A    between atoms: N4_23  and  C10_25 
REMARK    9  A    between atoms: C11_34  and  O6_35 
ROOT
HETATM    1  C7  UNL     1      27.918  73.974  -1.486  1.00  0.00     0.119 A 
HETATM    2  N3  UNL     1      27.509  75.184  -2.024  1.00  0.00    -0.343 N 
ATOM      3  H3  UNL     1      27.114  75.888  -1.400  1.00  0.00     0.166 HD
HETATM    4  C8  UNL     1      27.610  75.465  -3.322  1.00  0.00     0.153 A 
HETATM    5  C11 UNL     1      28.131  74.562  -4.220  1.00  0.00     0.176 A 
HETATM    6  N9  UNL     1      28.529  73.393  -3.725  1.00  0.00    -0.300 N 
ATOM      7  H9  UNL     1      28.922  72.696  -4.357  1.00  0.00     0.171 HD
HETATM    8  C12 UNL     1      28.427  73.096  -2.380  1.00  0.00     0.275 A 
HETATM    9  O7  UNL     1      28.828  71.971  -2.055  1.00  0.00    -0.266 OA
ENDROOT
BRANCH   1  10
HETATM   10  C5  UNL     1      27.711  73.757  -0.058  1.00  0.00     0.075 C 
BRANCH  10  11
HETATM   11  C4  UNL     1      26.486  73.344   0.260  1.00  0.00     0.058 C 
BRANCH  11  12
HETATM   12  C3  UNL     1      25.525  73.893   1.180  1.00  0.00     0.076 A 
HETATM   13  N2  UNL     1      25.480  74.863   2.064  1.00  0.00    -0.358 N 
HETATM   14  C2  UNL     1      24.416  75.097   2.757  1.00  0.00     0.121 A 
ATOM     15  H2  UNL     1      26.304  75.446   2.206  1.00  0.00     0.166 HD
HETATM   16  C1  UNL     1      23.326  74.292   2.540  1.00  0.00     0.137 A 
HETATM   17  S2  UNL     1      23.916  73.241   1.335  1.00  0.00    -0.058 SA
BRANCH  16  18
HETATM   18  S1  UNL     1      21.741  74.338   3.312  1.00  0.00     0.264 S 
HETATM   19  O1  UNL     1      20.736  73.581   2.531  1.00  0.00    -0.200 OA
HETATM   20  O2  UNL     1      21.840  73.799   4.716  1.00  0.00    -0.200 OA
BRANCH  18  21
HETATM   21  N1  UNL     1      21.305  76.005   3.441  1.00  0.00    -0.324 N 
ATOM     22  H12 UNL     1      21.286  76.515   4.323  1.00  0.00     0.169 HD
ATOM     23  H11 UNL     1      21.075  76.398   2.529  1.00  0.00     0.169 HD
ENDBRANCH  18  21
ENDBRANCH  16  18
ENDBRANCH  11  12
ENDBRANCH  10  11
BRANCH  10  24
HETATM   24  C6  UNL     1      28.660  73.985   0.956  1.00  0.00     0.211 C 
HETATM   25  O3  UNL     1      28.765  75.127   1.540  1.00  0.00    -0.644 OA
HETATM   26  O4  UNL     1      29.572  73.083   1.446  1.00  0.00    -0.644 OA
ENDBRANCH  10  24
ENDBRANCH   1  10
BRANCH   4  27
HETATM   27  C9  UNL     1      27.164  76.763  -3.821  1.00  0.00     0.290 C 
HETATM   28  O5  UNL     1      26.441  77.526  -3.102  1.00  0.00    -0.265 OA
HETATM   29  N4  UNL     1      27.516  77.219  -5.113  1.00  0.00    -0.151 N 
ATOM     30  H4  UNL     1      27.052  76.805  -5.922  1.00  0.00     0.188 HD
BRANCH  29  31
HETATM   31  C10 UNL     1      28.404  78.143  -5.311  1.00  0.00     0.716 A 
HETATM   32  N5  UNL     1      28.557  79.190  -4.492  1.00  0.00    -0.115 N 
HETATM   33  N6  UNL     1      29.535  79.912  -4.992  1.00  0.00    -0.213 N 
ATOM     34  H5  UNL     1      28.020  79.389  -3.647  1.00  0.00     0.207 HD
HETATM   35  N7  UNL     1      29.991  79.349  -6.088  1.00  0.00    -0.213 N 
ATOM     36  H6  UNL     1      29.888  80.780  -4.589  1.00  0.00     0.210 HD
HETATM   37  N8  UNL     1      29.297  78.258  -6.290  1.00  0.00    -0.115 N 
ATOM     38  H7  UNL     1      30.748  79.699  -6.676  1.00  0.00     0.210 HD
ATOM     39  H8  UNL     1      29.420  77.606  -7.065  1.00  0.00     0.207 HD
ENDBRANCH  29  31
ENDBRANCH   4  27
BRANCH   5  40
HETATM   40  O6  UNL     1      28.247  74.829  -5.574  1.00  0.00    -0.344 OA
ATOM     41  H6  UNL     1      28.362  74.148  -6.227  1.00  0.00     0.219 HD
ENDBRANCH   5  40
TORSDOF 9
ENDMDL
MODEL 4
REMARK VINA RESULT: -8.902396713      5.381      8.996
REMARK  9 active torsions:
REMARK  status: ('A' for Active; 'I' for Inactive)
REMARK    1  A    between atoms: N1_1  and  S1_4 
REMARK    2  A    between atoms: S1_4  and  C1_7 
REMARK    3  A    between atoms: C3_11  and  C4_12 
REMARK    4  A    between atoms: C4_12  and  C5_13 
REMARK    5  A    between atoms: C5_13  and  C6_14 
REMARK    6  A    between atoms: C5_13  and  C7_17 
REMARK    7  A    between atoms: C8_20  and  C9_21 
REMARK       I    between atoms: C9_21  and  N4_23 
REMARK    8  A    between atoms: N4_23  and  C10_25 
REMARK    9  A    between atoms: C11_34  and  O6_35 
ROOT
HETATM    1  C7  UNL     1      27.609  74.489  -3.661  1.00  0.00     0.119 A 
HETATM    2  N3  UNL     1      28.060  73.689  -2.623  1.00  0.00    -0.343 N 
ATOM      3  H3  UNL     1      28.919  73.154  -2.755  1.00  0.00     0.166 HD
HETATM    4  C8  UNL     1      27.419  73.590  -1.460  1.00  0.00     0.153 A 
HETATM    5  C11 UNL     1      26.256  74.283  -1.213  1.00  0.00     0.176 A 
HETATM    6  N9  UNL     1      25.804  75.057  -2.196  1.00  0.00    -0.300 N 
ATOM      7  H9  UNL     1      24.945  75.587  -2.054  1.00  0.00     0.171 HD
HETATM    8  C12 UNL     1      26.465  75.163  -3.405  1.00  0.00     0.275 A 
HETATM    9  O7  UNL     1      25.932  75.912  -4.234  1.00  0.00    -0.266 OA
ENDROOT
BRANCH   1  10
HETATM   10  C5  UNL     1      28.365  74.479  -4.909  1.00  0.00     0.075 C 
BRANCH  10  11
HETATM   11  C4  UNL     1      28.220  73.368  -5.626  1.00  0.00     0.058 C 
BRANCH  11  12
HETATM   12  C3  UNL     1      28.939  72.122  -5.574  1.00  0.00     0.076 A 
HETATM   13  N2  UNL     1      29.219  71.206  -4.675  1.00  0.00    -0.358 N 
HETATM   14  C2  UNL     1      29.924  70.165  -4.969  1.00  0.00     0.121 A 
ATOM     15  H2  UNL     1      28.872  71.320  -3.724  1.00  0.00     0.166 HD
HETATM   16  C1  UNL     1      30.375  70.045  -6.259  1.00  0.00     0.137 A 
HETATM   17  S2  UNL     1      29.743  71.459  -6.971  1.00  0.00    -0.058 SA
BRANCH  16  18
HETATM   18  S1  UNL     1      31.352  68.765  -6.979  1.00  0.00     0.264 S 
HETATM   19  O1  UNL     1      30.514  67.799  -7.725  1.00  0.00    -0.200 OA
HETATM   20  O2  UNL     1      32.399  69.368  -7.880  1.00  0.00    -0.200 OA
BRANCH  18  21
HETATM   21  N1  UNL     1      32.188  67.995  -5.679  1.00  0.00    -0.324 N 
ATOM     22  H12 UNL     1      31.757  67.306  -5.062  1.00  0.00     0.169 HD
ATOM     23  H11 UNL     1      33.152  68.319  -5.617  1.00  0.00     0.169 HD
ENDBRANCH  18  21
ENDBRANCH  16  18
ENDBRANCH  11  12
ENDBRANCH  10  11
BRANCH  10  24
HETATM   24  C6  UNL     1      29.226  75.498  -5.359  1.00  0.00     0.211 C 
HETATM   25  O3  UNL     1      29.114  76.711  -4.941  1.00  0.00    -0.644 OA
HETATM   26  O4  UNL     1      30.250  75.369  -6.263  1.00  0.00    -0.644 OA
ENDBRANCH  10  24
ENDBRANCH   1  10
BRANCH   4  27
HETATM   27  C9  UNL     1      27.953  72.732  -0.407  1.00  0.00     0.290 C 
HETATM   28  O5  UNL     1      28.457  71.595  -0.683  1.00  0.00    -0.265 OA
HETATM   29  N4  UNL     1      27.932  73.127   0.952  1.00  0.00    -0.151 N 
ATOM     30  H4  UNL     1      27.045  73.106   1.454  1.00  0.00     0.188 HD
BRANCH  29  31
HETATM   31  C10 UNL     1      28.997  73.514   1.584  1.00  0.00     0.716 A 
HETATM   32  N5  UNL     1      29.950  72.667   1.987  1.00  0.00    -0.115 N 
HETATM   33  N6  UNL     1      30.866  73.397   2.584  1.00  0.00    -0.213 N 
ATOM     34  H5  UNL     1      29.964  71.655   1.857  1.00  0.00     0.207 HD
HETATM   35  N7  UNL     1      30.512  74.662   2.565  1.00  0.00    -0.213 N 
ATOM     36  H6  UNL     1      31.724  73.035   3.002  1.00  0.00     0.210 HD
HETATM   37  N8  UNL     1      29.360  74.740   1.949  1.00  0.00    -0.115 N 
ATOM     38  H7  UNL     1      31.040  75.442   2.957  1.00  0.00     0.210 HD
ATOM     39  H8  UNL     1      28.831  75.596   1.778  1.00  0.00     0.207 HD
ENDBRANCH  29  31
ENDBRANCH   4  27
BRANCH   5  40
HETATM   40  O6  UNL     1      25.569  74.198  -0.013  1.00  0.00    -0.344 OA
ATOM     41  H6  UNL     1      24.823  74.747   0.195  1.00  0.00     0.219 HD
ENDBRANCH   5  40
TORSDOF 9
ENDMDL
MODEL 5
REMARK VINA RESULT: -8.865270882      5.165      8.191
REMARK  9 active torsions:
REMARK  status: ('A' for Active; 'I' for Inactive)
REMARK    1  A    between atoms: N1_1  and  S1_4 
REMARK    2  A    between atoms: S1_4  and  C1_7 
REMARK    3  A    between atoms: C3_11  and  C4_12 
REMARK    4  A    between atoms: C4_12  and  C5_13 
REMARK    5  A    between atoms: C5_13  and  C6_14 
REMARK    6  A    between atoms: C5_13  and  C7_17 
REMARK    7  A    between atoms: C8_20  and  C9_21 
REMARK       I    between atoms: C9_21  and  N4_23 
REMARK    8  A    between atoms: N4_23  and  C10_25 
REMARK    9  A    between atoms: C11_34  and  O6_35 
ROOT
HETATM    1  C7  UNL     1      27.138  74.361  -3.392  1.00  0.00     0.119 A 
HETATM    2  N3  UNL     1      27.128  74.569  -2.022  1.00  0.00    -0.343 N 
ATOM      3  H3  UNL     1      26.694  75.418  -1.659  1.00  0.00     0.166 HD
HETATM    4  C8  UNL     1      27.660  73.706  -1.159  1.00  0.00     0.153 A 
HETATM    5  C11 UNL     1      28.262  72.541  -1.578  1.00  0.00     0.176 A 
HETATM    6  N9  UNL     1      28.284  72.322  -2.890  1.00  0.00    -0.300 N 
ATOM      7  H9  UNL     1      28.721  71.470  -3.242  1.00  0.00     0.171 HD
HETATM    8  C12 UNL     1      27.733  73.214  -3.789  1.00  0.00     0.275 A 
HETATM    9  O7  UNL     1      27.829  72.890  -4.980  1.00  0.00    -0.266 OA
ENDROOT
BRANCH   1  10
HETATM   10  C5  UNL     1      26.571  75.400  -4.245  1.00  0.00     0.075 C 
BRANCH  10  11
HETATM   11  C4  UNL     1      27.200  76.570  -4.173  1.00  0.00     0.058 C 
BRANCH  11  12
HETATM   12  C3  UNL     1      27.968  77.280  -5.161  1.00  0.00     0.076 A 
HETATM   13  N2  UNL     1      28.348  77.094  -6.405  1.00  0.00    -0.358 N 
HETATM   14  C2  UNL     1      29.069  77.965  -7.029  1.00  0.00     0.121 A 
ATOM     15  H2  UNL     1      28.068  76.242  -6.889  1.00  0.00     0.166 HD
HETATM   16  C1  UNL     1      29.428  79.100  -6.346  1.00  0.00     0.137 A 
HETATM   17  S2  UNL     1      28.693  78.831  -4.832  1.00  0.00    -0.058 SA
BRANCH  16  18
HETATM   18  S1  UNL     1      30.398  80.466  -6.896  1.00  0.00     0.264 S 
HETATM   19  O1  UNL     1      30.715  81.389  -5.783  1.00  0.00    -0.200 OA
HETATM   20  O2  UNL     1      31.662  79.966  -7.548  1.00  0.00    -0.200 OA
BRANCH  18  21
HETATM   21  N1  UNL     1      29.478  81.260  -8.123  1.00  0.00    -0.324 N 
ATOM     22  H12 UNL     1      29.690  82.194  -8.471  1.00  0.00     0.169 HD
ATOM     23  H11 UNL     1      28.708  80.673  -8.444  1.00  0.00     0.169 HD
ENDBRANCH  18  21
ENDBRANCH  16  18
ENDBRANCH  11  12
ENDBRANCH  10  11
BRANCH  10  24
HETATM   24  C6  UNL     1      25.434  75.264  -5.064  1.00  0.00     0.211 C 
HETATM   25  O3  UNL     1      24.297  74.893  -4.586  1.00  0.00    -0.644 OA
HETATM   26  O4  UNL     1      25.364  75.484  -6.417  1.00  0.00    -0.644 OA
ENDBRANCH  10  24
ENDBRANCH   1  10
BRANCH   4  27
HETATM   27  C9  UNL     1      27.609  73.985   0.273  1.00  0.00     0.290 C 
HETATM   28  O5  UNL     1      26.568  73.715   0.955  1.00  0.00    -0.265 OA
HETATM   29  N4  UNL     1      28.708  74.563   0.954  1.00  0.00    -0.151 N 
ATOM     30  H4  UNL     1      28.901  75.555   0.818  1.00  0.00     0.188 HD
BRANCH  29  31
HETATM   31  C10 UNL     1      29.478  73.881   1.744  1.00  0.00     0.716 A 
HETATM   32  N5  UNL     1      30.231  74.449   2.692  1.00  0.00    -0.115 N 
HETATM   33  N6  UNL     1      30.872  73.471   3.291  1.00  0.00    -0.213 N 
ATOM     34  H5  UNL     1      30.294  75.444   2.907  1.00  0.00     0.207 HD
HETATM   35  N7  UNL     1      30.543  72.321   2.748  1.00  0.00    -0.213 N 
ATOM     36  H6  UNL     1      31.528  73.586   4.064  1.00  0.00     0.210 HD
HETATM   37  N8  UNL     1      29.683  72.568   1.792  1.00  0.00    -0.115 N 
ATOM     38  H7  UNL     1      30.894  71.402   3.020  1.00  0.00     0.210 HD
ATOM     39  H8  UNL     1      29.245  71.872   1.188  1.00  0.00     0.207 HD
ENDBRANCH  29  31
ENDBRANCH   4  27
BRANCH   5  40
HETATM   40  O6  UNL     1      28.824  71.627  -0.702  1.00  0.00    -0.344 OA
ATOM     41  H6  UNL     1      28.823  70.690  -0.862  1.00  0.00     0.219 HD
ENDBRANCH   5  40
TORSDOF 9
ENDMDL
