MODEL 1
REMARK VINA RESULT: -10.367874735      0.000      0.000
REMARK  6 active torsions:
REMARK  status: ('A' for Active; 'I' for Inactive)
REMARK    1  A    between atoms: C1_2  and  C2_4 
REMARK    2  A    between atoms: C4_9  and  N3_10 
REMARK    3  A    between atoms: N3_10  and  N4_12 
REMARK    4  A    between atoms: N4_12  and  C5_14 
REMARK    5  A    between atoms: C9_18  and  S1_19 
REMARK    6  A    between atoms: S1_19  and  N5_20 
ROOT
HETATM    1  C2  UNL     1      27.787  75.610  -2.406  1.00  0.00     0.117 C 
HETATM    2  C3  UNL     1      27.627  76.011  -1.078  1.00  0.00     0.276 C 
HETATM    3  O2  UNL     1      27.763  77.225  -0.867  1.00  0.00    -0.267 OA
HETATM    4  N2  UNL     1      27.342  75.167  -0.064  1.00  0.00    -0.154 N 
ATOM      5  H2  UNL     1      27.403  75.598   0.858  1.00  0.00     0.187 HD
HETATM    6  C4  UNL     1      26.992  73.858  -0.033  1.00  0.00     0.701 C 
HETATM    7  N6  UNL     1      27.157  72.979  -1.058  1.00  0.00    -0.174 N 
ATOM      8  H6  UNL     1      26.642  72.100  -1.007  1.00  0.00     0.186 HD
HETATM    9  C11 UNL     1      27.959  73.175  -2.157  1.00  0.00     0.142 A 
HETATM   10  N7  UNL     1      28.504  72.058  -2.651  1.00  0.00    -0.293 N 
ATOM     11  H7  UNL     1      28.290  71.157  -2.224  1.00  0.00     0.172 HD
HETATM   12  C12 UNL     1      29.332  72.121  -3.710  1.00  0.00     0.328 A 
HETATM   13  O5  UNL     1      29.835  71.039  -4.159  1.00  0.00    -0.247 OA
HETATM   14  N8  UNL     1      29.636  73.291  -4.295  1.00  0.00    -0.275 N 
ATOM     15  H8  UNL     1      30.269  73.302  -5.096  1.00  0.00     0.173 HD
HETATM   16  C13 UNL     1      29.120  74.445  -3.843  1.00  0.00     0.264 A 
HETATM   17  O6  UNL     1      29.385  75.536  -4.353  1.00  0.00    -0.267 OA
HETATM   18  C14 UNL     1      28.281  74.369  -2.772  1.00  0.00     0.098 A 
ENDROOT
BRANCH   6  19
HETATM   19  N3  UNL     1      26.426  73.442   1.184  1.00  0.00    -0.131 N 
ATOM     20  H3  UNL     1      26.773  72.543   1.519  1.00  0.00     0.205 HD
BRANCH  19  21
HETATM   21  N4  UNL     1      25.501  74.018   1.998  1.00  0.00    -0.287 N 
ATOM     22  H4  UNL     1      25.900  74.611   2.726  1.00  0.00     0.187 HD
BRANCH  21  23
HETATM   23  C5  UNL     1      24.102  73.948   2.022  1.00  0.00     0.050 A 
HETATM   24  C6  UNL     1      23.380  73.424   0.984  1.00  0.00     0.031 A 
HETATM   25  C7  UNL     1      21.982  73.417   1.075  1.00  0.00     0.004 A 
HETATM   26  C8  UNL     1      21.351  73.928   2.191  1.00  0.00     0.025 A 
HETATM   27  C9  UNL     1      22.060  74.460   3.248  1.00  0.00     0.081 A 
HETATM   28  C10 UNL     1      23.427  74.464   3.153  1.00  0.00     0.056 A 
BRANCH  27  29
HETATM   29  S1  UNL     1      21.205  75.105   4.619  1.00  0.00     0.256 S 
HETATM   30  O3  UNL     1      20.032  74.176   4.908  1.00  0.00    -0.201 OA
HETATM   31  O4  UNL     1      22.136  75.096   5.808  1.00  0.00    -0.201 OA
BRANCH  29  32
HETATM   32  N5  UNL     1      20.583  76.683   4.363  1.00  0.00    -0.324 N 
ATOM     33  H52 UNL     1      20.868  77.259   3.571  1.00  0.00     0.169 HD
ATOM     34  H51 UNL     1      19.911  76.978   5.071  1.00  0.00     0.169 HD
ENDBRANCH  29  32
ENDBRANCH  27  29
ENDBRANCH  21  23
ENDBRANCH  19  21
ENDBRANCH   6  19
BRANCH   1  35
HETATM   35  C1  UNL     1      27.450  76.551  -3.424  1.00  0.00     0.271 C 
HETATM   36  N1  UNL     1      26.348  76.281  -4.270  1.00  0.00    -0.057 NA
HETATM   37  O1  UNL     1      28.092  77.595  -3.590  1.00  0.00    -0.271 OA
ENDBRANCH   1  35
TORSDOF 6
ENDMDL
MODEL 2
REMARK VINA RESULT: -9.953307732      2.898      8.510
REMARK  6 active torsions:
REMARK  status: ('A' for Active; 'I' for Inactive)
REMARK    1  A    between atoms: C1_2  and  C2_4 
REMARK    2  A    between atoms: C4_9  and  N3_10 
REMARK    3  A    between atoms: N3_10  and  N4_12 
REMARK    4  A    between atoms: N4_12  and  C5_14 
REMARK    5  A    between atoms: C9_18  and  S1_19 
REMARK    6  A    between atoms: S1_19  and  N5_20 
ROOT
HETATM    1  C2  UNL     1      21.903  74.287   3.615  1.00  0.00     0.117 C 
HETATM    2  C3  UNL     1      23.214  74.425   4.074  1.00  0.00     0.276 C 
HETATM    3  O2  UNL     1      23.333  74.907   5.211  1.00  0.00    -0.267 OA
HETATM    4  N2  UNL     1      24.305  74.071   3.362  1.00  0.00    -0.154 N 
ATOM      5  H2  UNL     1      25.184  74.372   3.782  1.00  0.00     0.187 HD
HETATM    6  C4  UNL     1      24.459  73.394   2.199  1.00  0.00     0.701 C 
HETATM    7  N6  UNL     1      23.475  73.176   1.284  1.00  0.00    -0.174 N 
ATOM      8  H6  UNL     1      23.644  72.459   0.579  1.00  0.00     0.186 HD
HETATM    9  C11 UNL     1      22.273  73.840   1.231  1.00  0.00     0.142 A 
HETATM   10  N7  UNL     1      21.781  73.995  -0.003  1.00  0.00    -0.293 N 
ATOM     11  H7  UNL     1      22.284  73.611  -0.803  1.00  0.00     0.172 HD
HETATM   12  C12 UNL     1      20.623  74.655  -0.192  1.00  0.00     0.328 A 
HETATM   13  O5  UNL     1      20.178  74.785  -1.380  1.00  0.00    -0.247 OA
HETATM   14  N8  UNL     1      19.935  75.174   0.838  1.00  0.00    -0.275 N 
ATOM     15  H8  UNL     1      19.061  75.669   0.659  1.00  0.00     0.173 HD
HETATM   16  C13 UNL     1      20.379  75.051   2.099  1.00  0.00     0.264 A 
HETATM   17  O6  UNL     1      19.776  75.521   3.066  1.00  0.00    -0.267 OA
HETATM   18  C14 UNL     1      21.552  74.379   2.277  1.00  0.00     0.098 A 
ENDROOT
BRANCH   6  19
HETATM   19  N3  UNL     1      25.761  72.914   1.979  1.00  0.00    -0.131 N 
ATOM     20  H3  UNL     1      25.871  71.915   2.154  1.00  0.00     0.205 HD
BRANCH  19  21
HETATM   21  N4  UNL     1      26.900  73.536   1.576  1.00  0.00    -0.287 N 
ATOM     22  H4  UNL     1      27.369  74.064   2.312  1.00  0.00     0.187 HD
BRANCH  21  23
HETATM   23  C5  UNL     1      27.551  73.588   0.335  1.00  0.00     0.050 A 
HETATM   24  C6  UNL     1      28.532  72.698  -0.011  1.00  0.00     0.031 A 
HETATM   25  C7  UNL     1      29.153  72.836  -1.259  1.00  0.00     0.004 A 
HETATM   26  C8  UNL     1      28.778  73.849  -2.119  1.00  0.00     0.025 A 
HETATM   27  C9  UNL     1      27.792  74.755  -1.789  1.00  0.00     0.081 A 
HETATM   28  C10 UNL     1      27.189  74.615  -0.566  1.00  0.00     0.056 A 
BRANCH  27  29
HETATM   29  S1  UNL     1      27.378  76.021  -2.909  1.00  0.00     0.256 S 
HETATM   30  O3  UNL     1      28.613  76.309  -3.753  1.00  0.00    -0.201 OA
HETATM   31  O4  UNL     1      26.279  75.516  -3.812  1.00  0.00    -0.201 OA
BRANCH  29  32
HETATM   32  N5  UNL     1      26.901  77.483  -2.150  1.00  0.00    -0.324 N 
ATOM     33  H52 UNL     1      27.502  77.976  -1.489  1.00  0.00     0.169 HD
ATOM     34  H51 UNL     1      25.972  77.802  -2.424  1.00  0.00     0.169 HD
ENDBRANCH  29  32
ENDBRANCH  27  29
ENDBRANCH  21  23
ENDBRANCH  19  21
ENDBRANCH   6  19
BRANCH   1  35
HETATM   35  C1  UNL     1      20.882  74.074   4.588  1.00  0.00     0.271 C 
HETATM   36  N1  UNL     1      20.663  75.062   5.578  1.00  0.00    -0.057 NA
HETATM   37  O1  UNL     1      20.183  73.054   4.592  1.00  0.00    -0.271 OA
ENDBRANCH   1  35
TORSDOF 6
ENDMDL
MODEL 3
REMARK VINA RESULT: -9.923273356      2.312      2.858
REMARK  6 active torsions:
REMARK  status: ('A' for Active; 'I' for Inactive)
REMARK    1  A    between atoms: C1_2  and  C2_4 
REMARK    2  A    between atoms: C4_9  and  N3_10 
REMARK    3  A    between atoms: N3_10  and  N4_12 
REMARK    4  A    between atoms: N4_12  and  C5_14 
REMARK    5  A    between atoms: C9_18  and  S1_19 
REMARK    6  A    between atoms: S1_19  and  N5_20 
ROOT
HETATM    1  C2  UNL     1      27.798  73.451  -2.806  1.00  0.00     0.117 C 
HETATM    2  C3  UNL     1      28.228  73.006  -1.554  1.00  0.00     0.276 C 
HETATM    3  O2  UNL     1      29.426  72.691  -1.483  1.00  0.00    -0.267 OA
HETATM    4  N2  UNL     1      27.429  72.912  -0.471  1.00  0.00    -0.154 N 
ATOM      5  H2  UNL     1      27.864  72.434   0.319  1.00  0.00     0.187 HD
HETATM    6  C4  UNL     1      26.163  73.327  -0.228  1.00  0.00     0.701 C 
HETATM    7  N6  UNL     1      25.259  73.682  -1.182  1.00  0.00    -0.174 N 
ATOM      8  H6  UNL     1      24.437  74.200  -0.875  1.00  0.00     0.186 HD
HETATM    9  C11 UNL     1      25.361  73.399  -2.523  1.00  0.00     0.142 A 
HETATM   10  N7  UNL     1      24.190  73.208  -3.139  1.00  0.00    -0.293 N 
ATOM     11  H7  UNL     1      23.319  73.300  -2.615  1.00  0.00     0.172 HD
HETATM   12  C12 UNL     1      24.156  72.896  -4.448  1.00  0.00     0.328 A 
HETATM   13  O5  UNL     1      23.024  72.722  -5.008  1.00  0.00    -0.247 OA
HETATM   14  N8  UNL     1      25.283  72.766  -5.168  1.00  0.00    -0.275 N 
ATOM     15  H8  UNL     1      25.222  72.527  -6.158  1.00  0.00     0.173 HD
HETATM   16  C13 UNL     1      26.489  72.945  -4.603  1.00  0.00     0.264 A 
HETATM   17  O6  UNL     1      27.541  72.826  -5.233  1.00  0.00    -0.267 OA
HETATM   18  C14 UNL     1      26.509  73.262  -3.278  1.00  0.00     0.098 A 
ENDROOT
BRANCH   6  19
HETATM   19  N3  UNL     1      25.820  73.365   1.134  1.00  0.00    -0.131 N 
ATOM     20  H3  UNL     1      26.322  72.689   1.709  1.00  0.00     0.205 HD
BRANCH  19  21
HETATM   21  N4  UNL     1      24.941  74.138   1.825  1.00  0.00    -0.287 N 
ATOM     22  H4  UNL     1      25.363  74.957   2.264  1.00  0.00     0.187 HD
BRANCH  21  23
HETATM   23  C5  UNL     1      23.562  74.020   2.048  1.00  0.00     0.050 A 
HETATM   24  C6  UNL     1      22.735  73.373   1.171  1.00  0.00     0.031 A 
HETATM   25  C7  UNL     1      21.363  73.323   1.453  1.00  0.00     0.004 A 
HETATM   26  C8  UNL     1      20.863  73.916   2.595  1.00  0.00     0.025 A 
HETATM   27  C9  UNL     1      21.680  74.573   3.491  1.00  0.00     0.081 A 
HETATM   28  C10 UNL     1      23.020  74.618   3.209  1.00  0.00     0.056 A 
BRANCH  27  29
HETATM   29  S1  UNL     1      20.984  75.315   4.904  1.00  0.00     0.256 S 
HETATM   30  O3  UNL     1      19.776  74.482   5.313  1.00  0.00    -0.201 OA
HETATM   31  O4  UNL     1      22.005  75.271   6.015  1.00  0.00    -0.201 OA
BRANCH  29  32
HETATM   32  N5  UNL     1      20.456  76.926   4.645  1.00  0.00    -0.324 N 
ATOM     33  H52 UNL     1      20.423  77.347   3.716  1.00  0.00     0.169 HD
ATOM     34  H51 UNL     1      20.184  77.411   5.501  1.00  0.00     0.169 HD
ENDBRANCH  29  32
ENDBRANCH  27  29
ENDBRANCH  21  23
ENDBRANCH  19  21
ENDBRANCH   6  19
BRANCH   1  35
HETATM   35  C1  UNL     1      28.755  74.100  -3.641  1.00  0.00     0.271 C 
HETATM   36  N1  UNL     1      28.691  75.506  -3.790  1.00  0.00    -0.057 NA
HETATM   37  O1  UNL     1      29.638  73.473  -4.237  1.00  0.00    -0.271 OA
ENDBRANCH   1  35
TORSDOF 6
ENDMDL
MODEL 4
REMARK VINA RESULT: -9.834515548      7.703      9.530
REMARK  6 active torsions:
REMARK  status: ('A' for Active; 'I' for Inactive)
REMARK    1  A    between atoms: C1_2  and  C2_4 
REMARK    2  A    between atoms: C4_9  and  N3_10 
REMARK    3  A    between atoms: N3_10  and  N4_12 
REMARK    4  A    between atoms: N4_12  and  C5_14 
REMARK    5  A    between atoms: C9_18  and  S1_19 
REMARK    6  A    between atoms: S1_19  and  N5_20 
ROOT
HETATM    1  C2  UNL     1      30.531  71.782  -7.844  1.00  0.00     0.117 C 
HETATM    2  C3  UNL     1      30.397  73.170  -7.914  1.00  0.00     0.276 C 
HETATM    3  O2  UNL     1      31.177  73.743  -8.690  1.00  0.00    -0.267 OA
HETATM    4  N2  UNL     1      29.493  73.879  -7.205  1.00  0.00    -0.154 N 
ATOM      5  H2  UNL     1      29.626  74.888  -7.263  1.00  0.00     0.187 HD
HETATM    6  C4  UNL     1      28.445  73.510  -6.430  1.00  0.00     0.701 C 
HETATM    7  N6  UNL     1      28.247  72.262  -5.923  1.00  0.00    -0.174 N 
ATOM      8  H6  UNL     1      27.316  72.046  -5.567  1.00  0.00     0.186 HD
HETATM    9  C11 UNL     1      29.195  71.271  -5.851  1.00  0.00     0.142 A 
HETATM   10  N7  UNL     1      29.061  70.453  -4.801  1.00  0.00    -0.293 N 
ATOM     11  H7  UNL     1      28.287  70.584  -4.150  1.00  0.00     0.172 HD
HETATM   12  C12 UNL     1      29.945  69.457  -4.602  1.00  0.00     0.328 A 
HETATM   13  O5  UNL     1      29.790  68.693  -3.593  1.00  0.00    -0.247 OA
HETATM   14  N8  UNL     1      30.977  69.256  -5.438  1.00  0.00    -0.275 N 
ATOM     15  H8  UNL     1      31.629  68.493  -5.257  1.00  0.00     0.173 HD
HETATM   16  C13 UNL     1      31.163  70.046  -6.509  1.00  0.00     0.264 A 
HETATM   17  O6  UNL     1      32.104  69.894  -7.291  1.00  0.00    -0.267 OA
HETATM   18  C14 UNL     1      30.261  71.049  -6.700  1.00  0.00     0.098 A 
ENDROOT
BRANCH   6  19
HETATM   19  N3  UNL     1      27.533  74.545  -6.163  1.00  0.00    -0.131 N 
ATOM     20  H3  UNL     1      26.719  74.253  -5.623  1.00  0.00     0.205 HD
BRANCH  19  21
HETATM   21  N4  UNL     1      27.537  75.864  -6.494  1.00  0.00    -0.287 N 
ATOM     22  H4  UNL     1      27.069  76.073  -7.376  1.00  0.00     0.187 HD
BRANCH  21  23
HETATM   23  C5  UNL     1      28.066  76.990  -5.848  1.00  0.00     0.050 A 
HETATM   24  C6  UNL     1      27.692  77.345  -4.579  1.00  0.00     0.031 A 
HETATM   25  C7  UNL     1      28.246  78.502  -4.015  1.00  0.00     0.004 A 
HETATM   26  C8  UNL     1      29.150  79.263  -4.728  1.00  0.00     0.025 A 
HETATM   27  C9  UNL     1      29.539  78.923  -6.007  1.00  0.00     0.081 A 
HETATM   28  C10 UNL     1      28.993  77.790  -6.553  1.00  0.00     0.056 A 
BRANCH  27  29
HETATM   29  S1  UNL     1      30.669  79.934  -6.860  1.00  0.00     0.256 S 
HETATM   30  O3  UNL     1      31.777  79.036  -7.395  1.00  0.00    -0.201 OA
HETATM   31  O4  UNL     1      29.952  80.570  -8.026  1.00  0.00    -0.201 OA
BRANCH  29  32
HETATM   32  N5  UNL     1      31.392  81.140  -5.877  1.00  0.00    -0.324 N 
ATOM     33  H52 UNL     1      32.124  81.760  -6.224  1.00  0.00     0.169 HD
ATOM     34  H51 UNL     1      31.020  81.171  -4.928  1.00  0.00     0.169 HD
ENDBRANCH  29  32
ENDBRANCH  27  29
ENDBRANCH  21  23
ENDBRANCH  19  21
ENDBRANCH   6  19
BRANCH   1  35
HETATM   35  C1  UNL     1      31.001  71.105  -9.009  1.00  0.00     0.271 C 
HETATM   36  N1  UNL     1      30.097  70.307  -9.749  1.00  0.00    -0.057 NA
HETATM   37  O1  UNL     1      32.174  71.195  -9.390  1.00  0.00    -0.271 OA
ENDBRANCH   1  35
TORSDOF 6
ENDMDL
MODEL 5
REMARK VINA RESULT: -9.732751910      3.249      7.538
REMARK  6 active torsions:
REMARK  status: ('A' for Active; 'I' for Inactive)
REMARK    1  A    between atoms: C1_2  and  C2_4 
REMARK    2  A    between atoms: C4_9  and  N3_10 
REMARK    3  A    between atoms: N3_10  and  N4_12 
REMARK    4  A    between atoms: N4_12  and  C5_14 
REMARK    5  A    between atoms: C9_18  and  S1_19 
REMARK    6  A    between atoms: S1_19  and  N5_20 
ROOT
HETATM    1  C2  UNL     1      21.877  74.141   1.435  1.00  0.00     0.117 C 
HETATM    2  C3  UNL     1      22.788  74.405   2.459  1.00  0.00     0.276 C 
HETATM    3  O2  UNL     1      22.309  74.919   3.480  1.00  0.00    -0.267 OA
HETATM    4  N2  UNL     1      24.109  74.134   2.383  1.00  0.00    -0.154 N 
ATOM      5  H2  UNL     1      24.652  74.520   3.154  1.00  0.00     0.187 HD
HETATM    6  C4  UNL     1      24.852  73.448   1.481  1.00  0.00     0.701 C 
HETATM    7  N6  UNL     1      24.452  73.123   0.222  1.00  0.00    -0.174 N 
ATOM      8  H6  UNL     1      24.989  72.409  -0.269  1.00  0.00     0.186 HD
HETATM    9  C11 UNL     1      23.385  73.677  -0.444  1.00  0.00     0.142 A 
HETATM   10  N7  UNL     1      23.543  73.761  -1.770  1.00  0.00    -0.293 N 
ATOM     11  H7  UNL     1      24.395  73.406  -2.203  1.00  0.00     0.172 HD
HETATM   12  C12 UNL     1      22.580  74.311  -2.533  1.00  0.00     0.328 A 
HETATM   13  O5  UNL     1      22.759  74.375  -3.793  1.00  0.00    -0.247 OA
HETATM   14  N8  UNL     1      21.446  74.789  -1.995  1.00  0.00    -0.275 N 
ATOM     15  H8  UNL     1      20.737  75.201  -2.603  1.00  0.00     0.173 HD
HETATM   16  C13 UNL     1      21.231  74.733  -0.671  1.00  0.00     0.264 A 
HETATM   17  O6  UNL     1      20.205  75.169  -0.145  1.00  0.00    -0.267 OA
HETATM   18  C14 UNL     1      22.212  74.172   0.091  1.00  0.00     0.098 A 
ENDROOT
BRANCH   6  19
HETATM   19  N3  UNL     1      26.126  73.080   1.945  1.00  0.00    -0.131 N 
ATOM     20  H3  UNL     1      26.114  72.527   2.802  1.00  0.00     0.205 HD
BRANCH  19  21
HETATM   21  N4  UNL     1      27.372  73.326   1.461  1.00  0.00    -0.287 N 
ATOM     22  H4  UNL     1      28.076  73.480   2.184  1.00  0.00     0.187 HD
BRANCH  21  23
HETATM   23  C5  UNL     1      27.870  73.409   0.154  1.00  0.00     0.050 A 
HETATM   24  C6  UNL     1      28.760  72.496  -0.346  1.00  0.00     0.031 A 
HETATM   25  C7  UNL     1      29.232  72.666  -1.655  1.00  0.00     0.004 A 
HETATM   26  C8  UNL     1      28.804  73.733  -2.419  1.00  0.00     0.025 A 
HETATM   27  C9  UNL     1      27.909  74.663  -1.934  1.00  0.00     0.081 A 
HETATM   28  C10 UNL     1      27.452  74.492  -0.653  1.00  0.00     0.056 A 
BRANCH  27  29
HETATM   29  S1  UNL     1      27.423  75.996  -2.942  1.00  0.00     0.256 S 
HETATM   30  O3  UNL     1      28.611  76.361  -3.824  1.00  0.00    -0.201 OA
HETATM   31  O4  UNL     1      26.286  75.537  -3.822  1.00  0.00    -0.201 OA
BRANCH  29  32
HETATM   32  N5  UNL     1      26.966  77.395  -2.060  1.00  0.00    -0.324 N 
ATOM     33  H52 UNL     1      25.991  77.613  -1.852  1.00  0.00     0.169 HD
ATOM     34  H51 UNL     1      27.755  77.973  -1.772  1.00  0.00     0.169 HD
ENDBRANCH  29  32
ENDBRANCH  27  29
ENDBRANCH  21  23
ENDBRANCH  19  21
ENDBRANCH   6  19
BRANCH   1  35
HETATM   35  C1  UNL     1      20.529  73.859   1.808  1.00  0.00     0.271 C 
HETATM   36  N1  UNL     1      20.005  72.568   1.559  1.00  0.00    -0.057 NA
HETATM   37  O1  UNL     1      19.805  74.708   2.342  1.00  0.00    -0.271 OA
ENDBRANCH   1  35
TORSDOF 6
ENDMDL
