MODEL 1
REMARK VINA RESULT: -8.864769000      0.000      0.000
REMARK  9 active torsions:
REMARK  status: ('A' for Active; 'I' for Inactive)
REMARK    1  A    between atoms: C3_6  and  N3_7 
REMARK    2  A    between atoms: N3_7  and  C4_9 
REMARK    3  A    between atoms: C5_12  and  N5_13 
REMARK    4  A    between atoms: C7_15  and  N6_16 
REMARK    5  A    between atoms: C9_21  and  N7_22 
REMARK    6  A    between atoms: C11_29  and  N9_30 
REMARK    7  A    between atoms: C13_32  and  N10_33 
REMARK    8  A    between atoms: C15_38  and  N11_39 
REMARK    9  A    between atoms: N11_39  and  C16_41 
ROOT
HETATM    1  C4  UNL     1      23.218  73.625   1.455  1.00  0.00     0.707 A 
HETATM    2  N4  UNL     1      24.552  73.704   1.390  1.00  0.00    -0.021 N 
ATOM      3  H4  UNL     1      25.107  73.770   2.244  1.00  0.00     0.203 HD
HETATM    4  C5  UNL     1      25.147  73.695   0.201  1.00  0.00     0.709 A 
HETATM    5  N8  UNL     1      24.432  73.607  -0.936  1.00  0.00    -0.021 N 
ATOM      6  H8  UNL     1      24.913  73.602  -1.836  1.00  0.00     0.203 HD
HETATM    7  C11 UNL     1      23.098  73.527  -0.898  1.00  0.00     0.709 A 
HETATM    8  N12 UNL     1      22.502  73.537   0.298  1.00  0.00    -0.021 N 
ATOM      9  H12 UNL     1      21.485  73.476   0.347  1.00  0.00     0.203 HD
ENDROOT
BRANCH   4  10
HETATM   10  N5  UNL     1      26.557  73.779   0.113  1.00  0.00    -0.213 N 
HETATM   11  C6  UNL     1      27.254  72.796  -0.693  1.00  0.00     0.174 C 
HETATM   12  C7  UNL     1      28.670  73.339  -0.899  1.00  0.00     0.204 C 
HETATM   13  C8  UNL     1      28.527  74.782  -1.291  1.00  0.00     0.069 C 
HETATM   14  C9  UNL     1      28.222  75.584  -0.045  1.00  0.00     0.204 C 
HETATM   15  C10 UNL     1      27.255  74.831   0.822  1.00  0.00     0.174 C 
BRANCH  12  16
HETATM   16  N6  UNL     1      29.282  72.518  -1.905  1.00  0.00    -0.073 N 
ATOM     17  H63 UNL     1      29.009  71.537  -1.845  1.00  0.00     0.274 HD
ATOM     18  H62 UNL     1      28.921  72.695  -2.843  1.00  0.00     0.274 HD
ATOM     19  H61 UNL     1      30.289  72.662  -1.827  1.00  0.00     0.274 HD
ENDBRANCH  12  16
BRANCH  14  20
HETATM   20  N7  UNL     1      27.623  76.840  -0.505  1.00  0.00    -0.073 N 
ATOM     21  H73 UNL     1      27.356  77.466   0.256  1.00  0.00     0.274 HD
ATOM     22  H72 UNL     1      28.291  77.468  -0.952  1.00  0.00     0.274 HD
ATOM     23  H71 UNL     1      26.843  76.580  -1.108  1.00  0.00     0.274 HD
ENDBRANCH  14  20
ENDBRANCH   4  10
BRANCH   1  24
HETATM   24  N3  UNL     1      22.676  73.636   2.611  1.00  0.00    -0.218 N 
ATOM     25  H3  UNL     1      22.376  72.761   3.040  1.00  0.00     0.178 HD
BRANCH  24  26
HETATM   26  C3  UNL     1      22.488  74.875   3.310  1.00  0.00     0.123 C 
HETATM   27  C2  UNL     1      21.162  75.471   2.914  1.00  0.00     0.146 C 
HETATM   28  N2  UNL     1      20.790  76.252   4.062  1.00  0.00    -0.380 N 
HETATM   29  C1  UNL     1      21.354  75.808   5.124  1.00  0.00     0.090 C 
ATOM     30  H2  UNL     1      20.160  77.054   4.035  1.00  0.00     0.160 HD
HETATM   31  N1  UNL     1      21.233  76.314   6.451  1.00  0.00    -0.088 NA
HETATM   32  C18 UNL     1      22.228  74.619   4.806  1.00  0.00     0.100 C 
ENDBRANCH  24  26
ENDBRANCH   1  24
BRANCH   7  33
HETATM   33  N9  UNL     1      22.377  73.436  -2.118  1.00  0.00    -0.213 N 
HETATM   34  C12 UNL     1      20.930  73.495  -2.100  1.00  0.00     0.174 C 
HETATM   35  C13 UNL     1      20.411  73.806  -3.464  1.00  0.00     0.204 C 
HETATM   36  C14 UNL     1      21.266  74.911  -4.057  1.00  0.00     0.061 C 
HETATM   37  C15 UNL     1      22.677  74.452  -4.288  1.00  0.00     0.104 C 
HETATM   38  C17 UNL     1      23.046  73.281  -3.398  1.00  0.00     0.166 C 
BRANCH  35  39
HETATM   39  N10 UNL     1      20.333  72.631  -4.274  1.00  0.00    -0.073 N 
ATOM     40 3H10 UNL     1      20.928  71.887  -3.910  1.00  0.00     0.274 HD
ATOM     41 2H10 UNL     1      19.428  72.171  -4.178  1.00  0.00     0.274 HD
ATOM     42 1H10 UNL     1      20.546  72.837  -5.251  1.00  0.00     0.274 HD
ENDBRANCH  35  39
BRANCH  37  43
HETATM   43  N11 UNL     1      22.916  74.167  -5.677  1.00  0.00    -0.362 N 
ATOM     44  H11 UNL     1      22.254  73.603  -6.210  1.00  0.00     0.162 HD
BRANCH  43  45
HETATM   45  C16 UNL     1      24.080  74.678  -6.297  1.00  0.00     0.348 C 
HETATM   46  O1  UNL     1      24.961  75.309  -5.635  1.00  0.00    -0.284 OA
ENDBRANCH  43  45
ENDBRANCH  37  43
ENDBRANCH   7  33
TORSDOF 9
ENDMDL
MODEL 2
REMARK VINA RESULT: -8.716330758      5.268      9.457
REMARK  9 active torsions:
REMARK  status: ('A' for Active; 'I' for Inactive)
REMARK    1  A    between atoms: C3_6  and  N3_7 
REMARK    2  A    between atoms: N3_7  and  C4_9 
REMARK    3  A    between atoms: C5_12  and  N5_13 
REMARK    4  A    between atoms: C7_15  and  N6_16 
REMARK    5  A    between atoms: C9_21  and  N7_22 
REMARK    6  A    between atoms: C11_29  and  N9_30 
REMARK    7  A    between atoms: C13_32  and  N10_33 
REMARK    8  A    between atoms: C15_38  and  N11_39 
REMARK    9  A    between atoms: N11_39  and  C16_41 
ROOT
HETATM    1  C4  UNL     1      28.301  75.929  -5.793  1.00  0.00     0.707 A 
HETATM    2  N4  UNL     1      28.656  74.853  -6.504  1.00  0.00    -0.021 N 
ATOM      3  H4  UNL     1      28.927  74.947  -7.483  1.00  0.00     0.203 HD
HETATM    4  C5  UNL     1      28.652  73.658  -5.921  1.00  0.00     0.709 A 
HETATM    5  N8  UNL     1      28.298  73.513  -4.630  1.00  0.00    -0.021 N 
ATOM      6  H8  UNL     1      28.304  72.585  -4.206  1.00  0.00     0.203 HD
HETATM    7  C11 UNL     1      27.940  74.573  -3.899  1.00  0.00     0.709 A 
HETATM    8  N12 UNL     1      27.945  75.773  -4.487  1.00  0.00    -0.021 N 
ATOM      9  H12 UNL     1      27.674  76.594  -3.945  1.00  0.00     0.203 HD
ENDROOT
BRANCH   4  10
HETATM   10  N5  UNL     1      29.023  72.508  -6.657  1.00  0.00    -0.213 N 
HETATM   11  C6  UNL     1      30.075  72.636  -7.646  1.00  0.00     0.174 C 
HETATM   12  C7  UNL     1      30.504  71.211  -8.001  1.00  0.00     0.204 C 
HETATM   13  C8  UNL     1      30.672  70.474  -6.704  1.00  0.00     0.069 C 
HETATM   14  C9  UNL     1      29.299  70.109  -6.184  1.00  0.00     0.204 C 
HETATM   15  C10 UNL     1      28.350  71.251  -6.405  1.00  0.00     0.174 C 
BRANCH  12  16
HETATM   16  N6  UNL     1      31.711  71.324  -8.769  1.00  0.00    -0.073 N 
ATOM     17  H63 UNL     1      31.557  71.256  -9.775  1.00  0.00     0.274 HD
ATOM     18  H62 UNL     1      32.105  72.266  -8.764  1.00  0.00     0.274 HD
ATOM     19  H61 UNL     1      32.353  70.618  -8.411  1.00  0.00     0.274 HD
ENDBRANCH  12  16
BRANCH  14  20
HETATM   20  N7  UNL     1      29.460  69.850  -4.750  1.00  0.00    -0.073 N 
ATOM     21  H73 UNL     1      30.050  70.535  -4.278  1.00  0.00     0.274 HD
ATOM     22  H72 UNL     1      28.613  70.022  -4.208  1.00  0.00     0.274 HD
ATOM     23  H71 UNL     1      29.805  68.894  -4.671  1.00  0.00     0.274 HD
ENDBRANCH  14  20
ENDBRANCH   4  10
BRANCH   1  24
HETATM   24  N3  UNL     1      28.315  77.063  -6.382  1.00  0.00    -0.218 N 
ATOM     25  H3  UNL     1      27.454  77.441  -6.775  1.00  0.00     0.178 HD
BRANCH  24  26
HETATM   26  C3  UNL     1      29.538  77.805  -6.492  1.00  0.00     0.123 C 
HETATM   27  C2  UNL     1      29.488  78.659  -7.733  1.00  0.00     0.146 C 
HETATM   28  N2  UNL     1      30.351  79.764  -7.413  1.00  0.00    -0.380 N 
HETATM   29  C1  UNL     1      30.434  79.932  -6.145  1.00  0.00     0.090 C 
ATOM     30  H2  UNL     1      30.833  80.339  -8.105  1.00  0.00     0.160 HD
HETATM   31  N1  UNL     1      31.188  80.918  -5.446  1.00  0.00    -0.088 NA
HETATM   32  C18 UNL     1      29.604  78.904  -5.415  1.00  0.00     0.100 C 
ENDBRANCH  24  26
ENDBRANCH   1  24
BRANCH   7  33
HETATM   33  N9  UNL     1      27.573  74.382  -2.540  1.00  0.00    -0.213 N 
HETATM   34  C12 UNL     1      26.582  73.381  -2.201  1.00  0.00     0.174 C 
HETATM   35  C13 UNL     1      26.658  73.056  -0.747  1.00  0.00     0.204 C 
HETATM   36  C14 UNL     1      28.121  72.920  -0.365  1.00  0.00     0.061 C 
HETATM   37  C15 UNL     1      28.847  74.228  -0.495  1.00  0.00     0.104 C 
HETATM   38  C17 UNL     1      28.158  75.166  -1.467  1.00  0.00     0.166 C 
BRANCH  35  39
HETATM   39  N10 UNL     1      25.936  74.007   0.040  1.00  0.00    -0.073 N 
ATOM     40 3H10 UNL     1      25.336  74.593  -0.541  1.00  0.00     0.274 HD
ATOM     41 2H10 UNL     1      25.217  73.555   0.604  1.00  0.00     0.274 HD
ATOM     42 1H10 UNL     1      26.564  74.568   0.616  1.00  0.00     0.274 HD
ENDBRANCH  35  39
BRANCH  37  43
HETATM   43  N11 UNL     1      29.058  74.842   0.788  1.00  0.00    -0.362 N 
ATOM     44  H11 UNL     1      28.819  75.823   0.936  1.00  0.00     0.162 HD
BRANCH  43  45
HETATM   45  C16 UNL     1      29.601  74.071   1.842  1.00  0.00     0.348 C 
HETATM   46  O1  UNL     1      30.378  74.584   2.705  1.00  0.00    -0.284 OA
ENDBRANCH  43  45
ENDBRANCH  37  43
ENDBRANCH   7  33
TORSDOF 9
ENDMDL
MODEL 3
REMARK VINA RESULT: -8.536423158      5.244      9.542
REMARK  9 active torsions:
REMARK  status: ('A' for Active; 'I' for Inactive)
REMARK    1  A    between atoms: C3_6  and  N3_7 
REMARK    2  A    between atoms: N3_7  and  C4_9 
REMARK    3  A    between atoms: C5_12  and  N5_13 
REMARK    4  A    between atoms: C7_15  and  N6_16 
REMARK    5  A    between atoms: C9_21  and  N7_22 
REMARK    6  A    between atoms: C11_29  and  N9_30 
REMARK    7  A    between atoms: C13_32  and  N10_33 
REMARK    8  A    between atoms: C15_38  and  N11_39 
REMARK    9  A    between atoms: N11_39  and  C16_41 
ROOT
HETATM    1  C4  UNL     1      28.535  75.929  -5.706  1.00  0.00     0.707 A 
HETATM    2  N4  UNL     1      29.073  74.884  -6.346  1.00  0.00    -0.021 N 
ATOM      3  H4  UNL     1      29.409  74.983  -7.304  1.00  0.00     0.203 HD
HETATM    4  C5  UNL     1      29.165  73.715  -5.718  1.00  0.00     0.709 A 
HETATM    5  N8  UNL     1      28.728  73.566  -4.454  1.00  0.00    -0.021 N 
ATOM      6  H8  UNL     1      28.811  72.658  -3.995  1.00  0.00     0.203 HD
HETATM    7  C11 UNL     1      28.187  74.594  -3.794  1.00  0.00     0.709 A 
HETATM    8  N12 UNL     1      28.095  75.768  -4.426  1.00  0.00    -0.021 N 
ATOM      9  H12 UNL     1      27.684  76.565  -3.939  1.00  0.00     0.203 HD
ENDROOT
BRANCH   4  10
HETATM   10  N5  UNL     1      29.730  72.599  -6.379  1.00  0.00    -0.213 N 
HETATM   11  C6  UNL     1      30.181  71.480  -5.575  1.00  0.00     0.174 C 
HETATM   12  C7  UNL     1      30.389  70.314  -6.542  1.00  0.00     0.204 C 
HETATM   13  C8  UNL     1      29.176  70.263  -7.426  1.00  0.00     0.069 C 
HETATM   14  C9  UNL     1      29.296  71.360  -8.461  1.00  0.00     0.204 C 
HETATM   15  C10 UNL     1      29.841  72.605  -7.823  1.00  0.00     0.174 C 
BRANCH  12  16
HETATM   16  N6  UNL     1      30.575  69.140  -5.737  1.00  0.00    -0.073 N 
ATOM     17  H63 UNL     1      29.856  68.431  -5.887  1.00  0.00     0.274 HD
ATOM     18  H62 UNL     1      31.374  68.576  -6.026  1.00  0.00     0.274 HD
ATOM     19  H61 UNL     1      30.633  69.456  -4.769  1.00  0.00     0.274 HD
ENDBRANCH  12  16
BRANCH  14  20
HETATM   20  N7  UNL     1      27.940  71.597  -8.964  1.00  0.00    -0.073 N 
ATOM     21  H73 UNL     1      27.329  72.054  -8.287  1.00  0.00     0.274 HD
ATOM     22  H72 UNL     1      27.894  72.321  -9.681  1.00  0.00     0.274 HD
ATOM     23  H71 UNL     1      27.591  70.692  -9.278  1.00  0.00     0.274 HD
ENDBRANCH  14  20
ENDBRANCH   4  10
BRANCH   1  24
HETATM   24  N3  UNL     1      28.460  77.038  -6.335  1.00  0.00    -0.218 N 
ATOM     25  H3  UNL     1      27.563  77.351  -6.708  1.00  0.00     0.178 HD
BRANCH  24  26
HETATM   26  C3  UNL     1      29.631  77.845  -6.522  1.00  0.00     0.123 C 
HETATM   27  C2  UNL     1      29.458  78.694  -7.755  1.00  0.00     0.146 C 
HETATM   28  N2  UNL     1      30.279  79.843  -7.488  1.00  0.00    -0.380 N 
HETATM   29  C1  UNL     1      30.434  80.017  -6.227  1.00  0.00     0.090 C 
ATOM     30  H2  UNL     1      30.685  80.442  -8.207  1.00  0.00     0.160 HD
HETATM   31  N1  UNL     1      31.177  81.042  -5.574  1.00  0.00    -0.088 NA
HETATM   32  C18 UNL     1      29.707  78.946  -5.448  1.00  0.00     0.100 C 
ENDBRANCH  24  26
ENDBRANCH   1  24
BRANCH   7  33
HETATM   33  N9  UNL     1      27.736  74.399  -2.462  1.00  0.00    -0.213 N 
HETATM   34  C12 UNL     1      26.685  73.439  -2.195  1.00  0.00     0.174 C 
HETATM   35  C13 UNL     1      26.666  73.088  -0.745  1.00  0.00     0.204 C 
HETATM   36  C14 UNL     1      28.097  72.880  -0.286  1.00  0.00     0.061 C 
HETATM   37  C15 UNL     1      28.887  74.156  -0.353  1.00  0.00     0.104 C 
HETATM   38  C17 UNL     1      28.295  75.140  -1.344  1.00  0.00     0.166 C 
BRANCH  35  39
HETATM   39  N10 UNL     1      25.944  74.058   0.018  1.00  0.00    -0.073 N 
ATOM     40 3H10 UNL     1      25.805  73.749   0.980  1.00  0.00     0.274 HD
ATOM     41 2H10 UNL     1      26.510  74.887   0.200  1.00  0.00     0.274 HD
ATOM     42 1H10 UNL     1      25.059  74.301  -0.429  1.00  0.00     0.274 HD
ENDBRANCH  35  39
BRANCH  37  43
HETATM   43  N11 UNL     1      29.053  74.740   0.951  1.00  0.00    -0.362 N 
ATOM     44  H11 UNL     1      28.644  75.651   1.164  1.00  0.00     0.162 HD
BRANCH  43  45
HETATM   45  C16 UNL     1      29.789  74.039   1.934  1.00  0.00     0.348 C 
HETATM   46  O1  UNL     1      30.467  74.651   2.815  1.00  0.00    -0.284 OA
ENDBRANCH  43  45
ENDBRANCH  37  43
ENDBRANCH   7  33
TORSDOF 9
ENDMDL
MODEL 4
REMARK VINA RESULT: -8.483840704      5.292      9.594
REMARK  9 active torsions:
REMARK  status: ('A' for Active; 'I' for Inactive)
REMARK    1  A    between atoms: C3_6  and  N3_7 
REMARK    2  A    between atoms: N3_7  and  C4_9 
REMARK    3  A    between atoms: C5_12  and  N5_13 
REMARK    4  A    between atoms: C7_15  and  N6_16 
REMARK    5  A    between atoms: C9_21  and  N7_22 
REMARK    6  A    between atoms: C11_29  and  N9_30 
REMARK    7  A    between atoms: C13_32  and  N10_33 
REMARK    8  A    between atoms: C15_38  and  N11_39 
REMARK    9  A    between atoms: N11_39  and  C16_41 
ROOT
HETATM    1  C4  UNL     1      28.616  75.431  -5.833  1.00  0.00     0.707 A 
HETATM    2  N4  UNL     1      28.973  74.482  -6.708  1.00  0.00    -0.021 N 
ATOM      3  H4  UNL     1      29.106  74.712  -7.693  1.00  0.00     0.203 HD
HETATM    4  C5  UNL     1      29.152  73.237  -6.278  1.00  0.00     0.709 A 
HETATM    5  N8  UNL     1      28.982  72.914  -4.983  1.00  0.00    -0.021 N 
ATOM      6  H8  UNL     1      29.127  71.951  -4.679  1.00  0.00     0.203 HD
HETATM    7  C11 UNL     1      28.626  73.843  -4.090  1.00  0.00     0.709 A 
HETATM    8  N12 UNL     1      28.446  75.095  -4.523  1.00  0.00    -0.021 N 
ATOM      9  H12 UNL     1      28.175  75.817  -3.857  1.00  0.00     0.203 HD
ENDROOT
BRANCH   4  10
HETATM   10  N5  UNL     1      29.528  72.221  -7.189  1.00  0.00    -0.213 N 
HETATM   11  C6  UNL     1      30.485  72.549  -8.227  1.00  0.00     0.174 C 
HETATM   12  C7  UNL     1      30.967  71.215  -8.802  1.00  0.00     0.204 C 
HETATM   13  C8  UNL     1      31.285  70.329  -7.632  1.00  0.00     0.069 C 
HETATM   14  C9  UNL     1      29.983  69.805  -7.065  1.00  0.00     0.204 C 
HETATM   15  C10 UNL     1      28.954  70.898  -7.059  1.00  0.00     0.174 C 
BRANCH  12  16
HETATM   16  N6  UNL     1      32.097  71.511  -9.635  1.00  0.00    -0.073 N 
ATOM     17  H63 UNL     1      31.927  72.276 -10.289  1.00  0.00     0.274 HD
ATOM     18  H62 UNL     1      32.868  71.946  -9.128  1.00  0.00     0.274 HD
ATOM     19  H61 UNL     1      32.358  70.639 -10.095  1.00  0.00     0.274 HD
ENDBRANCH  12  16
BRANCH  14  20
HETATM   20  N7  UNL     1      30.279  69.375  -5.695  1.00  0.00    -0.073 N 
ATOM     21  H73 UNL     1      30.165  68.371  -5.552  1.00  0.00     0.274 HD
ATOM     22  H72 UNL     1      31.270  69.423  -5.459  1.00  0.00     0.274 HD
ATOM     23  H71 UNL     1      29.688  69.941  -5.086  1.00  0.00     0.274 HD
ENDBRANCH  14  20
ENDBRANCH   4  10
BRANCH   1  24
HETATM   24  N3  UNL     1      28.451  76.617  -6.276  1.00  0.00    -0.218 N 
ATOM     25  H3  UNL     1      27.515  76.946  -6.511  1.00  0.00     0.178 HD
BRANCH  24  26
HETATM   26  C3  UNL     1      29.578  77.490  -6.445  1.00  0.00     0.123 C 
HETATM   27  C2  UNL     1      29.393  78.300  -7.702  1.00  0.00     0.146 C 
HETATM   28  N2  UNL     1      30.135  79.503  -7.436  1.00  0.00    -0.380 N 
HETATM   29  C1  UNL     1      30.238  79.712  -6.176  1.00  0.00     0.090 C 
ATOM     30  H2  UNL     1      30.527  80.110  -8.156  1.00  0.00     0.160 HD
HETATM   31  N1  UNL     1      30.897  80.795  -5.524  1.00  0.00    -0.088 NA
HETATM   32  C18 UNL     1      29.552  78.616  -5.395  1.00  0.00     0.100 C 
ENDBRANCH  24  26
ENDBRANCH   1  24
BRANCH   7  33
HETATM   33  N9  UNL     1      28.456  73.465  -2.732  1.00  0.00    -0.213 N 
HETATM   34  C12 UNL     1      29.565  72.881  -2.007  1.00  0.00     0.174 C 
HETATM   35  C13 UNL     1      29.316  72.956  -0.538  1.00  0.00     0.204 C 
HETATM   36  C14 UNL     1      28.767  74.335  -0.218  1.00  0.00     0.061 C 
HETATM   37  C15 UNL     1      27.416  74.547  -0.840  1.00  0.00     0.104 C 
HETATM   38  C17 UNL     1      27.193  73.642  -2.037  1.00  0.00     0.166 C 
BRANCH  35  39
HETATM   39  N10 UNL     1      28.486  71.881  -0.093  1.00  0.00    -0.073 N 
ATOM     40 3H10 UNL     1      28.971  71.290   0.583  1.00  0.00     0.274 HD
ATOM     41 2H10 UNL     1      27.730  72.215   0.504  1.00  0.00     0.274 HD
ATOM     42 1H10 UNL     1      28.129  71.335  -0.878  1.00  0.00     0.274 HD
ENDBRANCH  35  39
BRANCH  37  43
HETATM   43  N11 UNL     1      26.364  74.420   0.133  1.00  0.00    -0.362 N 
ATOM     44  H11 UNL     1      26.354  75.015   0.962  1.00  0.00     0.162 HD
BRANCH  43  45
HETATM   45  C16 UNL     1      25.345  73.461  -0.072  1.00  0.00     0.348 C 
HETATM   46  O1  UNL     1      24.461  73.237   0.811  1.00  0.00    -0.284 OA
ENDBRANCH  43  45
ENDBRANCH  37  43
ENDBRANCH   7  33
TORSDOF 9
ENDMDL
MODEL 5
REMARK VINA RESULT: -8.483502801      5.583      9.231
REMARK  9 active torsions:
REMARK  status: ('A' for Active; 'I' for Inactive)
REMARK    1  A    between atoms: C3_6  and  N3_7 
REMARK    2  A    between atoms: N3_7  and  C4_9 
REMARK    3  A    between atoms: C5_12  and  N5_13 
REMARK    4  A    between atoms: C7_15  and  N6_16 
REMARK    5  A    between atoms: C9_21  and  N7_22 
REMARK    6  A    between atoms: C11_29  and  N9_30 
REMARK    7  A    between atoms: C13_32  and  N10_33 
REMARK    8  A    between atoms: C15_38  and  N11_39 
REMARK    9  A    between atoms: N11_39  and  C16_41 
ROOT
HETATM    1  C4  UNL     1      28.381  75.905  -5.501  1.00  0.00     0.707 A 
HETATM    2  N4  UNL     1      28.108  75.591  -4.229  1.00  0.00    -0.021 N 
ATOM      3  H4  UNL     1      27.880  76.321  -3.554  1.00  0.00     0.203 HD
HETATM    4  C5  UNL     1      28.137  74.316  -3.855  1.00  0.00     0.709 A 
HETATM    5  N8  UNL     1      28.435  73.338  -4.730  1.00  0.00    -0.021 N 
ATOM      6  H8  UNL     1      28.450  72.367  -4.417  1.00  0.00     0.203 HD
HETATM    7  C11 UNL     1      28.711  73.626  -6.006  1.00  0.00     0.709 A 
HETATM    8  N12 UNL     1      28.681  74.909  -6.381  1.00  0.00    -0.021 N 
ATOM      9  H12 UNL     1      28.889  75.149  -7.350  1.00  0.00     0.203 HD
ENDROOT
BRANCH   4  10
HETATM   10  N5  UNL     1      27.852  73.964  -2.514  1.00  0.00    -0.213 N 
HETATM   11  C6  UNL     1      28.581  72.858  -1.924  1.00  0.00     0.174 C 
HETATM   12  C7  UNL     1      28.345  72.946  -0.415  1.00  0.00     0.204 C 
HETATM   13  C8  UNL     1      28.561  74.381  -0.027  1.00  0.00     0.069 C 
HETATM   14  C9  UNL     1      27.337  75.172  -0.433  1.00  0.00     0.204 C 
HETATM   15  C10 UNL     1      26.854  74.711  -1.777  1.00  0.00     0.174 C 
BRANCH  12  16
HETATM   16  N6  UNL     1      29.264  72.031   0.199  1.00  0.00    -0.073 N 
ATOM     17  H63 UNL     1      29.951  71.651  -0.454  1.00  0.00     0.274 HD
ATOM     18  H62 UNL     1      29.925  72.486   0.829  1.00  0.00     0.274 HD
ATOM     19  H61 UNL     1      28.701  71.313   0.655  1.00  0.00     0.274 HD
ENDBRANCH  12  16
BRANCH  14  20
HETATM   20  N7  UNL     1      27.759  76.574  -0.496  1.00  0.00    -0.073 N 
ATOM     21  H73 UNL     1      27.698  76.975  -1.432  1.00  0.00     0.274 HD
ATOM     22  H72 UNL     1      27.107  77.216  -0.045  1.00  0.00     0.274 HD
ATOM     23  H71 UNL     1      28.698  76.606  -0.101  1.00  0.00     0.274 HD
ENDBRANCH  14  20
ENDBRANCH   4  10
BRANCH   1  24
HETATM   24  N3  UNL     1      28.345  77.139  -5.830  1.00  0.00    -0.218 N 
ATOM     25  H3  UNL     1      27.446  77.604  -5.959  1.00  0.00     0.178 HD
BRANCH  24  26
HETATM   26  C3  UNL     1      29.562  77.874  -6.019  1.00  0.00     0.123 C 
HETATM   27  C2  UNL     1      29.554  78.504  -7.388  1.00  0.00     0.146 C 
HETATM   28  N2  UNL     1      30.391  79.662  -7.228  1.00  0.00    -0.380 N 
HETATM   29  C1  UNL     1      30.422  80.044  -6.004  1.00  0.00     0.090 C 
ATOM     30  H2  UNL     1      30.895  80.119  -7.988  1.00  0.00     0.160 HD
HETATM   31  N1  UNL     1      31.136  81.147  -5.454  1.00  0.00    -0.088 NA
HETATM   32  C18 UNL     1      29.573  79.140  -5.142  1.00  0.00     0.100 C 
ENDBRANCH  24  26
ENDBRANCH   1  24
BRANCH   7  33
HETATM   33  N9  UNL     1      29.021  72.569  -6.901  1.00  0.00    -0.213 N 
HETATM   34  C12 UNL     1      29.377  72.873  -8.272  1.00  0.00     0.174 C 
HETATM   35  C13 UNL     1      30.059  71.702  -8.897  1.00  0.00     0.204 C 
HETATM   36  C14 UNL     1      31.057  71.144  -7.900  1.00  0.00     0.061 C 
HETATM   37  C15 UNL     1      30.368  70.575  -6.692  1.00  0.00     0.104 C 
HETATM   38  C17 UNL     1      28.990  71.177  -6.488  1.00  0.00     0.166 C 
BRANCH  35  39
HETATM   39  N10 UNL     1      29.114  70.742  -9.377  1.00  0.00    -0.073 N 
ATOM     40 3H10 UNL     1      29.575  69.882  -9.676  1.00  0.00     0.274 HD
ATOM     41 2H10 UNL     1      28.550  70.362  -8.618  1.00  0.00     0.274 HD
ATOM     42 1H10 UNL     1      28.531  71.131 -10.118  1.00  0.00     0.274 HD
ENDBRANCH  35  39
BRANCH  37  43
HETATM   43  N11 UNL     1      30.326  69.139  -6.739  1.00  0.00    -0.362 N 
ATOM     44  H11 UNL     1      29.608  68.626  -6.226  1.00  0.00     0.162 HD
BRANCH  43  45
HETATM   45  C16 UNL     1      31.292  68.443  -7.503  1.00  0.00     0.348 C 
HETATM   46  O1  UNL     1      31.276  67.177  -7.597  1.00  0.00    -0.284 OA
ENDBRANCH  43  45
ENDBRANCH  37  43
ENDBRANCH   7  33
TORSDOF 9
ENDMDL
