MODEL 1
REMARK VINA RESULT: -8.348422676      0.000      0.000
REMARK  9 active torsions:
REMARK  status: ('A' for Active; 'I' for Inactive)
REMARK    1  A    between atoms: N1_1  and  N2_4 
REMARK    2  A    between atoms: N2_4  and  C1_5 
REMARK    3  A    between atoms: C1_5  and  O1_6 
REMARK    4  A    between atoms: N4_9  and  N5_10 
REMARK    5  A    between atoms: N6_13  and  S1_14 
REMARK    6  A    between atoms: S1_14  and  C2_15 
REMARK    7  A    between atoms: C2_15  and  C3_16 
REMARK    8  A    between atoms: C6_19  and  S2_20 
REMARK    9  A    between atoms: S2_20  and  N7_23 
ROOT
HETATM    1  C2  UNL     1      22.300  73.702  -0.584  1.00  0.00     0.137 C 
ENDROOT
BRANCH   1   2
HETATM    2  S1  UNL     1      23.041  73.432   1.032  1.00  0.00    -0.024 SA
BRANCH   2   3
HETATM    3  N6  UNL     1      22.830  74.551   2.277  1.00  0.00    -0.176 N 
HETATM    4  N4  UNL     1      23.882  75.294   2.939  1.00  0.00    -0.032 NA
HETATM    5  N3  UNL     1      23.628  74.811   4.257  1.00  0.00    -0.056 NA
HETATM    6  C1  UNL     1      22.188  75.032   4.433  1.00  0.00     0.325 C 
HETATM    7  C13 UNL     1      21.674  75.006   3.024  1.00  0.00     0.320 C 
HETATM    8  O4  UNL     1      20.562  75.282   2.535  1.00  0.00    -0.264 OA
BRANCH   4   9
HETATM    9  N5  UNL     1      25.114  74.758   2.523  1.00  0.00    -0.329 NA
ATOM     10  H52 UNL     1      25.797  75.515   2.520  1.00  0.00     0.174 HD
ATOM     11  H51 UNL     1      25.067  74.633   1.512  1.00  0.00     0.174 HD
ENDBRANCH   4   9
BRANCH   6  12
HETATM   12  N2  UNL     1      21.582  73.923   5.141  1.00  0.00    -0.081 NA
BRANCH  12  13
HETATM   13  N1  UNL     1      20.200  73.836   4.929  1.00  0.00    -0.344 N 
ATOM     14  H12 UNL     1      19.767  73.069   4.414  1.00  0.00     0.172 HD
ATOM     15  H11 UNL     1      19.688  74.615   5.342  1.00  0.00     0.172 HD
ENDBRANCH  12  13
ENDBRANCH   6  12
BRANCH   6  16
HETATM   16  O1  UNL     1      21.925  76.246   5.019  1.00  0.00    -0.351 OA
ATOM     17  H1  UNL     1      21.017  76.510   4.926  1.00  0.00     0.214 HD
ENDBRANCH   6  16
ENDBRANCH   2   3
ENDBRANCH   1   2
BRANCH   1  18
HETATM   18  C3  UNL     1      23.370  73.486  -1.613  1.00  0.00    -0.047 A 
HETATM   19  C4  UNL     1      23.174  73.332  -2.933  1.00  0.00     0.009 A 
HETATM   20  C5  UNL     1      24.269  73.231  -3.836  1.00  0.00     0.025 A 
HETATM   21  C6  UNL     1      25.583  73.290  -3.403  1.00  0.00     0.074 A 
HETATM   22  C11 UNL     1      25.754  73.445  -2.034  1.00  0.00     0.025 A 
HETATM   23  C12 UNL     1      24.699  73.545  -1.166  1.00  0.00     0.009 A 
BRANCH  21  24
HETATM   24  S2  UNL     1      26.956  73.260  -4.509  1.00  0.00     0.244 S 
HETATM   25  O2  UNL     1      26.985  71.878  -5.144  1.00  0.00    -0.206 OA
HETATM   26  O3  UNL     1      26.611  74.186  -5.683  1.00  0.00    -0.206 OA
BRANCH  24  27
HETATM   27  N7  UNL     1      28.402  73.741  -3.829  1.00  0.00    -0.197 NA
HETATM   28  C7  UNL     1      29.186  72.787  -3.133  1.00  0.00     0.152 C 
HETATM   29  C8  UNL     1      30.025  71.919  -4.032  1.00  0.00     0.075 C 
HETATM   30  N8  UNL     1      30.062  72.317  -5.371  1.00  0.00    -0.380 N 
HETATM   31  C9  UNL     1      29.886  73.635  -5.776  1.00  0.00     0.075 C 
ATOM     32  H8  UNL     1      30.226  71.607  -6.086  1.00  0.00     0.164 HD
HETATM   33  C10 UNL     1      29.238  74.534  -4.736  1.00  0.00     0.152 C 
ENDBRANCH  24  27
ENDBRANCH  21  24
ENDBRANCH   1  18
TORSDOF 9
ENDMDL
MODEL 2
REMARK VINA RESULT: -8.304964548      2.780      9.388
REMARK  9 active torsions:
REMARK  status: ('A' for Active; 'I' for Inactive)
REMARK    1  A    between atoms: N1_1  and  N2_4 
REMARK    2  A    between atoms: N2_4  and  C1_5 
REMARK    3  A    between atoms: C1_5  and  O1_6 
REMARK    4  A    between atoms: N4_9  and  N5_10 
REMARK    5  A    between atoms: N6_13  and  S1_14 
REMARK    6  A    between atoms: S1_14  and  C2_15 
REMARK    7  A    between atoms: C2_15  and  C3_16 
REMARK    8  A    between atoms: C6_19  and  S2_20 
REMARK    9  A    between atoms: S2_20  and  N7_23 
ROOT
HETATM    1  C2  UNL     1      26.680  73.503  -2.323  1.00  0.00     0.137 C 
ENDROOT
BRANCH   1   2
HETATM    2  S1  UNL     1      26.480  74.829  -3.521  1.00  0.00    -0.024 SA
BRANCH   2   3
HETATM    3  N6  UNL     1      27.660  76.022  -3.695  1.00  0.00    -0.176 N 
HETATM    4  N4  UNL     1      27.751  77.246  -2.925  1.00  0.00    -0.032 NA
HETATM    5  N3  UNL     1      27.655  78.147  -4.027  1.00  0.00    -0.056 NA
HETATM    6  C1  UNL     1      28.670  77.653  -4.964  1.00  0.00     0.325 C 
HETATM    7  C13 UNL     1      28.772  76.200  -4.606  1.00  0.00     0.320 C 
HETATM    8  O4  UNL     1      29.569  75.308  -4.956  1.00  0.00    -0.264 OA
BRANCH   4   9
HETATM    9  N5  UNL     1      26.568  77.370  -2.174  1.00  0.00    -0.329 NA
ATOM     10  H52 UNL     1      26.044  78.162  -2.547  1.00  0.00     0.174 HD
ATOM     11  H51 UNL     1      26.815  77.796  -1.282  1.00  0.00     0.174 HD
ENDBRANCH   4   9
BRANCH   6  12
HETATM   12  N2  UNL     1      28.190  77.735  -6.328  1.00  0.00    -0.081 NA
BRANCH  12  13
HETATM   13  N1  UNL     1      29.212  77.570  -7.272  1.00  0.00    -0.344 N 
ATOM     14  H12 UNL     1      30.193  77.762  -7.065  1.00  0.00     0.172 HD
ATOM     15  H11 UNL     1      28.867  77.243  -8.174  1.00  0.00     0.172 HD
ENDBRANCH  12  13
ENDBRANCH   6  12
BRANCH   6  16
HETATM   16  O1  UNL     1      29.879  78.280  -4.786  1.00  0.00    -0.351 OA
ATOM     17  H1  UNL     1      30.157  78.291  -3.878  1.00  0.00     0.214 HD
ENDBRANCH   6  16
ENDBRANCH   2   3
ENDBRANCH   1   2
BRANCH   1  18
HETATM   18  C3  UNL     1      25.448  73.480  -1.466  1.00  0.00    -0.047 A 
HETATM   19  C4  UNL     1      25.408  73.199  -0.153  1.00  0.00     0.009 A 
HETATM   20  C5  UNL     1      24.198  73.301   0.588  1.00  0.00     0.025 A 
HETATM   21  C6  UNL     1      23.009  73.696  -0.003  1.00  0.00     0.074 A 
HETATM   22  C11 UNL     1      23.081  73.974  -1.361  1.00  0.00     0.025 A 
HETATM   23  C12 UNL     1      24.248  73.879  -2.072  1.00  0.00     0.009 A 
BRANCH  21  24
HETATM   24  S2  UNL     1      21.516  73.919   0.910  1.00  0.00     0.244 S 
HETATM   25  O2  UNL     1      20.974  75.292   0.545  1.00  0.00    -0.206 OA
HETATM   26  O3  UNL     1      20.479  72.955   0.319  1.00  0.00    -0.206 OA
BRANCH  24  27
HETATM   27  N7  UNL     1      21.661  73.642   2.549  1.00  0.00    -0.197 NA
HETATM   28  C7  UNL     1      22.586  74.412   3.298  1.00  0.00     0.152 C 
HETATM   29  C8  UNL     1      22.070  75.773   3.684  1.00  0.00     0.075 C 
HETATM   30  N8  UNL     1      20.710  75.983   3.433  1.00  0.00    -0.380 N 
HETATM   31  C9  UNL     1      19.776  74.954   3.406  1.00  0.00     0.075 C 
ATOM     32  H8  UNL     1      20.389  76.936   3.262  1.00  0.00     0.164 HD
HETATM   33  C10 UNL     1      20.371  73.565   3.243  1.00  0.00     0.152 C 
ENDBRANCH  24  27
ENDBRANCH  21  24
ENDBRANCH   1  18
TORSDOF 9
ENDMDL
MODEL 3
REMARK VINA RESULT: -8.256761502      2.658      9.320
REMARK  9 active torsions:
REMARK  status: ('A' for Active; 'I' for Inactive)
REMARK    1  A    between atoms: N1_1  and  N2_4 
REMARK    2  A    between atoms: N2_4  and  C1_5 
REMARK    3  A    between atoms: C1_5  and  O1_6 
REMARK    4  A    between atoms: N4_9  and  N5_10 
REMARK    5  A    between atoms: N6_13  and  S1_14 
REMARK    6  A    between atoms: S1_14  and  C2_15 
REMARK    7  A    between atoms: C2_15  and  C3_16 
REMARK    8  A    between atoms: C6_19  and  S2_20 
REMARK    9  A    between atoms: S2_20  and  N7_23 
ROOT
HETATM    1  C2  UNL     1      26.316  72.974  -1.269  1.00  0.00     0.137 C 
ENDROOT
BRANCH   1   2
HETATM    2  S1  UNL     1      27.820  73.959  -1.295  1.00  0.00    -0.024 SA
BRANCH   2   3
HETATM    3  N6  UNL     1      27.983  75.260  -2.355  1.00  0.00    -0.176 N 
HETATM    4  N4  UNL     1      27.894  76.662  -2.001  1.00  0.00    -0.032 NA
HETATM    5  N3  UNL     1      26.803  76.985  -2.860  1.00  0.00    -0.056 NA
HETATM    6  C1  UNL     1      27.224  76.461  -4.165  1.00  0.00     0.325 C 
HETATM    7  C13 UNL     1      28.172  75.361  -3.789  1.00  0.00     0.320 C 
HETATM    8  O4  UNL     1      28.951  74.662  -4.465  1.00  0.00    -0.264 OA
BRANCH   4   9
HETATM    9  N5  UNL     1      27.427  76.741  -0.677  1.00  0.00    -0.329 NA
ATOM     10  H52 UNL     1      28.068  77.341  -0.157  1.00  0.00     0.174 HD
ATOM     11  H51 UNL     1      27.675  75.867  -0.213  1.00  0.00     0.174 HD
ENDBRANCH   4   9
BRANCH   6  12
HETATM   12  N2  UNL     1      26.106  75.857  -4.859  1.00  0.00    -0.081 NA
BRANCH  12  13
HETATM   13  N1  UNL     1      26.483  75.244  -6.062  1.00  0.00    -0.344 N 
ATOM     14  H12 UNL     1      25.836  74.696  -6.629  1.00  0.00     0.172 HD
ATOM     15  H11 UNL     1      27.462  75.407  -6.297  1.00  0.00     0.172 HD
ENDBRANCH  12  13
ENDBRANCH   6  12
BRANCH   6  16
HETATM   16  O1  UNL     1      27.866  77.415  -4.916  1.00  0.00    -0.351 OA
ATOM     17  H1  UNL     1      28.506  77.907  -4.416  1.00  0.00     0.214 HD
ENDBRANCH   6  16
ENDBRANCH   2   3
ENDBRANCH   1   2
BRANCH   1  18
HETATM   18  C3  UNL     1      25.565  73.329  -0.020  1.00  0.00    -0.047 A 
HETATM   19  C4  UNL     1      26.112  73.730   1.141  1.00  0.00     0.009 A 
HETATM   20  C5  UNL     1      25.302  74.137   2.237  1.00  0.00     0.025 A 
HETATM   21  C6  UNL     1      23.919  74.145   2.163  1.00  0.00     0.074 A 
HETATM   22  C11 UNL     1      23.384  73.721   0.954  1.00  0.00     0.025 A 
HETATM   23  C12 UNL     1      24.165  73.332  -0.102  1.00  0.00     0.009 A 
BRANCH  21  24
HETATM   24  S2  UNL     1      22.894  74.731   3.473  1.00  0.00     0.244 S 
HETATM   25  O2  UNL     1      23.067  73.767   4.637  1.00  0.00    -0.206 OA
HETATM   26  O3  UNL     1      23.523  76.032   3.989  1.00  0.00    -0.206 OA
BRANCH  24  27
HETATM   27  N7  UNL     1      21.309  75.015   3.037  1.00  0.00    -0.197 NA
HETATM   28  C7  UNL     1      20.432  73.913   2.872  1.00  0.00     0.152 C 
HETATM   29  C8  UNL     1      19.867  73.390   4.166  1.00  0.00     0.075 C 
HETATM   30  N8  UNL     1      20.121  74.186   5.287  1.00  0.00    -0.380 N 
HETATM   31  C9  UNL     1      20.321  75.559   5.212  1.00  0.00     0.075 C 
ATOM     32  H8  UNL     1      20.161  73.738   6.203  1.00  0.00     0.164 HD
HETATM   33  C10 UNL     1      20.667  76.072   3.824  1.00  0.00     0.152 C 
ENDBRANCH  24  27
ENDBRANCH  21  24
ENDBRANCH   1  18
TORSDOF 9
ENDMDL
MODEL 4
REMARK VINA RESULT: -8.248188417      1.458      1.919
REMARK  9 active torsions:
REMARK  status: ('A' for Active; 'I' for Inactive)
REMARK    1  A    between atoms: N1_1  and  N2_4 
REMARK    2  A    between atoms: N2_4  and  C1_5 
REMARK    3  A    between atoms: C1_5  and  O1_6 
REMARK    4  A    between atoms: N4_9  and  N5_10 
REMARK    5  A    between atoms: N6_13  and  S1_14 
REMARK    6  A    between atoms: S1_14  and  C2_15 
REMARK    7  A    between atoms: C2_15  and  C3_16 
REMARK    8  A    between atoms: C6_19  and  S2_20 
REMARK    9  A    between atoms: S2_20  and  N7_23 
ROOT
HETATM    1  C2  UNL     1      22.680  73.594  -0.629  1.00  0.00     0.137 C 
ENDROOT
BRANCH   1   2
HETATM    2  S1  UNL     1      23.205  73.386   1.078  1.00  0.00    -0.024 SA
BRANCH   2   3
HETATM    3  N6  UNL     1      22.787  74.520   2.255  1.00  0.00    -0.176 N 
HETATM    4  N4  UNL     1      23.707  75.367   2.985  1.00  0.00    -0.032 NA
HETATM    5  N3  UNL     1      23.366  74.903   4.290  1.00  0.00    -0.056 NA
HETATM    6  C1  UNL     1      21.903  75.009   4.322  1.00  0.00     0.325 C 
HETATM    7  C13 UNL     1      21.531  74.899   2.873  1.00  0.00     0.320 C 
HETATM    8  O4  UNL     1      20.453  75.067   2.272  1.00  0.00    -0.264 OA
BRANCH   4   9
HETATM    9  N5  UNL     1      25.012  74.923   2.706  1.00  0.00    -0.329 NA
ATOM     10  H52 UNL     1      25.296  74.298   3.461  1.00  0.00     0.174 HD
ATOM     11  H51 UNL     1      25.650  75.685   2.933  1.00  0.00     0.174 HD
ENDBRANCH   4   9
BRANCH   6  12
HETATM   12  N2  UNL     1      21.323  73.876   5.011  1.00  0.00    -0.081 NA
BRANCH  12  13
HETATM   13  N1  UNL     1      19.922  73.884   4.982  1.00  0.00    -0.344 N 
ATOM     14  H12 UNL     1      19.383  73.544   4.185  1.00  0.00     0.172 HD
ATOM     15  H11 UNL     1      19.512  74.262   5.836  1.00  0.00     0.172 HD
ENDBRANCH  12  13
ENDBRANCH   6  12
BRANCH   6  16
HETATM   16  O1  UNL     1      21.488  76.214   4.835  1.00  0.00    -0.351 OA
ATOM     17  H1  UNL     1      20.698  76.538   4.420  1.00  0.00     0.214 HD
ENDBRANCH   6  16
ENDBRANCH   2   3
ENDBRANCH   1   2
BRANCH   1  18
HETATM   18  C3  UNL     1      23.912  73.575  -1.485  1.00  0.00    -0.047 A 
HETATM   19  C4  UNL     1      23.939  73.623  -2.828  1.00  0.00     0.009 A 
HETATM   20  C5  UNL     1      25.167  73.698  -3.541  1.00  0.00     0.025 A 
HETATM   21  C6  UNL     1      26.390  73.730  -2.891  1.00  0.00     0.074 A 
HETATM   22  C11 UNL     1      26.331  73.674  -1.504  1.00  0.00     0.025 A 
HETATM   23  C12 UNL     1      25.146  73.604  -0.820  1.00  0.00     0.009 A 
BRANCH  21  24
HETATM   24  S2  UNL     1      27.922  73.915  -3.744  1.00  0.00     0.244 S 
HETATM   25  O2  UNL     1      28.802  74.812  -2.887  1.00  0.00    -0.206 OA
HETATM   26  O3  UNL     1      28.635  72.558  -3.692  1.00  0.00    -0.206 OA
BRANCH  24  27
HETATM   27  N7  UNL     1      27.773  74.403  -5.334  1.00  0.00    -0.197 NA
HETATM   28  C7  UNL     1      27.507  75.767  -5.613  1.00  0.00     0.152 C 
HETATM   29  C8  UNL     1      28.730  76.644  -5.574  1.00  0.00     0.075 C 
HETATM   30  N8  UNL     1      29.945  75.959  -5.479  1.00  0.00    -0.380 N 
HETATM   31  C9  UNL     1      30.128  74.667  -5.958  1.00  0.00     0.075 C 
ATOM     32  H8  UNL     1      30.736  76.429  -5.037  1.00  0.00     0.164 HD
HETATM   33  C10 UNL     1      28.840  73.896  -6.202  1.00  0.00     0.152 C 
ENDBRANCH  24  27
ENDBRANCH  21  24
ENDBRANCH   1  18
TORSDOF 9
ENDMDL
MODEL 5
REMARK VINA RESULT: -8.114857626      2.323      9.415
REMARK  9 active torsions:
REMARK  status: ('A' for Active; 'I' for Inactive)
REMARK    1  A    between atoms: N1_1  and  N2_4 
REMARK    2  A    between atoms: N2_4  and  C1_5 
REMARK    3  A    between atoms: C1_5  and  O1_6 
REMARK    4  A    between atoms: N4_9  and  N5_10 
REMARK    5  A    between atoms: N6_13  and  S1_14 
REMARK    6  A    between atoms: S1_14  and  C2_15 
REMARK    7  A    between atoms: C2_15  and  C3_16 
REMARK    8  A    between atoms: C6_19  and  S2_20 
REMARK    9  A    between atoms: S2_20  and  N7_23 
ROOT
HETATM    1  C2  UNL     1      25.735  73.151  -1.643  1.00  0.00     0.137 C 
ENDROOT
BRANCH   1   2
HETATM    2  S1  UNL     1      25.784  74.576  -2.738  1.00  0.00    -0.024 SA
BRANCH   2   3
HETATM    3  N6  UNL     1      27.254  75.271  -3.187  1.00  0.00    -0.176 N 
HETATM    4  N4  UNL     1      27.819  76.490  -2.645  1.00  0.00    -0.032 NA
HETATM    5  N3  UNL     1      27.889  77.206  -3.877  1.00  0.00    -0.056 NA
HETATM    6  C1  UNL     1      28.577  76.275  -4.778  1.00  0.00     0.325 C 
HETATM    7  C13 UNL     1      28.251  74.937  -4.183  1.00  0.00     0.320 C 
HETATM    8  O4  UNL     1      28.675  73.791  -4.425  1.00  0.00    -0.264 OA
BRANCH   4   9
HETATM    9  N5  UNL     1      26.832  77.105  -1.854  1.00  0.00    -0.329 NA
ATOM     10  H52 UNL     1      27.290  77.815  -1.282  1.00  0.00     0.174 HD
ATOM     11  H51 UNL     1      26.606  76.464  -1.094  1.00  0.00     0.174 HD
ENDBRANCH   4   9
BRANCH   6  12
HETATM   12  N2  UNL     1      27.994  76.320  -6.103  1.00  0.00    -0.081 NA
BRANCH  12  13
HETATM   13  N1  UNL     1      27.069  75.290  -6.322  1.00  0.00    -0.344 N 
ATOM     14  H12 UNL     1      26.064  75.454  -6.384  1.00  0.00     0.172 HD
ATOM     15  H11 UNL     1      27.512  74.375  -6.412  1.00  0.00     0.172 HD
ENDBRANCH  12  13
ENDBRANCH   6  12
BRANCH   6  16
HETATM   16  O1  UNL     1      29.935  76.482  -4.786  1.00  0.00    -0.351 OA
ATOM     17  H1  UNL     1      30.196  77.233  -4.267  1.00  0.00     0.214 HD
ENDBRANCH   6  16
ENDBRANCH   2   3
ENDBRANCH   1   2
BRANCH   1  18
HETATM   18  C3  UNL     1      24.609  73.364  -0.674  1.00  0.00    -0.047 A 
HETATM   19  C4  UNL     1      24.694  73.275   0.664  1.00  0.00     0.009 A 
HETATM   20  C5  UNL     1      23.587  73.593   1.498  1.00  0.00     0.025 A 
HETATM   21  C6  UNL     1      22.374  74.011   0.976  1.00  0.00     0.074 A 
HETATM   22  C11 UNL     1      22.315  74.089  -0.409  1.00  0.00     0.025 A 
HETATM   23  C12 UNL     1      23.383  73.785  -1.210  1.00  0.00     0.009 A 
BRANCH  21  24
HETATM   24  S2  UNL     1      21.015  74.500   1.989  1.00  0.00     0.244 S 
HETATM   25  O2  UNL     1      19.869  74.852   1.054  1.00  0.00    -0.206 OA
HETATM   26  O3  UNL     1      20.516  73.241   2.710  1.00  0.00    -0.206 OA
BRANCH  24  27
HETATM   27  N7  UNL     1      21.380  75.677   3.114  1.00  0.00    -0.197 NA
HETATM   28  C7  UNL     1      20.379  76.085   4.032  1.00  0.00     0.152 C 
HETATM   29  C8  UNL     1      20.225  75.162   5.211  1.00  0.00     0.075 C 
HETATM   30  N8  UNL     1      21.214  74.180   5.326  1.00  0.00    -0.380 N 
HETATM   31  C9  UNL     1      22.504  74.341   4.833  1.00  0.00     0.075 C 
ATOM     32  H8  UNL     1      20.979  73.305   5.794  1.00  0.00     0.164 HD
HETATM   33  C10 UNL     1      22.653  75.450   3.805  1.00  0.00     0.152 C 
ENDBRANCH  24  27
ENDBRANCH  21  24
ENDBRANCH   1  18
TORSDOF 9
ENDMDL
