MODEL 1
REMARK VINA RESULT: -10.179213017      0.000      0.000
REMARK  8 active torsions:
REMARK  status: ('A' for Active; 'I' for Inactive)
REMARK    1  A    between atoms: N2_7  and  N3_8 
REMARK    2  A    between atoms: C3_11  and  C4_12 
REMARK    3  A    between atoms: C8_16  and  C9_17 
REMARK       I    between atoms: C9_17  and  N4_19 
REMARK    4  A    between atoms: N4_19  and  N5_21 
REMARK    5  A    between atoms: N7_27  and  C11_28 
REMARK    6  A    between atoms: C11_28  and  C12_29 
REMARK    7  A    between atoms: C12_29  and  C13_30 
REMARK    8  A    between atoms: C12_29  and  N10_39 
ROOT
HETATM    1  N1  UNL     1      29.459  74.112  -6.898  1.00  0.00    -0.380 N 
ATOM      2  H11 UNL     1      29.210  74.939  -7.441  1.00  0.00     0.157 HD
ATOM      3  H12 UNL     1      29.959  73.325  -7.311  1.00  0.00     0.157 HD
HETATM    4  C1  UNL     1      29.165  74.093  -5.625  1.00  0.00     0.176 A 
HETATM    5  C2  UNL     1      29.509  72.948  -4.874  1.00  0.00     0.310 A 
HETATM    6  O1  UNL     1      30.111  72.011  -5.397  1.00  0.00    -0.262 OA
HETATM    7  N2  UNL     1      29.169  72.885  -3.558  1.00  0.00    -0.220 N 
HETATM    8  C3  UNL     1      28.514  73.902  -2.996  1.00  0.00     0.102 A 
HETATM    9  C10 UNL     1      28.206  74.973  -3.752  1.00  0.00     0.132 A 
HETATM   10  N7  UNL     1      28.509  75.124  -5.082  1.00  0.00    -0.310 N 
ENDROOT
BRANCH   8  11
HETATM   11  C4  UNL     1      28.067  73.816  -1.601  1.00  0.00     0.063 A 
HETATM   12  C5  UNL     1      26.730  73.749  -1.241  1.00  0.00     0.032 A 
HETATM   13  C6  UNL     1      26.334  73.602   0.064  1.00  0.00     0.005 A 
HETATM   14  C7  UNL     1      27.292  73.521   1.043  1.00  0.00     0.035 A 
HETATM   15  C8  UNL     1      28.612  73.586   0.712  1.00  0.00     0.102 A 
HETATM   16  N6  UNL     1      28.971  73.729  -0.596  1.00  0.00    -0.350 N 
ATOM     17  H6  UNL     1      29.964  73.773  -0.828  1.00  0.00     0.166 HD
BRANCH  15  18
HETATM   18  C9  UNL     1      29.624  73.541   1.750  1.00  0.00     0.286 C 
HETATM   19  O2  UNL     1      29.991  74.652   2.283  1.00  0.00    -0.264 OA
HETATM   20  N4  UNL     1      30.235  72.363   2.227  1.00  0.00    -0.271 N 
ATOM     21  H4  UNL     1      29.982  71.454   1.840  1.00  0.00     0.189 HD
BRANCH  20  22
HETATM   22  N5  UNL     1      31.211  72.464   3.255  1.00  0.00    -0.342 N 
ATOM     23  H52 UNL     1      32.022  73.068   3.123  1.00  0.00     0.176 HD
ATOM     24  H51 UNL     1      31.081  71.926   4.113  1.00  0.00     0.176 HD
ENDBRANCH  20  22
ENDBRANCH  15  18
ENDBRANCH   8  11
BRANCH   7  25
HETATM   25  N3  UNL     1      29.481  71.778  -2.783  1.00  0.00    -0.335 N 
ATOM     26  H32 UNL     1      30.384  71.323  -2.914  1.00  0.00     0.177 HD
ATOM     27  H31 UNL     1      28.832  71.417  -2.084  1.00  0.00     0.177 HD
ENDBRANCH   7  25
BRANCH  10  28
HETATM   28  C11 UNL     1      28.177  76.317  -5.744  1.00  0.00     0.136 C 
BRANCH  28  29
HETATM   29  C12 UNL     1      28.554  77.639  -5.397  1.00  0.00     0.151 C 
BRANCH  29  30
HETATM   30  C13 UNL     1      29.412  78.527  -5.821  1.00  0.00     0.140 A 
HETATM   31  N8  UNL     1      30.039  79.515  -4.936  1.00  0.00    -0.302 N 
HETATM   32  C14 UNL     1      30.862  80.401  -5.640  1.00  0.00     0.327 A 
ATOM     33  H8  UNL     1      29.892  79.552  -3.928  1.00  0.00     0.171 HD
HETATM   34  O3  UNL     1      31.571  81.367  -5.307  1.00  0.00    -0.247 OA
HETATM   35  N9  UNL     1      30.816  80.033  -7.039  1.00  0.00    -0.274 N 
HETATM   36  C15 UNL     1      29.941  78.906  -7.121  1.00  0.00     0.278 A 
ATOM     37  H9  UNL     1      31.308  80.485  -7.808  1.00  0.00     0.173 HD
HETATM   38  O4  UNL     1      29.718  78.383  -8.221  1.00  0.00    -0.265 OA
ENDBRANCH  29  30
BRANCH  29  39
HETATM   39  N10 UNL     1      27.743  78.136  -4.247  1.00  0.00    -0.112 N 
HETATM   40  O5  UNL     1      28.315  78.189  -3.176  1.00  0.00    -0.532 OA
HETATM   41  O6  UNL     1      26.471  78.490  -4.446  1.00  0.00    -0.532 OA
ENDBRANCH  29  39
ENDBRANCH  28  29
ENDBRANCH  10  28
TORSDOF 8
ENDMDL
MODEL 2
REMARK VINA RESULT: -9.930379760      1.821      2.359
REMARK  8 active torsions:
REMARK  status: ('A' for Active; 'I' for Inactive)
REMARK    1  A    between atoms: N2_7  and  N3_8 
REMARK    2  A    between atoms: C3_11  and  C4_12 
REMARK    3  A    between atoms: C8_16  and  C9_17 
REMARK       I    between atoms: C9_17  and  N4_19 
REMARK    4  A    between atoms: N4_19  and  N5_21 
REMARK    5  A    between atoms: N7_27  and  C11_28 
REMARK    6  A    between atoms: C11_28  and  C12_29 
REMARK    7  A    between atoms: C12_29  and  C13_30 
REMARK    8  A    between atoms: C12_29  and  N10_39 
ROOT
HETATM    1  N1  UNL     1      28.762  73.944  -7.029  1.00  0.00    -0.380 N 
ATOM      2  H11 UNL     1      28.454  74.804  -7.483  1.00  0.00     0.157 HD
ATOM      3  H12 UNL     1      29.122  73.152  -7.561  1.00  0.00     0.157 HD
HETATM    4  C1  UNL     1      28.733  73.885  -5.724  1.00  0.00     0.176 A 
HETATM    5  C2  UNL     1      29.158  72.695  -5.096  1.00  0.00     0.310 A 
HETATM    6  O1  UNL     1      29.587  71.752  -5.761  1.00  0.00    -0.262 OA
HETATM    7  N2  UNL     1      29.091  72.593  -3.742  1.00  0.00    -0.220 N 
HETATM    8  C3  UNL     1      28.622  73.616  -3.024  1.00  0.00     0.102 A 
HETATM    9  C10 UNL     1      28.227  74.731  -3.666  1.00  0.00     0.132 A 
HETATM   10  N7  UNL     1      28.260  74.924  -5.026  1.00  0.00    -0.310 N 
ENDROOT
BRANCH   8  11
HETATM   11  C4  UNL     1      28.465  73.492  -1.571  1.00  0.00     0.063 A 
HETATM   12  C5  UNL     1      29.530  73.254  -0.715  1.00  0.00     0.032 A 
HETATM   13  C6  UNL     1      29.372  73.208   0.647  1.00  0.00     0.005 A 
HETATM   14  C7  UNL     1      28.121  73.399   1.178  1.00  0.00     0.035 A 
HETATM   15  C8  UNL     1      27.061  73.633   0.355  1.00  0.00     0.102 A 
HETATM   16  N6  UNL     1      27.253  73.676  -0.995  1.00  0.00    -0.350 N 
ATOM     17  H6  UNL     1      26.448  73.855  -1.597  1.00  0.00     0.166 HD
BRANCH  15  18
HETATM   18  C9  UNL     1      25.732  73.796   0.913  1.00  0.00     0.286 C 
HETATM   19  O2  UNL     1      24.763  73.157   0.359  1.00  0.00    -0.264 OA
HETATM   20  N4  UNL     1      25.420  74.602   2.027  1.00  0.00    -0.271 N 
ATOM     21  H4  UNL     1      26.150  75.131   2.504  1.00  0.00     0.189 HD
BRANCH  20  22
HETATM   22  N5  UNL     1      24.072  74.666   2.473  1.00  0.00    -0.342 N 
ATOM     23  H52 UNL     1      23.600  73.814   2.772  1.00  0.00     0.176 HD
ATOM     24  H51 UNL     1      23.599  75.570   2.485  1.00  0.00     0.176 HD
ENDBRANCH  20  22
ENDBRANCH  15  18
ENDBRANCH   8  11
BRANCH   7  25
HETATM   25  N3  UNL     1      29.492  71.440  -3.082  1.00  0.00    -0.335 N 
ATOM     26  H32 UNL     1      28.805  70.705  -2.912  1.00  0.00     0.177 HD
ATOM     27  H31 UNL     1      30.455  71.311  -2.772  1.00  0.00     0.177 HD
ENDBRANCH   7  25
BRANCH  10  28
HETATM   28  C11 UNL     1      27.868  76.158  -5.567  1.00  0.00     0.136 C 
BRANCH  28  29
HETATM   29  C12 UNL     1      28.334  77.450  -5.216  1.00  0.00     0.151 C 
BRANCH  29  30
HETATM   30  C13 UNL     1      29.252  78.277  -5.635  1.00  0.00     0.140 A 
HETATM   31  N8  UNL     1      29.752  79.391  -4.822  1.00  0.00    -0.302 N 
HETATM   32  C14 UNL     1      30.677  80.176  -5.519  1.00  0.00     0.327 A 
ATOM     33  H8  UNL     1      29.460  79.572  -3.862  1.00  0.00     0.171 HD
HETATM   34  O3  UNL     1      31.338  81.189  -5.231  1.00  0.00    -0.247 OA
HETATM   35  N9  UNL     1      30.832  79.608  -6.842  1.00  0.00    -0.274 N 
HETATM   36  C15 UNL     1      29.968  78.471  -6.886  1.00  0.00     0.278 A 
ATOM     37  H9  UNL     1      31.435  79.950  -7.589  1.00  0.00     0.173 HD
HETATM   38  O4  UNL     1      29.903  77.791  -7.919  1.00  0.00    -0.265 OA
ENDBRANCH  29  30
BRANCH  29  39
HETATM   39  N10 UNL     1      27.554  78.000  -4.068  1.00  0.00    -0.112 N 
HETATM   40  O5  UNL     1      26.526  78.582  -4.355  1.00  0.00    -0.532 OA
HETATM   41  O6  UNL     1      28.007  77.827  -2.824  1.00  0.00    -0.532 OA
ENDBRANCH  29  39
ENDBRANCH  28  29
ENDBRANCH  10  28
TORSDOF 8
ENDMDL
MODEL 3
REMARK VINA RESULT: -9.886836389      2.236      5.665
REMARK  8 active torsions:
REMARK  status: ('A' for Active; 'I' for Inactive)
REMARK    1  A    between atoms: N2_7  and  N3_8 
REMARK    2  A    between atoms: C3_11  and  C4_12 
REMARK    3  A    between atoms: C8_16  and  C9_17 
REMARK       I    between atoms: C9_17  and  N4_19 
REMARK    4  A    between atoms: N4_19  and  N5_21 
REMARK    5  A    between atoms: N7_27  and  C11_28 
REMARK    6  A    between atoms: C11_28  and  C12_29 
REMARK    7  A    between atoms: C12_29  and  C13_30 
REMARK    8  A    between atoms: C12_29  and  N10_39 
ROOT
HETATM    1  N1  UNL     1      29.055  76.429  -6.297  1.00  0.00    -0.380 N 
ATOM      2  H11 UNL     1      29.507  75.805  -6.966  1.00  0.00     0.157 HD
ATOM      3  H12 UNL     1      28.851  77.403  -6.520  1.00  0.00     0.157 HD
HETATM    4  C1  UNL     1      28.687  75.941  -5.142  1.00  0.00     0.176 A 
HETATM    5  C2  UNL     1      28.062  76.803  -4.217  1.00  0.00     0.310 A 
HETATM    6  O1  UNL     1      27.828  77.976  -4.510  1.00  0.00    -0.262 OA
HETATM    7  N2  UNL     1      27.715  76.330  -2.990  1.00  0.00    -0.220 N 
HETATM    8  C3  UNL     1      27.973  75.059  -2.675  1.00  0.00     0.102 A 
HETATM    9  C10 UNL     1      28.573  74.273  -3.589  1.00  0.00     0.132 A 
HETATM   10  N7  UNL     1      28.955  74.664  -4.849  1.00  0.00    -0.310 N 
ENDROOT
BRANCH   8  11
HETATM   11  C4  UNL     1      27.682  74.555  -1.329  1.00  0.00     0.063 A 
HETATM   12  C5  UNL     1      26.413  74.165  -0.928  1.00  0.00     0.032 A 
HETATM   13  C6  UNL     1      26.173  73.634   0.314  1.00  0.00     0.005 A 
HETATM   14  C7  UNL     1      27.222  73.488   1.187  1.00  0.00     0.035 A 
HETATM   15  C8  UNL     1      28.477  73.866   0.815  1.00  0.00     0.102 A 
HETATM   16  N6  UNL     1      28.681  74.388  -0.430  1.00  0.00    -0.350 N 
ATOM     17  H6  UNL     1      29.627  74.663  -0.694  1.00  0.00     0.166 HD
BRANCH  15  18
HETATM   18  C9  UNL     1      29.578  73.749   1.751  1.00  0.00     0.286 C 
HETATM   19  O2  UNL     1      30.051  74.829   2.264  1.00  0.00    -0.264 OA
HETATM   20  N4  UNL     1      30.170  72.533   2.149  1.00  0.00    -0.271 N 
ATOM     21  H4  UNL     1      29.835  71.646   1.774  1.00  0.00     0.189 HD
BRANCH  20  22
HETATM   22  N5  UNL     1      31.242  72.564   3.082  1.00  0.00    -0.342 N 
ATOM     23  H52 UNL     1      31.561  73.458   3.454  1.00  0.00     0.176 HD
ATOM     24  H51 UNL     1      31.676  71.684   3.364  1.00  0.00     0.176 HD
ENDBRANCH  20  22
ENDBRANCH  15  18
ENDBRANCH   8  11
BRANCH   7  25
HETATM   25  N3  UNL     1      27.104  77.143  -2.047  1.00  0.00    -0.335 N 
ATOM     26  H32 UNL     1      26.345  76.760  -1.483  1.00  0.00     0.177 HD
ATOM     27  H31 UNL     1      27.401  78.108  -1.902  1.00  0.00     0.177 HD
ENDBRANCH   7  25
BRANCH  10  28
HETATM   28  C11 UNL     1      29.525  73.729  -5.728  1.00  0.00     0.136 C 
BRANCH  28  29
HETATM   29  C12 UNL     1      29.189  72.359  -5.880  1.00  0.00     0.151 C 
BRANCH  29  30
HETATM   30  C13 UNL     1      29.698  71.210  -5.531  1.00  0.00     0.140 A 
HETATM   31  N8  UNL     1      29.388  70.556  -4.255  1.00  0.00    -0.302 N 
HETATM   32  C14 UNL     1      30.114  69.373  -4.082  1.00  0.00     0.327 A 
ATOM     33  H8  UNL     1      28.722  70.921  -3.574  1.00  0.00     0.171 HD
HETATM   34  O3  UNL     1      30.166  68.518  -3.180  1.00  0.00    -0.247 OA
HETATM   35  N9  UNL     1      30.947  69.189  -5.251  1.00  0.00    -0.274 N 
HETATM   36  C15 UNL     1      30.678  70.302  -6.105  1.00  0.00     0.278 A 
ATOM     37  H9  UNL     1      31.593  68.420  -5.430  1.00  0.00     0.173 HD
HETATM   38  O4  UNL     1      31.267  70.398  -7.191  1.00  0.00    -0.265 OA
ENDBRANCH  29  30
BRANCH  29  39
HETATM   39  N10 UNL     1      27.909  72.210  -6.632  1.00  0.00    -0.112 N 
HETATM   40  O5  UNL     1      27.106  71.425  -6.164  1.00  0.00    -0.532 OA
HETATM   41  O6  UNL     1      27.712  72.924  -7.743  1.00  0.00    -0.532 OA
ENDBRANCH  29  39
ENDBRANCH  28  29
ENDBRANCH  10  28
TORSDOF 8
ENDMDL
MODEL 4
REMARK VINA RESULT: -9.795886507      2.141      5.388
REMARK  8 active torsions:
REMARK  status: ('A' for Active; 'I' for Inactive)
REMARK    1  A    between atoms: N2_7  and  N3_8 
REMARK    2  A    between atoms: C3_11  and  C4_12 
REMARK    3  A    between atoms: C8_16  and  C9_17 
REMARK       I    between atoms: C9_17  and  N4_19 
REMARK    4  A    between atoms: N4_19  and  N5_21 
REMARK    5  A    between atoms: N7_27  and  C11_28 
REMARK    6  A    between atoms: C11_28  and  C12_29 
REMARK    7  A    between atoms: C12_29  and  C13_30 
REMARK    8  A    between atoms: C12_29  and  N10_39 
ROOT
HETATM    1  N1  UNL     1      28.402  77.171  -6.450  1.00  0.00    -0.380 N 
ATOM      2  H11 UNL     1      28.685  76.613  -7.256  1.00  0.00     0.157 HD
ATOM      3  H12 UNL     1      28.321  78.186  -6.499  1.00  0.00     0.157 HD
HETATM    4  C1  UNL     1      28.092  76.551  -5.342  1.00  0.00     0.176 A 
HETATM    5  C2  UNL     1      27.701  77.323  -4.228  1.00  0.00     0.310 A 
HETATM    6  O1  UNL     1      27.612  78.549  -4.312  1.00  0.00    -0.262 OA
HETATM    7  N2  UNL     1      27.420  76.704  -3.051  1.00  0.00    -0.220 N 
HETATM    8  C3  UNL     1      27.520  75.376  -2.963  1.00  0.00     0.102 A 
HETATM    9  C10 UNL     1      27.898  74.680  -4.052  1.00  0.00     0.132 A 
HETATM   10  N7  UNL     1      28.199  75.220  -5.278  1.00  0.00    -0.310 N 
ENDROOT
BRANCH   8  11
HETATM   11  C4  UNL     1      27.302  74.699  -1.680  1.00  0.00     0.063 A 
HETATM   12  C5  UNL     1      26.107  74.080  -1.347  1.00  0.00     0.032 A 
HETATM   13  C6  UNL     1      25.944  73.395  -0.170  1.00  0.00     0.005 A 
HETATM   14  C7  UNL     1      26.997  73.325   0.708  1.00  0.00     0.035 A 
HETATM   15  C8  UNL     1      28.180  73.927   0.402  1.00  0.00     0.102 A 
HETATM   16  N6  UNL     1      28.309  74.597  -0.779  1.00  0.00    -0.350 N 
ATOM     17  H6  UNL     1      29.203  75.041  -0.994  1.00  0.00     0.166 HD
BRANCH  15  18
HETATM   18  C9  UNL     1      29.280  73.887   1.347  1.00  0.00     0.286 C 
HETATM   19  O2  UNL     1      29.643  74.990   1.898  1.00  0.00    -0.264 OA
HETATM   20  N4  UNL     1      29.983  72.721   1.714  1.00  0.00    -0.271 N 
ATOM     21  H4  UNL     1      29.737  71.818   1.308  1.00  0.00     0.189 HD
BRANCH  20  22
HETATM   22  N5  UNL     1      31.039  72.824   2.659  1.00  0.00    -0.342 N 
ATOM     23  H52 UNL     1      31.148  73.681   3.202  1.00  0.00     0.176 HD
ATOM     24  H51 UNL     1      31.674  72.034   2.777  1.00  0.00     0.176 HD
ENDBRANCH  20  22
ENDBRANCH  15  18
ENDBRANCH   8  11
BRANCH   7  25
HETATM   25  N3  UNL     1      27.038  77.423  -1.927  1.00  0.00    -0.335 N 
ATOM     26  H32 UNL     1      26.385  78.199  -2.037  1.00  0.00     0.177 HD
ATOM     27  H31 UNL     1      27.389  77.188  -0.999  1.00  0.00     0.177 HD
ENDBRANCH   7  25
BRANCH  10  28
HETATM   28  C11 UNL     1      28.529  74.376  -6.351  1.00  0.00     0.136 C 
BRANCH  28  29
HETATM   29  C12 UNL     1      29.663  73.535  -6.480  1.00  0.00     0.151 C 
BRANCH  29  30
HETATM   30  C13 UNL     1      30.015  72.345  -6.078  1.00  0.00     0.140 A 
HETATM   31  N8  UNL     1      30.128  71.198  -6.987  1.00  0.00    -0.302 N 
HETATM   32  C14 UNL     1      30.448  70.019  -6.306  1.00  0.00     0.327 A 
ATOM     33  H8  UNL     1      29.990  71.254  -7.996  1.00  0.00     0.171 HD
HETATM   34  O3  UNL     1      30.639  68.842  -6.663  1.00  0.00    -0.247 OA
HETATM   35  N9  UNL     1      30.563  70.337  -4.899  1.00  0.00    -0.274 N 
HETATM   36  C15 UNL     1      30.300  71.737  -4.788  1.00  0.00     0.278 A 
ATOM     37  H9  UNL     1      30.786  69.693  -4.141  1.00  0.00     0.173 HD
HETATM   38  O4  UNL     1      30.331  72.280  -3.676  1.00  0.00    -0.265 OA
ENDBRANCH  29  30
BRANCH  29  39
HETATM   39  N10 UNL     1      30.720  74.194  -7.301  1.00  0.00    -0.112 N 
HETATM   40  O5  UNL     1      31.241  73.501  -8.154  1.00  0.00    -0.532 OA
HETATM   41  O6  UNL     1      31.029  75.472  -7.069  1.00  0.00    -0.532 OA
ENDBRANCH  29  39
ENDBRANCH  28  29
ENDBRANCH  10  28
TORSDOF 8
ENDMDL
MODEL 5
REMARK VINA RESULT: -9.720955914      2.936      6.101
REMARK  8 active torsions:
REMARK  status: ('A' for Active; 'I' for Inactive)
REMARK    1  A    between atoms: N2_7  and  N3_8 
REMARK    2  A    between atoms: C3_11  and  C4_12 
REMARK    3  A    between atoms: C8_16  and  C9_17 
REMARK       I    between atoms: C9_17  and  N4_19 
REMARK    4  A    between atoms: N4_19  and  N5_21 
REMARK    5  A    between atoms: N7_27  and  C11_28 
REMARK    6  A    between atoms: C11_28  and  C12_29 
REMARK    7  A    between atoms: C12_29  and  C13_30 
REMARK    8  A    between atoms: C12_29  and  N10_39 
ROOT
HETATM    1  N1  UNL     1      28.438  76.652  -6.255  1.00  0.00    -0.380 N 
ATOM      2  H11 UNL     1      28.854  76.051  -6.966  1.00  0.00     0.157 HD
ATOM      3  H12 UNL     1      28.145  77.607  -6.460  1.00  0.00     0.157 HD
HETATM    4  C1  UNL     1      28.238  76.158  -5.062  1.00  0.00     0.176 A 
HETATM    5  C2  UNL     1      27.664  76.991  -4.078  1.00  0.00     0.310 A 
HETATM    6  O1  UNL     1      27.320  78.141  -4.351  1.00  0.00    -0.262 OA
HETATM    7  N2  UNL     1      27.492  76.514  -2.816  1.00  0.00    -0.220 N 
HETATM    8  C3  UNL     1      27.869  75.267  -2.524  1.00  0.00     0.102 A 
HETATM    9  C10 UNL     1      28.414  74.510  -3.494  1.00  0.00     0.132 A 
HETATM   10  N7  UNL     1      28.624  74.906  -4.792  1.00  0.00    -0.310 N 
ENDROOT
BRANCH   8  11
HETATM   11  C4  UNL     1      27.768  74.765  -1.149  1.00  0.00     0.063 A 
HETATM   12  C5  UNL     1      28.860  74.660  -0.302  1.00  0.00     0.032 A 
HETATM   13  C6  UNL     1      28.734  74.250   1.001  1.00  0.00     0.005 A 
HETATM   14  C7  UNL     1      27.488  73.931   1.479  1.00  0.00     0.035 A 
HETATM   15  C8  UNL     1      26.401  74.026   0.664  1.00  0.00     0.102 A 
HETATM   16  N6  UNL     1      26.561  74.440  -0.627  1.00  0.00    -0.350 N 
ATOM     17  H6  UNL     1      25.736  74.508  -1.223  1.00  0.00     0.166 HD
BRANCH  15  18
HETATM   18  C9  UNL     1      25.089  73.650   1.156  1.00  0.00     0.286 C 
HETATM   19  O2  UNL     1      25.005  73.181   2.351  1.00  0.00    -0.264 OA
HETATM   20  N4  UNL     1      23.891  73.766   0.423  1.00  0.00    -0.271 N 
ATOM     21  H4  UNL     1      23.899  74.132  -0.529  1.00  0.00     0.189 HD
BRANCH  20  22
HETATM   22  N5  UNL     1      22.671  73.365   1.032  1.00  0.00    -0.342 N 
ATOM     23  H52 UNL     1      21.826  73.288   0.466  1.00  0.00     0.176 HD
ATOM     24  H51 UNL     1      22.663  73.160   2.032  1.00  0.00     0.176 HD
ENDBRANCH  20  22
ENDBRANCH  15  18
ENDBRANCH   8  11
BRANCH   7  25
HETATM   25  N3  UNL     1      26.938  77.298  -1.815  1.00  0.00    -0.335 N 
ATOM     26  H32 UNL     1      26.266  76.877  -1.174  1.00  0.00     0.177 HD
ATOM     27  H31 UNL     1      27.192  78.279  -1.704  1.00  0.00     0.177 HD
ENDBRANCH   7  25
BRANCH  10  28
HETATM   28  C11 UNL     1      29.152  73.998  -5.724  1.00  0.00     0.136 C 
BRANCH  28  29
HETATM   29  C12 UNL     1      28.843  72.622  -5.871  1.00  0.00     0.151 C 
BRANCH  29  30
HETATM   30  C13 UNL     1      29.407  71.483  -5.578  1.00  0.00     0.140 A 
HETATM   31  N8  UNL     1      29.143  70.761  -4.330  1.00  0.00    -0.302 N 
HETATM   32  C14 UNL     1      29.923  69.605  -4.217  1.00  0.00     0.327 A 
ATOM     33  H8  UNL     1      28.469  71.064  -3.627  1.00  0.00     0.171 HD
HETATM   34  O3  UNL     1      30.025  68.715  -3.354  1.00  0.00    -0.247 OA
HETATM   35  N9  UNL     1      30.749  69.511  -5.402  1.00  0.00    -0.274 N 
HETATM   36  C15 UNL     1      30.421  70.647  -6.202  1.00  0.00     0.278 A 
ATOM     37  H9  UNL     1      31.427  68.781  -5.620  1.00  0.00     0.173 HD
HETATM   38  O4  UNL     1      30.991  70.817  -7.289  1.00  0.00    -0.265 OA
ENDBRANCH  29  30
BRANCH  29  39
HETATM   39  N10 UNL     1      27.514  72.447  -6.527  1.00  0.00    -0.112 N 
HETATM   40  O5  UNL     1      26.650  71.927  -5.847  1.00  0.00    -0.532 OA
HETATM   41  O6  UNL     1      27.343  72.860  -7.785  1.00  0.00    -0.532 OA
ENDBRANCH  29  39
ENDBRANCH  28  29
ENDBRANCH  10  28
TORSDOF 8
ENDMDL
