MODEL 1
REMARK VINA RESULT: -9.405182443      0.000      0.000
REMARK  9 active torsions:
REMARK  status: ('A' for Active; 'I' for Inactive)
REMARK    1  A    between atoms: C2_2  and  O1_3 
REMARK    2  A    between atoms: C2_2  and  C3_5 
REMARK    3  A    between atoms: C3_5  and  N1_6 
REMARK    4  A    between atoms: C3_5  and  C4_10 
REMARK    5  A    between atoms: N3_13  and  C5_14 
REMARK    6  A    between atoms: C6_17  and  N5_18 
REMARK    7  A    between atoms: N5_18  and  C7_20 
REMARK    8  A    between atoms: C10_23  and  S1_24 
REMARK    9  A    between atoms: S1_24  and  N6_25 
ROOT
HETATM    1  C5  UNL     1      23.489  73.781  -0.663  1.00  0.00     0.737 A 
HETATM    2  N4  UNL     1      24.817  74.005  -0.707  1.00  0.00    -0.019 N 
ATOM      3  H4  UNL     1      25.290  74.313   0.142  1.00  0.00     0.203 HD
HETATM    4  C6  UNL     1      25.543  73.838  -1.825  1.00  0.00     0.703 A 
HETATM    5  N7  UNL     1      24.874  73.430  -2.920  1.00  0.00    -0.136 N 
HETATM    6  C13 UNL     1      25.572  73.223  -4.172  1.00  0.00     0.180 C 
HETATM    7  C14 UNL     1      23.548  73.198  -2.906  1.00  0.00     0.354 A 
HETATM    8  O4  UNL     1      22.984  72.819  -3.961  1.00  0.00    -0.245 OA
HETATM    9  N8  UNL     1      22.852  73.375  -1.769  1.00  0.00    -0.138 N 
ATOM     10  H8  UNL     1      21.848  73.202  -1.750  1.00  0.00     0.189 HD
ENDROOT
BRANCH   1  11
HETATM   11  N3  UNL     1      22.748  73.969   0.545  1.00  0.00     0.092 N 
HETATM   12  N2  UNL     1      23.243  74.375   1.697  1.00  0.00    -0.250 N 
HETATM   13  C4  UNL     1      22.256  74.434   2.602  1.00  0.00     0.146 A 
ATOM     14  H2  UNL     1      24.221  74.607   1.872  1.00  0.00     0.190 HD
HETATM   15  N10 UNL     1      21.127  74.053   1.987  1.00  0.00    -0.175 N 
HETATM   16  C15 UNL     1      21.442  73.765   0.705  1.00  0.00     0.713 A 
ATOM     17  H10 UNL     1      20.200  73.992   2.409  1.00  0.00     0.185 HD
HETATM   18  N9  UNL     1      20.630  73.359  -0.222  1.00  0.00    -0.232 N 
ATOM     19  H92 UNL     1      20.868  73.141  -1.190  1.00  0.00     0.174 HD
ATOM     20  H91 UNL     1      19.629  73.203  -0.100  1.00  0.00     0.174 HD
BRANCH  13  21
HETATM   21  C3  UNL     1      22.351  74.843   4.040  1.00  0.00     0.280 C 
BRANCH  21  22
HETATM   22  C2  UNL     1      20.967  75.219   4.524  1.00  0.00     0.152 C 
HETATM   23  C1  UNL     1      21.149  76.161   5.718  1.00  0.00     0.042 C 
BRANCH  22  24
HETATM   24  O1  UNL     1      20.249  74.131   4.976  1.00  0.00    -0.393 OA
ATOM     25  H1  UNL     1      19.895  73.695   4.211  1.00  0.00     0.210 HD
ENDBRANCH  22  24
ENDBRANCH  21  22
BRANCH  21  26
HETATM   26  N1  UNL     1      23.204  76.006   4.171  1.00  0.00    -0.066 N 
ATOM     27  H13 UNL     1      23.171  76.416   5.104  1.00  0.00     0.275 HD
ATOM     28  H12 UNL     1      24.196  75.771   4.161  1.00  0.00     0.275 HD
ATOM     29  H11 UNL     1      22.949  76.669   3.439  1.00  0.00     0.275 HD
ENDBRANCH  21  26
ENDBRANCH  13  21
ENDBRANCH   1  11
BRANCH   4  30
HETATM   30  N5  UNL     1      26.789  74.037  -1.908  1.00  0.00    -0.191 N 
ATOM     31  H5  UNL     1      27.153  74.355  -2.805  1.00  0.00     0.184 HD
BRANCH  30  32
HETATM   32  C7  UNL     1      27.724  73.851  -0.854  1.00  0.00     0.049 A 
HETATM   33  C8  UNL     1      28.101  74.864   0.005  1.00  0.00     0.031 A 
HETATM   34  C9  UNL     1      29.015  74.644   1.019  1.00  0.00     0.027 A 
HETATM   35  C10 UNL     1      29.591  73.404   1.220  1.00  0.00     0.079 A 
HETATM   36  C11 UNL     1      29.217  72.389   0.362  1.00  0.00     0.027 A 
HETATM   37  C12 UNL     1      28.303  72.616  -0.650  1.00  0.00     0.031 A 
BRANCH  35  38
HETATM   38  S1  UNL     1      30.749  73.127   2.505  1.00  0.00     0.256 S 
HETATM   39  O2  UNL     1      32.137  72.968   1.959  1.00  0.00    -0.201 OA
HETATM   40  O3  UNL     1      30.787  74.292   3.459  1.00  0.00    -0.201 OA
BRANCH  38  41
HETATM   41  N6  UNL     1      30.358  71.728   3.420  1.00  0.00    -0.324 N 
ATOM     42  H62 UNL     1      29.600  71.092   3.174  1.00  0.00     0.169 HD
ATOM     43  H61 UNL     1      30.973  71.622   4.227  1.00  0.00     0.169 HD
ENDBRANCH  38  41
ENDBRANCH  35  38
ENDBRANCH  30  32
ENDBRANCH   4  30
TORSDOF 9
ENDMDL
MODEL 2
REMARK VINA RESULT: -9.146740342      6.510     10.391
REMARK  9 active torsions:
REMARK  status: ('A' for Active; 'I' for Inactive)
REMARK    1  A    between atoms: C2_2  and  O1_3 
REMARK    2  A    between atoms: C2_2  and  C3_5 
REMARK    3  A    between atoms: C3_5  and  N1_6 
REMARK    4  A    between atoms: C3_5  and  C4_10 
REMARK    5  A    between atoms: N3_13  and  C5_14 
REMARK    6  A    between atoms: C6_17  and  N5_18 
REMARK    7  A    between atoms: N5_18  and  C7_20 
REMARK    8  A    between atoms: C10_23  and  S1_24 
REMARK    9  A    between atoms: S1_24  and  N6_25 
ROOT
HETATM    1  C5  UNL     1      29.078  72.542  -3.462  1.00  0.00     0.737 A 
HETATM    2  N4  UNL     1      28.519  73.613  -4.060  1.00  0.00    -0.019 N 
ATOM      3  H4  UNL     1      28.411  73.607  -5.074  1.00  0.00     0.203 HD
HETATM    4  C6  UNL     1      28.099  74.688  -3.372  1.00  0.00     0.703 A 
HETATM    5  N7  UNL     1      28.263  74.649  -2.037  1.00  0.00    -0.136 N 
HETATM    6  C13 UNL     1      27.840  75.763  -1.212  1.00  0.00     0.180 C 
HETATM    7  C14 UNL     1      28.818  73.593  -1.413  1.00  0.00     0.354 A 
HETATM    8  O4  UNL     1      28.942  73.620  -0.164  1.00  0.00    -0.245 OA
HETATM    9  N8  UNL     1      29.227  72.534  -2.131  1.00  0.00    -0.138 N 
ATOM     10  H8  UNL     1      29.649  71.730  -1.667  1.00  0.00     0.189 HD
ENDROOT
BRANCH   1  11
HETATM   11  N3  UNL     1      29.515  71.415  -4.225  1.00  0.00     0.092 N 
HETATM   12  N2  UNL     1      30.704  70.851  -4.152  1.00  0.00    -0.250 N 
HETATM   13  C4  UNL     1      30.754  69.823  -5.011  1.00  0.00     0.146 A 
ATOM     14  H2  UNL     1      31.464  71.148  -3.541  1.00  0.00     0.190 HD
HETATM   15  N10 UNL     1      29.563  69.757  -5.626  1.00  0.00    -0.175 N 
HETATM   16  C15 UNL     1      28.797  70.753  -5.130  1.00  0.00     0.713 A 
ATOM     17  H10 UNL     1      29.288  69.080  -6.337  1.00  0.00     0.185 HD
HETATM   18  N9  UNL     1      27.575  71.032  -5.464  1.00  0.00    -0.232 N 
ATOM     19  H92 UNL     1      26.996  71.785  -5.090  1.00  0.00     0.174 HD
ATOM     20  H91 UNL     1      27.024  70.525  -6.158  1.00  0.00     0.174 HD
BRANCH  13  21
HETATM   21  C3  UNL     1      31.902  68.895  -5.269  1.00  0.00     0.280 C 
BRANCH  21  22
HETATM   22  C2  UNL     1      31.891  68.514  -6.734  1.00  0.00     0.152 C 
HETATM   23  C1  UNL     1      33.060  67.548  -6.955  1.00  0.00     0.042 C 
BRANCH  22  24
HETATM   24  O1  UNL     1      32.100  69.595  -7.565  1.00  0.00    -0.393 OA
ATOM     25  H1  UNL     1      32.955  69.949  -7.350  1.00  0.00     0.210 HD
ENDBRANCH  22  24
ENDBRANCH  21  22
BRANCH  21  26
HETATM   26  N1  UNL     1      31.748  67.685  -4.488  1.00  0.00    -0.066 N 
ATOM     27  H13 UNL     1      31.311  66.929  -5.015  1.00  0.00     0.275 HD
ATOM     28  H12 UNL     1      32.637  67.222  -4.298  1.00  0.00     0.275 HD
ATOM     29  H11 UNL     1      31.235  67.920  -3.638  1.00  0.00     0.275 HD
ENDBRANCH  21  26
ENDBRANCH  13  21
ENDBRANCH   1  11
BRANCH   4  30
HETATM   30  N5  UNL     1      27.570  75.711  -3.894  1.00  0.00    -0.191 N 
ATOM     31  H5  UNL     1      26.563  75.827  -3.779  1.00  0.00     0.184 HD
BRANCH  30  32
HETATM   32  C7  UNL     1      28.261  76.713  -4.629  1.00  0.00     0.049 A 
HETATM   33  C8  UNL     1      28.388  78.015  -4.192  1.00  0.00     0.031 A 
HETATM   34  C9  UNL     1      29.069  78.961  -4.936  1.00  0.00     0.027 A 
HETATM   35  C10 UNL     1      29.651  78.647  -6.149  1.00  0.00     0.079 A 
HETATM   36  C11 UNL     1      29.525  77.345  -6.591  1.00  0.00     0.027 A 
HETATM   37  C12 UNL     1      28.844  76.404  -5.841  1.00  0.00     0.031 A 
BRANCH  35  38
HETATM   38  S1  UNL     1      30.513  79.846  -7.092  1.00  0.00     0.256 S 
HETATM   39  O2  UNL     1      31.904  79.387  -7.412  1.00  0.00    -0.201 OA
HETATM   40  O3  UNL     1      29.823  80.097  -8.407  1.00  0.00    -0.201 OA
BRANCH  38  41
HETATM   41  N6  UNL     1      30.610  81.350  -6.269  1.00  0.00    -0.324 N 
ATOM     42  H62 UNL     1      31.415  81.973  -6.333  1.00  0.00     0.169 HD
ATOM     43  H61 UNL     1      29.770  81.533  -5.719  1.00  0.00     0.169 HD
ENDBRANCH  38  41
ENDBRANCH  35  38
ENDBRANCH  30  32
ENDBRANCH   4  30
TORSDOF 9
ENDMDL
MODEL 3
REMARK VINA RESULT: -9.091482596      3.255      7.390
REMARK  9 active torsions:
REMARK  status: ('A' for Active; 'I' for Inactive)
REMARK    1  A    between atoms: C2_2  and  O1_3 
REMARK    2  A    between atoms: C2_2  and  C3_5 
REMARK    3  A    between atoms: C3_5  and  N1_6 
REMARK    4  A    between atoms: C3_5  and  C4_10 
REMARK    5  A    between atoms: N3_13  and  C5_14 
REMARK    6  A    between atoms: C6_17  and  N5_18 
REMARK    7  A    between atoms: N5_18  and  C7_20 
REMARK    8  A    between atoms: C10_23  and  S1_24 
REMARK    9  A    between atoms: S1_24  and  N6_25 
ROOT
HETATM    1  C5  UNL     1      25.261  73.808  -2.369  1.00  0.00     0.737 A 
HETATM    2  N4  UNL     1      24.993  73.379  -1.120  1.00  0.00    -0.019 N 
ATOM      3  H4  UNL     1      24.149  72.830  -0.962  1.00  0.00     0.203 HD
HETATM    4  C6  UNL     1      25.795  73.645  -0.076  1.00  0.00     0.703 A 
HETATM    5  N7  UNL     1      26.898  74.372  -0.335  1.00  0.00    -0.136 N 
HETATM    6  C13 UNL     1      27.822  74.709   0.729  1.00  0.00     0.180 C 
HETATM    7  C14 UNL     1      27.192  74.814  -1.572  1.00  0.00     0.354 A 
HETATM    8  O4  UNL     1      28.236  75.488  -1.747  1.00  0.00    -0.245 OA
HETATM    9  N8  UNL     1      26.367  74.530  -2.595  1.00  0.00    -0.138 N 
ATOM     10  H8  UNL     1      26.582  74.861  -3.535  1.00  0.00     0.189 HD
ENDROOT
BRANCH   1  11
HETATM   11  N3  UNL     1      24.386  73.507  -3.458  1.00  0.00     0.092 N 
HETATM   12  N2  UNL     1      23.082  73.702  -3.474  1.00  0.00    -0.250 N 
HETATM   13  C4  UNL     1      22.594  73.303  -4.657  1.00  0.00     0.146 A 
ATOM     14  H2  UNL     1      22.533  74.095  -2.709  1.00  0.00     0.190 HD
HETATM   15  N10 UNL     1      23.627  72.851  -5.384  1.00  0.00    -0.175 N 
HETATM   16  C15 UNL     1      24.740  72.982  -4.629  1.00  0.00     0.713 A 
ATOM     17  H10 UNL     1      23.580  72.477  -6.332  1.00  0.00     0.185 HD
HETATM   18  N9  UNL     1      25.950  72.658  -4.967  1.00  0.00    -0.232 N 
ATOM     19  H92 UNL     1      26.790  72.756  -4.397  1.00  0.00     0.174 HD
ATOM     20  H91 UNL     1      26.222  72.255  -5.865  1.00  0.00     0.174 HD
BRANCH  13  21
HETATM   21  C3  UNL     1      21.171  73.337  -5.122  1.00  0.00     0.280 C 
BRANCH  21  22
HETATM   22  C2  UNL     1      20.794  74.775  -5.411  1.00  0.00     0.152 C 
HETATM   23  C1  UNL     1      20.174  74.804  -6.812  1.00  0.00     0.042 C 
BRANCH  22  24
HETATM   24  O1  UNL     1      21.889  75.615  -5.439  1.00  0.00    -0.393 OA
ATOM     25  H1  UNL     1      22.471  75.334  -4.743  1.00  0.00     0.210 HD
ENDBRANCH  22  24
ENDBRANCH  21  22
BRANCH  21  26
HETATM   26  N1  UNL     1      20.294  72.845  -4.080  1.00  0.00    -0.066 N 
ATOM     27  H13 UNL     1      19.308  72.981  -4.297  1.00  0.00     0.275 HD
ATOM     28  H12 UNL     1      20.281  71.827  -4.023  1.00  0.00     0.275 HD
ATOM     29  H11 UNL     1      20.570  73.285  -3.201  1.00  0.00     0.275 HD
ENDBRANCH  21  26
ENDBRANCH  13  21
ENDBRANCH   1  11
BRANCH   4  30
HETATM   30  N5  UNL     1      25.580  73.261   1.110  1.00  0.00    -0.191 N 
ATOM     31  H5  UNL     1      26.225  72.576   1.504  1.00  0.00     0.184 HD
BRANCH  30  32
HETATM   32  C7  UNL     1      24.513  73.703   1.938  1.00  0.00     0.049 A 
HETATM   33  C8  UNL     1      23.192  73.387   1.698  1.00  0.00     0.031 A 
HETATM   34  C9  UNL     1      22.182  73.837   2.529  1.00  0.00     0.027 A 
HETATM   35  C10 UNL     1      22.448  74.623   3.634  1.00  0.00     0.079 A 
HETATM   36  C11 UNL     1      23.768  74.942   3.877  1.00  0.00     0.027 A 
HETATM   37  C12 UNL     1      24.773  74.488   3.042  1.00  0.00     0.031 A 
BRANCH  35  38
HETATM   38  S1  UNL     1      21.167  75.193   4.685  1.00  0.00     0.256 S 
HETATM   39  O2  UNL     1      20.041  74.205   4.753  1.00  0.00    -0.201 OA
HETATM   40  O3  UNL     1      21.668  75.381   6.093  1.00  0.00    -0.201 OA
BRANCH  38  41
HETATM   41  N6  UNL     1      20.539  76.701   4.158  1.00  0.00    -0.324 N 
ATOM     42  H62 UNL     1      20.849  77.171   3.307  1.00  0.00     0.169 HD
ATOM     43  H61 UNL     1      19.829  77.058   4.798  1.00  0.00     0.169 HD
ENDBRANCH  38  41
ENDBRANCH  35  38
ENDBRANCH  30  32
ENDBRANCH   4  30
TORSDOF 9
ENDMDL
MODEL 4
REMARK VINA RESULT: -9.064890730      2.575      7.165
REMARK  9 active torsions:
REMARK  status: ('A' for Active; 'I' for Inactive)
REMARK    1  A    between atoms: C2_2  and  O1_3 
REMARK    2  A    between atoms: C2_2  and  C3_5 
REMARK    3  A    between atoms: C3_5  and  N1_6 
REMARK    4  A    between atoms: C3_5  and  C4_10 
REMARK    5  A    between atoms: N3_13  and  C5_14 
REMARK    6  A    between atoms: C6_17  and  N5_18 
REMARK    7  A    between atoms: N5_18  and  C7_20 
REMARK    8  A    between atoms: C10_23  and  S1_24 
REMARK    9  A    between atoms: S1_24  and  N6_25 
ROOT
HETATM    1  C5  UNL     1      24.940  73.651  -1.857  1.00  0.00     0.737 A 
HETATM    2  N4  UNL     1      23.784  73.813  -1.182  1.00  0.00    -0.019 N 
ATOM      3  H4  UNL     1      23.824  74.065  -0.195  1.00  0.00     0.203 HD
HETATM    4  C6  UNL     1      22.581  73.654  -1.760  1.00  0.00     0.703 A 
HETATM    5  N7  UNL     1      22.580  73.323  -3.064  1.00  0.00    -0.136 N 
HETATM    6  C13 UNL     1      21.330  73.131  -3.772  1.00  0.00     0.180 C 
HETATM    7  C14 UNL     1      23.718  73.155  -3.763  1.00  0.00     0.354 A 
HETATM    8  O4  UNL     1      23.647  72.845  -4.978  1.00  0.00    -0.245 OA
HETATM    9  N8  UNL     1      24.904  73.320  -3.154  1.00  0.00    -0.138 N 
ATOM     10  H8  UNL     1      25.772  73.195  -3.676  1.00  0.00     0.189 HD
ENDROOT
BRANCH   1  11
HETATM   11  N3  UNL     1      26.202  73.826  -1.211  1.00  0.00     0.092 N 
HETATM   12  N2  UNL     1      26.738  73.003  -0.332  1.00  0.00    -0.250 N 
HETATM   13  C4  UNL     1      27.924  73.490   0.058  1.00  0.00     0.146 A 
ATOM     14  H2  UNL     1      26.318  72.134  -0.002  1.00  0.00     0.190 HD
HETATM   15  N10 UNL     1      28.119  74.643  -0.599  1.00  0.00    -0.175 N 
HETATM   16  C15 UNL     1      27.041  74.845  -1.388  1.00  0.00     0.713 A 
ATOM     17  H10 UNL     1      28.931  75.255  -0.519  1.00  0.00     0.185 HD
HETATM   18  N9  UNL     1      26.839  75.849  -2.185  1.00  0.00    -0.232 N 
ATOM     19  H92 UNL     1      26.025  76.002  -2.780  1.00  0.00     0.174 HD
ATOM     20  H91 UNL     1      27.482  76.630  -2.321  1.00  0.00     0.174 HD
BRANCH  13  21
HETATM   21  C3  UNL     1      28.885  72.893   1.040  1.00  0.00     0.280 C 
BRANCH  21  22
HETATM   22  C2  UNL     1      29.905  73.947   1.416  1.00  0.00     0.152 C 
HETATM   23  C1  UNL     1      30.790  73.346   2.512  1.00  0.00     0.042 C 
BRANCH  22  24
HETATM   24  O1  UNL     1      29.325  75.082   1.945  1.00  0.00    -0.393 OA
ATOM     25  H1  UNL     1      29.772  75.827   1.561  1.00  0.00     0.210 HD
ENDBRANCH  22  24
ENDBRANCH  21  22
BRANCH  21  26
HETATM   26  N1  UNL     1      29.590  71.782   0.434  1.00  0.00    -0.066 N 
ATOM     27  H13 UNL     1      30.162  72.065  -0.361  1.00  0.00     0.275 HD
ATOM     28  H12 UNL     1      30.343  71.425   1.022  1.00  0.00     0.275 HD
ATOM     29  H11 UNL     1      28.905  71.066   0.193  1.00  0.00     0.275 HD
ENDBRANCH  21  26
ENDBRANCH  13  21
ENDBRANCH   1  11
BRANCH   4  30
HETATM   30  N5  UNL     1      21.475  73.798  -1.163  1.00  0.00    -0.191 N 
ATOM     31  H5  UNL     1      20.627  73.700  -1.721  1.00  0.00     0.184 HD
BRANCH  30  32
HETATM   32  C7  UNL     1      21.316  74.083   0.220  1.00  0.00     0.049 A 
HETATM   33  C8  UNL     1      20.172  74.647   0.746  1.00  0.00     0.031 A 
HETATM   34  C9  UNL     1      20.056  74.910   2.099  1.00  0.00     0.027 A 
HETATM   35  C10 UNL     1      21.077  74.622   2.983  1.00  0.00     0.079 A 
HETATM   36  C11 UNL     1      22.223  74.059   2.461  1.00  0.00     0.027 A 
HETATM   37  C12 UNL     1      22.333  73.798   1.108  1.00  0.00     0.031 A 
BRANCH  35  38
HETATM   38  S1  UNL     1      20.928  74.956   4.697  1.00  0.00     0.256 S 
HETATM   39  O2  UNL     1      19.776  74.208   5.298  1.00  0.00    -0.201 OA
HETATM   40  O3  UNL     1      22.165  74.524   5.441  1.00  0.00    -0.201 OA
BRANCH  38  41
HETATM   41  N6  UNL     1      20.709  76.632   5.000  1.00  0.00    -0.324 N 
ATOM     42  H62 UNL     1      19.854  77.136   4.764  1.00  0.00     0.169 HD
ATOM     43  H61 UNL     1      21.532  77.046   5.437  1.00  0.00     0.169 HD
ENDBRANCH  38  41
ENDBRANCH  35  38
ENDBRANCH  30  32
ENDBRANCH   4  30
TORSDOF 9
ENDMDL
MODEL 5
REMARK VINA RESULT: -9.020452977      4.693      8.492
REMARK  9 active torsions:
REMARK  status: ('A' for Active; 'I' for Inactive)
REMARK    1  A    between atoms: C2_2  and  O1_3 
REMARK    2  A    between atoms: C2_2  and  C3_5 
REMARK    3  A    between atoms: C3_5  and  N1_6 
REMARK    4  A    between atoms: C3_5  and  C4_10 
REMARK    5  A    between atoms: N3_13  and  C5_14 
REMARK    6  A    between atoms: C6_17  and  N5_18 
REMARK    7  A    between atoms: N5_18  and  C7_20 
REMARK    8  A    between atoms: C10_23  and  S1_24 
REMARK    9  A    between atoms: S1_24  and  N6_25 
ROOT
HETATM    1  C5  UNL     1      27.784  75.627  -4.807  1.00  0.00     0.737 A 
HETATM    2  N4  UNL     1      27.676  75.712  -3.466  1.00  0.00    -0.019 N 
ATOM      3  H4  UNL     1      28.289  76.355  -2.965  1.00  0.00     0.203 HD
HETATM    4  C6  UNL     1      26.794  74.983  -2.763  1.00  0.00     0.703 A 
HETATM    5  N7  UNL     1      26.006  74.150  -3.468  1.00  0.00    -0.136 N 
HETATM    6  C13 UNL     1      25.023  73.323  -2.796  1.00  0.00     0.180 C 
HETATM    7  C14 UNL     1      26.090  74.043  -4.807  1.00  0.00     0.354 A 
HETATM    8  O4  UNL     1      25.327  73.247  -5.405  1.00  0.00    -0.245 OA
HETATM    9  N8  UNL     1      26.985  74.788  -5.480  1.00  0.00    -0.138 N 
ATOM     10  H8  UNL     1      27.056  74.714  -6.494  1.00  0.00     0.189 HD
ENDROOT
BRANCH   1  11
HETATM   11  N3  UNL     1      28.735  76.417  -5.523  1.00  0.00     0.092 N 
HETATM   12  N2  UNL     1      28.584  77.681  -5.865  1.00  0.00    -0.250 N 
HETATM   13  C4  UNL     1      29.677  78.090  -6.525  1.00  0.00     0.146 A 
ATOM     14  H2  UNL     1      27.767  78.257  -5.660  1.00  0.00     0.190 HD
HETATM   15  N10 UNL     1      30.518  77.047  -6.589  1.00  0.00    -0.175 N 
HETATM   16  C15 UNL     1      29.924  76.009  -5.963  1.00  0.00     0.713 A 
ATOM     17  H10 UNL     1      31.438  77.040  -7.031  1.00  0.00     0.185 HD
HETATM   18  N9  UNL     1      30.408  74.815  -5.807  1.00  0.00    -0.232 N 
ATOM     19  H92 UNL     1      29.959  74.031  -5.334  1.00  0.00     0.174 HD
ATOM     20  H91 UNL     1      31.319  74.502  -6.143  1.00  0.00     0.174 HD
BRANCH  13  21
HETATM   21  C3  UNL     1      29.950  79.446  -7.100  1.00  0.00     0.280 C 
BRANCH  21  22
HETATM   22  C2  UNL     1      29.991  79.328  -8.609  1.00  0.00     0.152 C 
HETATM   23  C1  UNL     1      29.129  80.462  -9.172  1.00  0.00     0.042 C 
BRANCH  22  24
HETATM   24  O1  UNL     1      29.448  78.145  -9.064  1.00  0.00    -0.393 OA
ATOM     25  H1  UNL     1      29.095  77.693  -8.307  1.00  0.00     0.210 HD
ENDBRANCH  22  24
ENDBRANCH  21  22
BRANCH  21  26
HETATM   26  N1  UNL     1      31.240  79.926  -6.651  1.00  0.00    -0.066 N 
ATOM     27  H13 UNL     1      31.267  80.106  -5.647  1.00  0.00     0.275 HD
ATOM     28  H12 UNL     1      31.961  79.205  -6.679  1.00  0.00     0.275 HD
ATOM     29  H11 UNL     1      31.482  80.748  -7.205  1.00  0.00     0.275 HD
ENDBRANCH  21  26
ENDBRANCH  13  21
ENDBRANCH   1  11
BRANCH   4  30
HETATM   30  N5  UNL     1      26.661  75.034  -1.507  1.00  0.00    -0.191 N 
ATOM     31  H5  UNL     1      25.799  75.440  -1.143  1.00  0.00     0.184 HD
BRANCH  30  32
HETATM   32  C7  UNL     1      27.615  74.573  -0.558  1.00  0.00     0.049 A 
HETATM   33  C8  UNL     1      27.968  73.245  -0.430  1.00  0.00     0.031 A 
HETATM   34  C9  UNL     1      28.900  72.836   0.506  1.00  0.00     0.027 A 
HETATM   35  C10 UNL     1      29.519  73.734   1.353  1.00  0.00     0.079 A 
HETATM   36  C11 UNL     1      29.168  75.063   1.228  1.00  0.00     0.027 A 
HETATM   37  C12 UNL     1      28.235  75.466   0.290  1.00  0.00     0.031 A 
BRANCH  35  38
HETATM   38  S1  UNL     1      30.700  73.214   2.538  1.00  0.00     0.256 S 
HETATM   39  O2  UNL     1      32.069  73.117   1.933  1.00  0.00    -0.201 OA
HETATM   40  O3  UNL     1      30.795  74.199   3.674  1.00  0.00    -0.201 OA
BRANCH  38  41
HETATM   41  N6  UNL     1      30.292  71.690   3.215  1.00  0.00    -0.324 N 
ATOM     42  H62 UNL     1      29.469  71.156   2.935  1.00  0.00     0.169 HD
ATOM     43  H61 UNL     1      30.969  71.398   3.919  1.00  0.00     0.169 HD
ENDBRANCH  38  41
ENDBRANCH  35  38
ENDBRANCH  30  32
ENDBRANCH   4  30
TORSDOF 9
ENDMDL
