MODEL 1
REMARK VINA RESULT: -9.248560022      0.000      0.000
REMARK  6 active torsions:
REMARK  status: ('A' for Active; 'I' for Inactive)
REMARK    1  A    between atoms: C5_9  and  C6_10 
REMARK       I    between atoms: C6_10  and  N4_12 
REMARK    2  A    between atoms: N4_12  and  C7_14 
REMARK    3  A    between atoms: C7_14  and  C8_15 
REMARK    4  A    between atoms: N5_19  and  N6_20 
REMARK    5  A    between atoms: C10_23  and  C11_24 
REMARK    6  A    between atoms: C13_30  and  N10_31 
ROOT
HETATM    1  N1  UNL     1      25.026  73.385   2.296  1.00  0.00    -0.191 NA
HETATM    2  C1  UNL     1      25.742  73.670   1.406  1.00  0.00     0.103 C 
HETATM    3  C2  UNL     1      26.637  74.027   0.336  1.00  0.00     0.093 A 
HETATM    4  C3  UNL     1      27.989  74.305   0.484  1.00  0.00     0.134 A 
HETATM    5  N2  UNL     1      28.463  74.592  -0.724  1.00  0.00    -0.287 N 
ATOM      6  H2  UNL     1      29.428  74.839  -0.939  1.00  0.00     0.188 HD
HETATM    7  N3  UNL     1      27.460  74.504  -1.617  1.00  0.00    -0.172 N 
HETATM    8  C4  UNL     1      26.316  74.157  -1.003  1.00  0.00     0.116 A 
HETATM    9  C5  UNL     1      25.312  74.075  -1.940  1.00  0.00     0.083 A 
HETATM   10  C9  UNL     1      25.915  74.389  -3.136  1.00  0.00     0.160 A 
HETATM   11  N5  UNL     1      27.210  74.642  -2.903  1.00  0.00    -0.163 N 
ENDROOT
BRANCH   9  12
HETATM   12  C6  UNL     1      23.914  73.721  -1.693  1.00  0.00     0.256 C 
HETATM   13  O1  UNL     1      23.298  73.080  -2.599  1.00  0.00    -0.268 OA
HETATM   14  N4  UNL     1      23.242  74.062  -0.508  1.00  0.00    -0.347 N 
ATOM     15  H4  UNL     1      23.746  74.574   0.217  1.00  0.00     0.163 HD
BRANCH  14  16
HETATM   16  C7  UNL     1      21.874  73.712  -0.288  1.00  0.00     0.236 C 
BRANCH  16  17
HETATM   17  C8  UNL     1      21.474  73.763   1.125  1.00  0.00     0.191 C 
HETATM   18  O2  UNL     1      21.959  74.569   1.945  1.00  0.00    -0.647 OA
HETATM   19  O3  UNL     1      20.494  72.847   1.544  1.00  0.00    -0.647 OA
ENDBRANCH  16  17
ENDBRANCH  14  16
ENDBRANCH   9  12
BRANCH  11  20
HETATM   20  N6  UNL     1      28.133  74.999  -3.912  1.00  0.00    -0.166 N 
HETATM   21  N7  UNL     1      28.862  74.213  -4.680  1.00  0.00    -0.270 N 
HETATM   22  C10 UNL     1      29.617  74.946  -5.517  1.00  0.00     0.145 A 
ATOM     23  H7  UNL     1      28.853  73.193  -4.645  1.00  0.00     0.189 HD
HETATM   24  C12 UNL     1      29.343  76.267  -5.255  1.00  0.00     0.118 A 
HETATM   25  N9  UNL     1      29.754  77.449  -5.729  1.00  0.00    -0.187 N 
HETATM   26  C15 UNL     1      28.393  76.293  -4.226  1.00  0.00     0.174 A 
HETATM   27  C13 UNL     1      29.269  78.620  -5.235  1.00  0.00     0.679 A 
ATOM     28  H9  UNL     1      30.446  77.472  -6.479  1.00  0.00     0.184 HD
HETATM   29  N11 UNL     1      28.358  78.675  -4.249  1.00  0.00    -0.154 N 
HETATM   30  C14 UNL     1      27.929  77.502  -3.756  1.00  0.00     0.292 A 
ATOM     31  H11 UNL     1      28.009  79.565  -3.892  1.00  0.00     0.187 HD
HETATM   32  O5  UNL     1      27.081  77.473  -2.836  1.00  0.00    -0.265 OA
BRANCH  22  33
HETATM   33  C11 UNL     1      30.563  74.450  -6.528  1.00  0.00     0.285 C 
HETATM   34  N8  UNL     1      31.607  75.250  -7.035  1.00  0.00    -0.056 NA
HETATM   35  O4  UNL     1      30.474  73.279  -6.983  1.00  0.00    -0.269 OA
ENDBRANCH  22  33
BRANCH  27  36
HETATM   36  N10 UNL     1      29.725  79.702  -5.756  1.00  0.00    -0.234 N 
ATOM     37 2H10 UNL     1      30.724  79.803  -5.941  1.00  0.00     0.174 HD
ATOM     38 1H10 UNL     1      29.046  80.433  -5.969  1.00  0.00     0.174 HD
ENDBRANCH  27  36
ENDBRANCH  11  20
TORSDOF 6
ENDMDL
MODEL 2
REMARK VINA RESULT: -9.230680746      2.357      8.308
REMARK  6 active torsions:
REMARK  status: ('A' for Active; 'I' for Inactive)
REMARK    1  A    between atoms: C5_9  and  C6_10 
REMARK       I    between atoms: C6_10  and  N4_12 
REMARK    2  A    between atoms: N4_12  and  C7_14 
REMARK    3  A    between atoms: C7_14  and  C8_15 
REMARK    4  A    between atoms: N5_19  and  N6_20 
REMARK    5  A    between atoms: C10_23  and  C11_24 
REMARK    6  A    between atoms: C13_30  and  N10_31 
ROOT
HETATM    1  N1  UNL     1      32.172  75.490  -7.062  1.00  0.00    -0.191 NA
HETATM    2  C1  UNL     1      31.243  75.101  -6.451  1.00  0.00     0.103 C 
HETATM    3  C2  UNL     1      30.113  74.599  -5.714  1.00  0.00     0.093 A 
HETATM    4  C3  UNL     1      29.857  73.260  -5.457  1.00  0.00     0.134 A 
HETATM    5  N2  UNL     1      28.729  73.205  -4.757  1.00  0.00    -0.287 N 
ATOM      6  H2  UNL     1      28.282  72.353  -4.419  1.00  0.00     0.188 HD
HETATM    7  N3  UNL     1      28.273  74.457  -4.568  1.00  0.00    -0.172 N 
HETATM    8  C4  UNL     1      29.100  75.347  -5.144  1.00  0.00     0.116 A 
HETATM    9  C5  UNL     1      28.607  76.614  -4.933  1.00  0.00     0.083 A 
HETATM   10  C9  UNL     1      27.453  76.433  -4.208  1.00  0.00     0.160 A 
HETATM   11  N5  UNL     1      27.282  75.119  -4.006  1.00  0.00    -0.163 N 
ENDROOT
BRANCH   9  12
HETATM   12  C6  UNL     1      29.205  77.870  -5.389  1.00  0.00     0.256 C 
HETATM   13  O1  UNL     1      29.185  78.857  -4.592  1.00  0.00    -0.268 OA
HETATM   14  N4  UNL     1      29.791  78.016  -6.657  1.00  0.00    -0.347 N 
ATOM     15  H4  UNL     1      29.807  77.216  -7.290  1.00  0.00     0.163 HD
BRANCH  14  16
HETATM   16  C7  UNL     1      30.366  79.253  -7.084  1.00  0.00     0.236 C 
BRANCH  16  17
HETATM   17  C8  UNL     1      29.830  79.738  -8.364  1.00  0.00     0.191 C 
HETATM   18  O2  UNL     1      29.638  80.946  -8.611  1.00  0.00    -0.647 OA
HETATM   19  O3  UNL     1      29.529  78.771  -9.337  1.00  0.00    -0.647 OA
ENDBRANCH  16  17
ENDBRANCH  14  16
ENDBRANCH   9  12
BRANCH  11  20
HETATM   20  N6  UNL     1      26.192  74.570  -3.294  1.00  0.00    -0.166 N 
HETATM   21  N7  UNL     1      25.006  74.213  -3.746  1.00  0.00    -0.270 N 
HETATM   22  C10 UNL     1      24.249  73.732  -2.744  1.00  0.00     0.145 A 
ATOM     23  H7  UNL     1      24.706  74.290  -4.718  1.00  0.00     0.189 HD
HETATM   24  C12 UNL     1      25.008  73.794  -1.600  1.00  0.00     0.118 A 
HETATM   25  N9  UNL     1      24.835  73.478  -0.311  1.00  0.00    -0.187 N 
HETATM   26  C15 UNL     1      26.249  74.332  -1.959  1.00  0.00     0.174 A 
HETATM   27  C13 UNL     1      25.821  73.670   0.605  1.00  0.00     0.679 A 
ATOM     28  H9  UNL     1      23.944  73.084  -0.009  1.00  0.00     0.184 HD
HETATM   29  N11 UNL     1      27.022  74.184   0.290  1.00  0.00    -0.154 N 
HETATM   30  C14 UNL     1      27.221  74.509  -0.998  1.00  0.00     0.292 A 
ATOM     31  H11 UNL     1      27.748  74.320   0.994  1.00  0.00     0.187 HD
HETATM   32  O5  UNL     1      28.313  74.992  -1.369  1.00  0.00    -0.265 OA
BRANCH  22  33
HETATM   33  C11 UNL     1      22.869  73.231  -2.833  1.00  0.00     0.285 C 
HETATM   34  N8  UNL     1      22.308  72.792  -4.049  1.00  0.00    -0.056 NA
HETATM   35  O4  UNL     1      22.130  73.175  -1.815  1.00  0.00    -0.269 OA
ENDBRANCH  22  33
BRANCH  27  36
HETATM   36  N10 UNL     1      25.560  73.335   1.818  1.00  0.00    -0.234 N 
ATOM     37 2H10 UNL     1      24.646  73.541   2.222  1.00  0.00     0.174 HD
ATOM     38 1H10 UNL     1      26.301  72.862   2.336  1.00  0.00     0.174 HD
ENDBRANCH  27  36
ENDBRANCH  11  20
TORSDOF 6
ENDMDL
MODEL 3
REMARK VINA RESULT: -9.131303281      3.508      8.397
REMARK  6 active torsions:
REMARK  status: ('A' for Active; 'I' for Inactive)
REMARK    1  A    between atoms: C5_9  and  C6_10 
REMARK       I    between atoms: C6_10  and  N4_12 
REMARK    2  A    between atoms: N4_12  and  C7_14 
REMARK    3  A    between atoms: C7_14  and  C8_15 
REMARK    4  A    between atoms: N5_19  and  N6_20 
REMARK    5  A    between atoms: C10_23  and  C11_24 
REMARK    6  A    between atoms: C13_30  and  N10_31 
ROOT
HETATM    1  N1  UNL     1      29.106  73.103  -7.913  1.00  0.00    -0.191 NA
HETATM    2  C1  UNL     1      29.060  73.319  -6.756  1.00  0.00     0.103 C 
HETATM    3  C2  UNL     1      29.004  73.612  -5.347  1.00  0.00     0.093 A 
HETATM    4  C3  UNL     1      28.735  74.858  -4.799  1.00  0.00     0.134 A 
HETATM    5  N2  UNL     1      28.776  74.721  -3.479  1.00  0.00    -0.287 N 
ATOM      6  H2  UNL     1      28.618  75.466  -2.800  1.00  0.00     0.188 HD
HETATM    7  N3  UNL     1      29.060  73.440  -3.183  1.00  0.00    -0.172 N 
HETATM    8  C4  UNL     1      29.208  72.722  -4.309  1.00  0.00     0.116 A 
HETATM    9  C5  UNL     1      29.497  71.419  -3.973  1.00  0.00     0.083 A 
HETATM   10  C9  UNL     1      29.513  71.400  -2.598  1.00  0.00     0.160 A 
HETATM   11  N5  UNL     1      29.245  72.636  -2.155  1.00  0.00    -0.163 N 
ENDROOT
BRANCH   9  12
HETATM   12  C6  UNL     1      29.728  70.310  -4.899  1.00  0.00     0.256 C 
HETATM   13  O1  UNL     1      29.391  69.146  -4.523  1.00  0.00    -0.268 OA
HETATM   14  N4  UNL     1      30.301  70.488  -6.170  1.00  0.00    -0.347 N 
ATOM     15  H4  UNL     1      30.566  71.427  -6.466  1.00  0.00     0.163 HD
BRANCH  14  16
HETATM   16  C7  UNL     1      30.523  69.390  -7.057  1.00  0.00     0.236 C 
BRANCH  16  17
HETATM   17  C8  UNL     1      31.885  68.841  -6.985  1.00  0.00     0.191 C 
HETATM   18  O2  UNL     1      32.789  69.146  -7.789  1.00  0.00    -0.647 OA
HETATM   19  O3  UNL     1      32.151  67.930  -5.949  1.00  0.00    -0.647 OA
ENDBRANCH  16  17
ENDBRANCH  14  16
ENDBRANCH   9  12
BRANCH  11  20
HETATM   20  N6  UNL     1      29.181  72.981  -0.786  1.00  0.00    -0.166 N 
HETATM   21  N7  UNL     1      30.151  73.001   0.107  1.00  0.00    -0.270 N 
HETATM   22  C10 UNL     1      29.676  73.388   1.305  1.00  0.00     0.145 A 
ATOM     23  H7  UNL     1      31.123  72.758  -0.084  1.00  0.00     0.189 HD
HETATM   24  C12 UNL     1      28.332  73.623   1.148  1.00  0.00     0.118 A 
HETATM   25  N9  UNL     1      27.324  74.018   1.936  1.00  0.00    -0.187 N 
HETATM   26  C15 UNL     1      28.021  73.360  -0.192  1.00  0.00     0.174 A 
HETATM   27  C13 UNL     1      26.060  74.157   1.456  1.00  0.00     0.679 A 
ATOM     28  H9  UNL     1      27.509  74.219   2.919  1.00  0.00     0.184 HD
HETATM   29  N11 UNL     1      25.733  73.912   0.175  1.00  0.00    -0.154 N 
HETATM   30  C14 UNL     1      26.726  73.515  -0.636  1.00  0.00     0.292 A 
ATOM     31  H11 UNL     1      24.777  74.023  -0.164  1.00  0.00     0.187 HD
HETATM   32  O5  UNL     1      26.500  73.268  -1.841  1.00  0.00    -0.265 OA
BRANCH  22  33
HETATM   33  C11 UNL     1      30.434  73.538   2.556  1.00  0.00     0.285 C 
HETATM   34  N8  UNL     1      30.933  72.429   3.267  1.00  0.00    -0.056 NA
HETATM   35  O4  UNL     1      30.668  74.676   3.042  1.00  0.00    -0.269 OA
ENDBRANCH  22  33
BRANCH  27  36
HETATM   36  N10 UNL     1      25.161  74.542   2.290  1.00  0.00    -0.234 N 
ATOM     37 2H10 UNL     1      25.142  74.160   3.236  1.00  0.00     0.174 HD
ATOM     38 1H10 UNL     1      24.489  75.233   1.958  1.00  0.00     0.174 HD
ENDBRANCH  27  36
ENDBRANCH  11  20
TORSDOF 6
ENDMDL
MODEL 4
REMARK VINA RESULT: -8.974534121      2.428      8.311
REMARK  6 active torsions:
REMARK  status: ('A' for Active; 'I' for Inactive)
REMARK    1  A    between atoms: C5_9  and  C6_10 
REMARK       I    between atoms: C6_10  and  N4_12 
REMARK    2  A    between atoms: N4_12  and  C7_14 
REMARK    3  A    between atoms: C7_14  and  C8_15 
REMARK    4  A    between atoms: N5_19  and  N6_20 
REMARK    5  A    between atoms: C10_23  and  C11_24 
REMARK    6  A    between atoms: C13_30  and  N10_31 
ROOT
HETATM    1  N1  UNL     1      31.239  73.295  -8.865  1.00  0.00    -0.191 NA
HETATM    2  C1  UNL     1      30.669  73.218  -7.837  1.00  0.00     0.103 C 
HETATM    3  C2  UNL     1      29.969  73.095  -6.585  1.00  0.00     0.093 A 
HETATM    4  C3  UNL     1      29.645  71.898  -5.964  1.00  0.00     0.134 A 
HETATM    5  N2  UNL     1      29.003  72.201  -4.841  1.00  0.00    -0.287 N 
ATOM      6  H2  UNL     1      28.638  71.530  -4.167  1.00  0.00     0.188 HD
HETATM    7  N3  UNL     1      28.915  73.540  -4.738  1.00  0.00    -0.172 N 
HETATM    8  C4  UNL     1      29.499  74.129  -5.796  1.00  0.00     0.116 A 
HETATM    9  C5  UNL     1      29.393  75.495  -5.662  1.00  0.00     0.083 A 
HETATM   10  C9  UNL     1      28.719  75.685  -4.477  1.00  0.00     0.160 A 
HETATM   11  N5  UNL     1      28.447  74.485  -3.948  1.00  0.00    -0.163 N 
ENDROOT
BRANCH   9  12
HETATM   12  C6  UNL     1      29.901  76.505  -6.591  1.00  0.00     0.256 C 
HETATM   13  O1  UNL     1      31.020  76.286  -7.147  1.00  0.00    -0.268 OA
HETATM   14  N4  UNL     1      29.202  77.688  -6.881  1.00  0.00    -0.347 N 
ATOM     15  H4  UNL     1      28.301  77.855  -6.432  1.00  0.00     0.163 HD
BRANCH  14  16
HETATM   16  C7  UNL     1      29.718  78.665  -7.788  1.00  0.00     0.236 C 
BRANCH  16  17
HETATM   17  C8  UNL     1      30.650  79.614  -7.162  1.00  0.00     0.191 C 
HETATM   18  O2  UNL     1      30.300  80.455  -6.310  1.00  0.00    -0.647 OA
HETATM   19  O3  UNL     1      31.995  79.547  -7.565  1.00  0.00    -0.647 OA
ENDBRANCH  16  17
ENDBRANCH  14  16
ENDBRANCH   9  12
BRANCH  11  20
HETATM   20  N6  UNL     1      27.761  74.305  -2.726  1.00  0.00    -0.166 N 
HETATM   21  N7  UNL     1      28.244  74.315  -1.499  1.00  0.00    -0.270 N 
HETATM   22  C10 UNL     1      27.259  74.103  -0.607  1.00  0.00     0.145 A 
ATOM     23  H7  UNL     1      29.225  74.462  -1.260  1.00  0.00     0.189 HD
HETATM   24  C12 UNL     1      26.095  73.953  -1.321  1.00  0.00     0.118 A 
HETATM   25  N9  UNL     1      24.808  73.725  -1.030  1.00  0.00    -0.187 N 
HETATM   26  C15 UNL     1      26.424  74.082  -2.676  1.00  0.00     0.174 A 
HETATM   27  C13 UNL     1      23.866  73.626  -2.005  1.00  0.00     0.679 A 
ATOM     28  H9  UNL     1      24.528  73.625  -0.054  1.00  0.00     0.184 HD
HETATM   29  N11 UNL     1      24.152  73.745  -3.313  1.00  0.00    -0.154 N 
HETATM   30  C14 UNL     1      25.437  73.975  -3.632  1.00  0.00     0.292 A 
ATOM     31  H11 UNL     1      23.429  73.666  -4.029  1.00  0.00     0.187 HD
HETATM   32  O5  UNL     1      25.781  74.097  -4.828  1.00  0.00    -0.265 OA
BRANCH  22  33
HETATM   33  C11 UNL     1      27.383  74.041   0.857  1.00  0.00     0.285 C 
HETATM   34  N8  UNL     1      28.577  74.380   1.523  1.00  0.00    -0.056 NA
HETATM   35  O4  UNL     1      26.415  73.680   1.577  1.00  0.00    -0.269 OA
ENDBRANCH  22  33
BRANCH  27  36
HETATM   36  N10 UNL     1      22.658  73.407  -1.625  1.00  0.00    -0.234 N 
ATOM     37 2H10 UNL     1      21.875  73.706  -2.207  1.00  0.00     0.174 HD
ATOM     38 1H10 UNL     1      22.535  72.930  -0.732  1.00  0.00     0.174 HD
ENDBRANCH  27  36
ENDBRANCH  11  20
TORSDOF 6
ENDMDL
MODEL 5
REMARK VINA RESULT: -8.921690043      2.872      8.040
REMARK  6 active torsions:
REMARK  status: ('A' for Active; 'I' for Inactive)
REMARK    1  A    between atoms: C5_9  and  C6_10 
REMARK       I    between atoms: C6_10  and  N4_12 
REMARK    2  A    between atoms: N4_12  and  C7_14 
REMARK    3  A    between atoms: C7_14  and  C8_15 
REMARK    4  A    between atoms: N5_19  and  N6_20 
REMARK    5  A    between atoms: C10_23  and  C11_24 
REMARK    6  A    between atoms: C13_30  and  N10_31 
ROOT
HETATM    1  N1  UNL     1      29.125  72.928  -8.208  1.00  0.00    -0.191 NA
HETATM    2  C1  UNL     1      29.102  72.832  -7.034  1.00  0.00     0.103 C 
HETATM    3  C2  UNL     1      29.072  72.687  -5.603  1.00  0.00     0.093 A 
HETATM    4  C3  UNL     1      29.254  71.495  -4.916  1.00  0.00     0.134 A 
HETATM    5  N2  UNL     1      29.153  71.770  -3.621  1.00  0.00    -0.287 N 
ATOM      6  H2  UNL     1      29.241  71.096  -2.862  1.00  0.00     0.188 HD
HETATM    7  N3  UNL     1      28.915  73.087  -3.473  1.00  0.00    -0.172 N 
HETATM    8  C4  UNL     1      28.858  73.689  -4.674  1.00  0.00     0.116 A 
HETATM    9  C5  UNL     1      28.614  75.030  -4.490  1.00  0.00     0.083 A 
HETATM   10  C9  UNL     1      28.530  75.194  -3.127  1.00  0.00     0.160 A 
HETATM   11  N5  UNL     1      28.716  74.001  -2.545  1.00  0.00    -0.163 N 
ENDROOT
BRANCH   9  12
HETATM   12  C6  UNL     1      28.483  76.045  -5.536  1.00  0.00     0.256 C 
HETATM   13  O1  UNL     1      27.446  76.010  -6.266  1.00  0.00    -0.268 OA
HETATM   14  N4  UNL     1      29.451  77.039  -5.756  1.00  0.00    -0.347 N 
ATOM     15  H4  UNL     1      30.281  77.062  -5.163  1.00  0.00     0.163 HD
BRANCH  14  16
HETATM   16  C7  UNL     1      29.306  78.018  -6.787  1.00  0.00     0.236 C 
BRANCH  16  17
HETATM   17  C8  UNL     1      30.278  79.117  -6.694  1.00  0.00     0.191 C 
HETATM   18  O2  UNL     1      31.194  79.292  -7.524  1.00  0.00    -0.647 OA
HETATM   19  O3  UNL     1      30.143  79.997  -5.608  1.00  0.00    -0.647 OA
ENDBRANCH  16  17
ENDBRANCH  14  16
ENDBRANCH   9  12
BRANCH  11  20
HETATM   20  N6  UNL     1      28.695  73.799  -1.147  1.00  0.00    -0.166 N 
HETATM   21  N7  UNL     1      29.711  73.699  -0.312  1.00  0.00    -0.270 N 
HETATM   22  C10 UNL     1      29.267  73.508   0.944  1.00  0.00     0.145 A 
ATOM     23  H7  UNL     1      30.694  73.759  -0.580  1.00  0.00     0.189 HD
HETATM   24  C12 UNL     1      27.895  73.487   0.886  1.00  0.00     0.118 A 
HETATM   25  N9  UNL     1      26.896  73.338   1.765  1.00  0.00    -0.187 N 
HETATM   26  C15 UNL     1      27.536  73.673  -0.454  1.00  0.00     0.174 A 
HETATM   27  C13 UNL     1      25.594  73.367   1.372  1.00  0.00     0.679 A 
ATOM     28  H9  UNL     1      27.116  73.200   2.752  1.00  0.00     0.184 HD
HETATM   29  N11 UNL     1      25.220  73.544   0.094  1.00  0.00    -0.154 N 
HETATM   30  C14 UNL     1      26.204  73.696  -0.808  1.00  0.00     0.292 A 
ATOM     31  H11 UNL     1      24.237  73.561  -0.179  1.00  0.00     0.187 HD
HETATM   32  O5  UNL     1      25.935  73.865  -2.017  1.00  0.00    -0.265 OA
BRANCH  22  33
HETATM   33  C11 UNL     1      30.079  73.349   2.159  1.00  0.00     0.285 C 
HETATM   34  N8  UNL     1      30.500  74.452   2.929  1.00  0.00    -0.056 NA
HETATM   35  O4  UNL     1      30.432  72.209   2.562  1.00  0.00    -0.269 OA
ENDBRANCH  22  33
BRANCH  27  36
HETATM   36  N10 UNL     1      24.707  73.215   2.291  1.00  0.00    -0.234 N 
ATOM     37 2H10 UNL     1      23.720  73.357   2.078  1.00  0.00     0.174 HD
ATOM     38 1H10 UNL     1      25.043  72.952   3.217  1.00  0.00     0.174 HD
ENDBRANCH  27  36
ENDBRANCH  11  20
TORSDOF 6
ENDMDL
