MODEL 1
REMARK VINA RESULT: -9.768613660      0.000      0.000
REMARK  16 active torsions:
REMARK  status: ('A' for Active; 'I' for Inactive)
REMARK    1  A    between atoms: O1_2  and  N1_3 
REMARK    2  A    between atoms: N1_3  and  O2_4 
REMARK    3  A    between atoms: N1_3  and  C2_6 
REMARK    4  A    between atoms: C3_9  and  N3_10 
REMARK    5  A    between atoms: C5_16  and  N5_17 
REMARK    6  A    between atoms: N5_17  and  S1_19 
REMARK    7  A    between atoms: S1_19  and  N6_22 
REMARK    8  A    between atoms: N6_22  and  C6_24 
REMARK    9  A    between atoms: C6_24  and  C7_25 
REMARK   10  A    between atoms: C6_24  and  C14_40 
REMARK   11  A    between atoms: C7_25  and  C8_27 
REMARK   12  A    between atoms: C9_28  and  C10_29 
REMARK   13  A    between atoms: C12_33  and  N8_34 
REMARK   14  A    between atoms: C15_42  and  N10_43 
REMARK   15  A    between atoms: C20_52  and  O9_53 
REMARK   16  A    between atoms: C21_55  and  O10_56 
ROOT
HETATM    1  C6  UNL     1      28.756  73.636  -4.142  1.00  0.00     0.209 C 
ENDROOT
BRANCH   1   2
HETATM    2  N6  UNL     1      28.199  74.397  -3.013  1.00  0.00    -0.287 N 
ATOM      3  H6  UNL     1      28.776  74.869  -2.317  1.00  0.00     0.174 HD
BRANCH   2   4
HETATM    4  S1  UNL     1      26.501  74.412  -2.984  1.00  0.00     0.321 S 
HETATM    5  O3  UNL     1      25.980  75.664  -2.314  1.00  0.00    -0.182 OA
HETATM    6  O4  UNL     1      25.889  74.404  -4.357  1.00  0.00    -0.182 OA
BRANCH   4   7
HETATM    7  N5  UNL     1      25.939  73.072  -2.053  1.00  0.00    -0.250 N 
ATOM      8  H5  UNL     1      26.015  72.134  -2.446  1.00  0.00     0.182 HD
BRANCH   7   9
HETATM    9  C5  UNL     1      25.373  73.230  -0.759  1.00  0.00     0.165 A 
HETATM   10  C2  UNL     1      26.182  73.217   0.341  1.00  0.00     0.205 A 
HETATM   11  N2  UNL     1      25.695  73.366   1.602  1.00  0.00    -0.321 N 
HETATM   12  C3  UNL     1      24.370  73.531   1.767  1.00  0.00     0.116 A 
ATOM     13  H2  UNL     1      26.321  73.352   2.407  1.00  0.00     0.169 HD
HETATM   14  C4  UNL     1      23.542  73.546   0.665  1.00  0.00     0.138 A 
HETATM   15  N4  UNL     1      24.053  73.395  -0.595  1.00  0.00    -0.345 N 
ATOM     16  H4  UNL     1      23.433  73.408  -1.405  1.00  0.00     0.167 HD
BRANCH  10  17
HETATM   17  N1  UNL     1      27.581  73.050   0.149  1.00  0.00    -0.106 N 
BRANCH  17  18
HETATM   18  O1  UNL     1      28.379  74.142   0.135  1.00  0.00    -0.257 OA
HETATM   19  C1  UNL     1      29.149  74.468   1.271  1.00  0.00     0.240 C 
ENDBRANCH  17  18
BRANCH  17  20
HETATM   20  O2  UNL     1      27.989  71.880   0.004  1.00  0.00    -0.261 OA
ATOM     21  H2  UNL     1      28.877  71.650  -0.242  1.00  0.00     0.247 HD
ENDBRANCH  17  20
ENDBRANCH  10  17
BRANCH  12  22
HETATM   22  N3  UNL     1      23.887  73.676   2.964  1.00  0.00    -0.384 N 
ATOM     23  H32 UNL     1      24.505  73.721   3.774  1.00  0.00     0.157 HD
ATOM     24  H31 UNL     1      22.878  73.744   3.094  1.00  0.00     0.157 HD
ENDBRANCH  12  22
ENDBRANCH   7   9
ENDBRANCH   4   7
ENDBRANCH   2   4
ENDBRANCH   1   2
BRANCH   1  25
HETATM   25  C7  UNL     1      29.500  72.469  -3.613  1.00  0.00     0.228 C 
HETATM   26  O5  UNL     1      29.665  72.321  -2.347  1.00  0.00    -0.281 OA
BRANCH  25  27
HETATM   27  C8  UNL     1      30.045  71.491  -4.484  1.00  0.00    -0.020 C 
HETATM   28  C9  UNL     1      30.510  70.666  -5.269  1.00  0.00    -0.039 C 
BRANCH  28  29
HETATM   29  C10 UNL     1      31.054  69.702  -6.179  1.00  0.00     0.102 A 
HETATM   30  C11 UNL     1      30.790  69.759  -7.548  1.00  0.00     0.128 A 
HETATM   31  N7  UNL     1      31.306  68.849  -8.392  1.00  0.00    -0.349 N 
HETATM   32  C12 UNL     1      32.092  67.854  -7.955  1.00  0.00     0.114 A 
ATOM     33  H7  UNL     1      31.094  68.916  -9.387  1.00  0.00     0.167 HD
HETATM   34  C13 UNL     1      32.362  67.784  -6.606  1.00  0.00     0.137 A 
HETATM   35  N9  UNL     1      31.847  68.691  -5.768  1.00  0.00    -0.354 N 
ATOM     36  H9  UNL     1      32.063  68.614  -4.774  1.00  0.00     0.166 HD
BRANCH  32  37
HETATM   37  N8  UNL     1      32.578  66.986  -8.795  1.00  0.00    -0.384 N 
ATOM     38  H82 UNL     1      32.727  67.216  -9.777  1.00  0.00     0.157 HD
ATOM     39  H81 UNL     1      32.822  66.047  -8.480  1.00  0.00     0.157 HD
ENDBRANCH  32  37
ENDBRANCH  28  29
ENDBRANCH  25  27
ENDBRANCH   1  25
BRANCH   1  40
HETATM   40  C14 UNL     1      29.537  74.590  -4.961  1.00  0.00     0.187 C 
HETATM   41  O6  UNL     1      28.798  75.772  -5.088  1.00  0.00    -0.353 OA
HETATM   42  C15 UNL     1      29.122  76.395  -6.251  1.00  0.00     0.263 C 
HETATM   43  C20 UNL     1      30.168  75.572  -6.949  1.00  0.00     0.198 C 
HETATM   44  C21 UNL     1      29.824  74.174  -6.384  1.00  0.00     0.182 C 
BRANCH  42  45
HETATM   45  N10 UNL     1      29.547  77.771  -6.073  1.00  0.00    -0.280 N 
HETATM   46  C16 UNL     1      29.672  78.327  -4.871  1.00  0.00     0.104 A 
HETATM   47  C17 UNL     1      30.083  79.651  -4.719  1.00  0.00     0.092 A 
HETATM   48  C18 UNL     1      30.360  80.381  -5.865  1.00  0.00     0.250 A 
HETATM   49  O7  UNL     1      30.739  81.596  -5.752  1.00  0.00    -0.268 OA
HETATM   50  N11 UNL     1      30.225  79.795  -7.069  1.00  0.00    -0.275 N 
HETATM   51  C19 UNL     1      29.826  78.517  -7.160  1.00  0.00     0.331 A 
ATOM     52  H11 UNL     1      30.427  80.325  -7.917  1.00  0.00     0.173 HD
HETATM   53  O8  UNL     1      29.710  77.998  -8.302  1.00  0.00    -0.246 OA
ENDBRANCH  42  45
BRANCH  43  54
HETATM   54  O9  UNL     1      31.457  75.897  -6.553  1.00  0.00    -0.388 OA
ATOM     55  H9  UNL     1      31.668  75.571  -5.687  1.00  0.00     0.210 HD
ENDBRANCH  43  54
BRANCH  44  56
HETATM   56  O10 UNL     1      28.708  73.774  -7.086  1.00  0.00    -0.390 OA
ATOM     57  H10 UNL     1      28.885  73.122  -7.754  1.00  0.00     0.210 HD
ENDBRANCH  44  56
ENDBRANCH   1  40
TORSDOF 16
ENDMDL
MODEL 2
REMARK VINA RESULT: -9.750922496      1.812      2.849
REMARK  16 active torsions:
REMARK  status: ('A' for Active; 'I' for Inactive)
REMARK    1  A    between atoms: O1_2  and  N1_3 
REMARK    2  A    between atoms: N1_3  and  O2_4 
REMARK    3  A    between atoms: N1_3  and  C2_6 
REMARK    4  A    between atoms: C3_9  and  N3_10 
REMARK    5  A    between atoms: C5_16  and  N5_17 
REMARK    6  A    between atoms: N5_17  and  S1_19 
REMARK    7  A    between atoms: S1_19  and  N6_22 
REMARK    8  A    between atoms: N6_22  and  C6_24 
REMARK    9  A    between atoms: C6_24  and  C7_25 
REMARK   10  A    between atoms: C6_24  and  C14_40 
REMARK   11  A    between atoms: C7_25  and  C8_27 
REMARK   12  A    between atoms: C9_28  and  C10_29 
REMARK   13  A    between atoms: C12_33  and  N8_34 
REMARK   14  A    between atoms: C15_42  and  N10_43 
REMARK   15  A    between atoms: C20_52  and  O9_53 
REMARK   16  A    between atoms: C21_55  and  O10_56 
ROOT
HETATM    1  C6  UNL     1      27.175  74.463  -2.906  1.00  0.00     0.209 C 
ENDROOT
BRANCH   1   2
HETATM    2  N6  UNL     1      26.387  74.506  -1.664  1.00  0.00    -0.287 N 
ATOM      3  H6  UNL     1      26.686  75.009  -0.828  1.00  0.00     0.174 HD
BRANCH   2   4
HETATM    4  S1  UNL     1      24.931  73.635  -1.759  1.00  0.00     0.321 S 
HETATM    5  O3  UNL     1      23.754  74.564  -1.952  1.00  0.00    -0.182 OA
HETATM    6  O4  UNL     1      24.891  72.684  -2.923  1.00  0.00    -0.182 OA
BRANCH   4   7
HETATM    7  N5  UNL     1      24.674  72.798  -0.272  1.00  0.00    -0.250 N 
ATOM      8  H5  UNL     1      24.790  71.785  -0.251  1.00  0.00     0.182 HD
BRANCH   7   9
HETATM    9  C5  UNL     1      24.306  73.471   0.924  1.00  0.00     0.165 A 
HETATM   10  C2  UNL     1      25.273  74.019   1.719  1.00  0.00     0.205 A 
HETATM   11  N2  UNL     1      24.977  74.676   2.872  1.00  0.00    -0.321 N 
HETATM   12  C3  UNL     1      23.688  74.787   3.240  1.00  0.00     0.116 A 
ATOM     13  H2  UNL     1      25.718  75.076   3.448  1.00  0.00     0.169 HD
HETATM   14  C4  UNL     1      22.703  74.239   2.447  1.00  0.00     0.138 A 
HETATM   15  N4  UNL     1      23.022  73.582   1.290  1.00  0.00    -0.345 N 
ATOM     16  H4  UNL     1      22.286  73.180   0.709  1.00  0.00     0.167 HD
BRANCH  10  17
HETATM   17  N1  UNL     1      26.630  73.901   1.312  1.00  0.00    -0.106 N 
BRANCH  17  18
HETATM   18  O1  UNL     1      27.364  75.023   1.132  1.00  0.00    -0.257 OA
HETATM   19  C1  UNL     1      28.754  75.003   1.377  1.00  0.00     0.240 C 
ENDBRANCH  17  18
BRANCH  17  20
HETATM   20  O2  UNL     1      27.064  72.743   1.144  1.00  0.00    -0.261 OA
ATOM     21  H2  UNL     1      26.515  71.971   1.076  1.00  0.00     0.247 HD
ENDBRANCH  17  20
ENDBRANCH  10  17
BRANCH  12  22
HETATM   22  N3  UNL     1      23.387  75.412   4.338  1.00  0.00    -0.384 N 
ATOM     23  H32 UNL     1      22.543  75.175   4.859  1.00  0.00     0.157 HD
ATOM     24  H31 UNL     1      24.003  76.148   4.683  1.00  0.00     0.157 HD
ENDBRANCH  12  22
ENDBRANCH   7   9
ENDBRANCH   4   7
ENDBRANCH   2   4
ENDBRANCH   1   2
BRANCH   1  25
HETATM   25  C7  UNL     1      28.510  73.895  -2.607  1.00  0.00     0.228 C 
HETATM   26  O5  UNL     1      29.153  74.259  -1.554  1.00  0.00    -0.281 OA
BRANCH  25  27
HETATM   27  C8  UNL     1      29.110  72.941  -3.468  1.00  0.00    -0.020 C 
HETATM   28  C9  UNL     1      29.643  72.093  -4.183  1.00  0.00    -0.039 C 
BRANCH  28  29
HETATM   29  C10 UNL     1      30.259  71.108  -5.021  1.00  0.00     0.102 A 
HETATM   30  C11 UNL     1      30.649  69.865  -4.521  1.00  0.00     0.128 A 
HETATM   31  N7  UNL     1      31.227  68.948  -5.317  1.00  0.00    -0.349 N 
HETATM   32  C12 UNL     1      31.451  69.189  -6.618  1.00  0.00     0.114 A 
ATOM     33  H7  UNL     1      31.501  68.049  -4.923  1.00  0.00     0.167 HD
HETATM   34  C13 UNL     1      31.072  70.413  -7.125  1.00  0.00     0.137 A 
HETATM   35  N9  UNL     1      30.497  71.324  -6.332  1.00  0.00    -0.354 N 
ATOM     36  H9  UNL     1      30.227  72.221  -6.735  1.00  0.00     0.166 HD
BRANCH  32  37
HETATM   37  N8  UNL     1      32.012  68.283  -7.364  1.00  0.00    -0.384 N 
ATOM     38  H82 UNL     1      32.856  67.792  -7.068  1.00  0.00     0.157 HD
ATOM     39  H81 UNL     1      31.611  68.045  -8.271  1.00  0.00     0.157 HD
ENDBRANCH  32  37
ENDBRANCH  28  29
ENDBRANCH  25  27
ENDBRANCH   1  25
BRANCH   1  40
HETATM   40  C14 UNL     1      27.161  75.830  -3.472  1.00  0.00     0.187 C 
HETATM   41  O6  UNL     1      28.426  76.099  -4.010  1.00  0.00    -0.353 OA
HETATM   42  C15 UNL     1      28.670  77.434  -3.968  1.00  0.00     0.263 C 
HETATM   43  C20 UNL     1      27.471  78.113  -3.367  1.00  0.00     0.198 C 
HETATM   44  C21 UNL     1      26.923  76.959  -2.496  1.00  0.00     0.182 C 
BRANCH  42  45
HETATM   45  N10 UNL     1      29.022  78.000  -5.257  1.00  0.00    -0.280 N 
HETATM   46  C16 UNL     1      28.569  77.497  -6.402  1.00  0.00     0.104 A 
HETATM   47  C17 UNL     1      28.917  78.055  -7.632  1.00  0.00     0.092 A 
HETATM   48  C18 UNL     1      29.755  79.159  -7.631  1.00  0.00     0.250 A 
HETATM   49  O7  UNL     1      30.088  79.688  -8.745  1.00  0.00    -0.268 OA
HETATM   50  N11 UNL     1      30.199  79.649  -6.459  1.00  0.00    -0.275 N 
HETATM   51  C19 UNL     1      29.835  79.074  -5.302  1.00  0.00     0.331 A 
ATOM     52  H11 UNL     1      30.816  80.461  -6.449  1.00  0.00     0.173 HD
HETATM   53  O8  UNL     1      30.268  79.557  -4.223  1.00  0.00    -0.246 OA
ENDBRANCH  42  45
BRANCH  43  54
HETATM   54  O9  UNL     1      26.510  78.438  -4.314  1.00  0.00    -0.388 OA
ATOM     55  H9  UNL     1      25.916  77.719  -4.495  1.00  0.00     0.210 HD
ENDBRANCH  43  54
BRANCH  44  56
HETATM   56  O10 UNL     1      27.748  76.927  -1.393  1.00  0.00    -0.390 OA
ATOM     57  H10 UNL     1      27.328  77.207  -0.588  1.00  0.00     0.210 HD
ENDBRANCH  44  56
ENDBRANCH   1  40
TORSDOF 16
ENDMDL
MODEL 3
REMARK VINA RESULT: -9.732800563      1.953      3.343
REMARK  16 active torsions:
REMARK  status: ('A' for Active; 'I' for Inactive)
REMARK    1  A    between atoms: O1_2  and  N1_3 
REMARK    2  A    between atoms: N1_3  and  O2_4 
REMARK    3  A    between atoms: N1_3  and  C2_6 
REMARK    4  A    between atoms: C3_9  and  N3_10 
REMARK    5  A    between atoms: C5_16  and  N5_17 
REMARK    6  A    between atoms: N5_17  and  S1_19 
REMARK    7  A    between atoms: S1_19  and  N6_22 
REMARK    8  A    between atoms: N6_22  and  C6_24 
REMARK    9  A    between atoms: C6_24  and  C7_25 
REMARK   10  A    between atoms: C6_24  and  C14_40 
REMARK   11  A    between atoms: C7_25  and  C8_27 
REMARK   12  A    between atoms: C9_28  and  C10_29 
REMARK   13  A    between atoms: C12_33  and  N8_34 
REMARK   14  A    between atoms: C15_42  and  N10_43 
REMARK   15  A    between atoms: C20_52  and  O9_53 
REMARK   16  A    between atoms: C21_55  and  O10_56 
ROOT
HETATM    1  C6  UNL     1      28.949  71.420  -3.711  1.00  0.00     0.209 C 
ENDROOT
BRANCH   1   2
HETATM    2  N6  UNL     1      29.737  72.190  -2.735  1.00  0.00    -0.287 N 
ATOM      3  H6  UNL     1      30.702  72.478  -2.897  1.00  0.00     0.174 HD
BRANCH   2   4
HETATM    4  S1  UNL     1      28.880  72.551  -1.313  1.00  0.00     0.321 S 
HETATM    5  O3  UNL     1      28.819  71.351  -0.396  1.00  0.00    -0.182 OA
HETATM    6  O4  UNL     1      29.519  73.646  -0.505  1.00  0.00    -0.182 OA
BRANCH   4   7
HETATM    7  N5  UNL     1      27.253  72.957  -1.720  1.00  0.00    -0.250 N 
ATOM      8  H5  UNL     1      26.991  73.011  -2.705  1.00  0.00     0.182 HD
BRANCH   7   9
HETATM    9  C5  UNL     1      26.265  73.219  -0.732  1.00  0.00     0.165 A 
HETATM   10  C2  UNL     1      25.006  73.585  -1.113  1.00  0.00     0.205 A 
HETATM   11  N2  UNL     1      24.023  73.845  -0.210  1.00  0.00    -0.321 N 
HETATM   12  C3  UNL     1      24.305  73.737   1.100  1.00  0.00     0.116 A 
ATOM     13  H2  UNL     1      23.090  74.116  -0.521  1.00  0.00     0.169 HD
HETATM   14  C4  UNL     1      25.572  73.369   1.498  1.00  0.00     0.138 A 
HETATM   15  N4  UNL     1      26.547  73.111   0.574  1.00  0.00    -0.345 N 
ATOM     16  H4  UNL     1      27.482  72.839   0.877  1.00  0.00     0.167 HD
BRANCH  10  17
HETATM   17  N1  UNL     1      24.722  73.685  -2.502  1.00  0.00    -0.106 N 
BRANCH  17  18
HETATM   18  O1  UNL     1      23.929  72.754  -3.081  1.00  0.00    -0.257 OA
HETATM   19  C1  UNL     1      22.653  73.116  -3.564  1.00  0.00     0.240 C 
ENDBRANCH  17  18
BRANCH  17  20
HETATM   20  O2  UNL     1      25.234  74.648  -3.109  1.00  0.00    -0.261 OA
ATOM     21  H2  UNL     1      25.982  74.576  -3.689  1.00  0.00     0.247 HD
ENDBRANCH  17  20
ENDBRANCH  10  17
BRANCH  12  22
HETATM   22  N3  UNL     1      23.377  73.981   1.977  1.00  0.00    -0.384 N 
ATOM     23  H32 UNL     1      22.796  74.816   1.904  1.00  0.00     0.157 HD
ATOM     24  H31 UNL     1      23.230  73.329   2.747  1.00  0.00     0.157 HD
ENDBRANCH  12  22
ENDBRANCH   7   9
ENDBRANCH   4   7
ENDBRANCH   2   4
ENDBRANCH   1   2
BRANCH   1  25
HETATM   25  C7  UNL     1      29.699  70.193  -4.071  1.00  0.00     0.228 C 
HETATM   26  O5  UNL     1      29.666  69.161  -3.305  1.00  0.00    -0.281 OA
BRANCH  25  27
HETATM   27  C8  UNL     1      30.465  70.125  -5.262  1.00  0.00    -0.020 C 
HETATM   28  C9  UNL     1      31.119  70.029  -6.300  1.00  0.00    -0.039 C 
BRANCH  28  29
HETATM   29  C10 UNL     1      31.881  69.924  -7.509  1.00  0.00     0.102 A 
HETATM   30  C11 UNL     1      31.774  70.876  -8.524  1.00  0.00     0.128 A 
HETATM   31  N7  UNL     1      32.494  70.767  -9.654  1.00  0.00    -0.349 N 
HETATM   32  C12 UNL     1      33.340  69.745  -9.852  1.00  0.00     0.114 A 
ATOM     33  H7  UNL     1      32.395  71.478 -10.378  1.00  0.00     0.167 HD
HETATM   34  C13 UNL     1      33.455  68.796  -8.859  1.00  0.00     0.137 A 
HETATM   35  N9  UNL     1      32.738  68.907  -7.735  1.00  0.00    -0.354 N 
ATOM     36  H9  UNL     1      32.843  68.190  -7.017  1.00  0.00     0.166 HD
BRANCH  32  37
HETATM   37  N8  UNL     1      34.023  69.665 -10.957  1.00  0.00    -0.384 N 
ATOM     38  H82 UNL     1      34.991  69.345 -10.966  1.00  0.00     0.157 HD
ATOM     39  H81 UNL     1      33.594  69.923 -11.845  1.00  0.00     0.157 HD
ENDBRANCH  32  37
ENDBRANCH  28  29
ENDBRANCH  25  27
ENDBRANCH   1  25
BRANCH   1  40
HETATM   40  C14 UNL     1      28.629  72.338  -4.826  1.00  0.00     0.187 C 
HETATM   41  O6  UNL     1      28.582  73.644  -4.324  1.00  0.00    -0.353 OA
HETATM   42  C15 UNL     1      27.736  74.396  -5.075  1.00  0.00     0.263 C 
HETATM   43  C20 UNL     1      27.184  73.529  -6.172  1.00  0.00     0.198 C 
HETATM   44  C21 UNL     1      27.286  72.144  -5.490  1.00  0.00     0.182 C 
BRANCH  42  45
HETATM   45  N10 UNL     1      28.343  75.606  -5.597  1.00  0.00    -0.280 N 
HETATM   46  C16 UNL     1      29.538  75.606  -6.184  1.00  0.00     0.104 A 
HETATM   47  C17 UNL     1      30.105  76.779  -6.680  1.00  0.00     0.092 A 
HETATM   48  C18 UNL     1      29.387  77.957  -6.546  1.00  0.00     0.250 A 
HETATM   49  O7  UNL     1      29.885  79.045  -6.993  1.00  0.00    -0.268 OA
HETATM   50  N11 UNL     1      28.181  77.929  -5.949  1.00  0.00    -0.275 N 
HETATM   51  C19 UNL     1      27.679  76.773  -5.487  1.00  0.00     0.331 A 
ATOM     52  H11 UNL     1      27.646  78.791  -5.846  1.00  0.00     0.173 HD
HETATM   53  O8  UNL     1      26.549  76.782  -4.933  1.00  0.00    -0.246 OA
ENDBRANCH  42  45
BRANCH  43  54
HETATM   54  O9  UNL     1      27.989  73.518  -7.302  1.00  0.00    -0.388 OA
ATOM     55  H9  UNL     1      27.699  72.890  -7.952  1.00  0.00     0.210 HD
ENDBRANCH  43  54
BRANCH  44  56
HETATM   56  O10 UNL     1      26.227  72.106  -4.610  1.00  0.00    -0.390 OA
ATOM     57  H10 UNL     1      25.687  71.329  -4.690  1.00  0.00     0.210 HD
ENDBRANCH  44  56
ENDBRANCH   1  40
TORSDOF 16
ENDMDL
MODEL 4
REMARK VINA RESULT: -9.535929586      2.614      6.871
REMARK  16 active torsions:
REMARK  status: ('A' for Active; 'I' for Inactive)
REMARK    1  A    between atoms: O1_2  and  N1_3 
REMARK    2  A    between atoms: N1_3  and  O2_4 
REMARK    3  A    between atoms: N1_3  and  C2_6 
REMARK    4  A    between atoms: C3_9  and  N3_10 
REMARK    5  A    between atoms: C5_16  and  N5_17 
REMARK    6  A    between atoms: N5_17  and  S1_19 
REMARK    7  A    between atoms: S1_19  and  N6_22 
REMARK    8  A    between atoms: N6_22  and  C6_24 
REMARK    9  A    between atoms: C6_24  and  C7_25 
REMARK   10  A    between atoms: C6_24  and  C14_40 
REMARK   11  A    between atoms: C7_25  and  C8_27 
REMARK   12  A    between atoms: C9_28  and  C10_29 
REMARK   13  A    between atoms: C12_33  and  N8_34 
REMARK   14  A    between atoms: C15_42  and  N10_43 
REMARK   15  A    between atoms: C20_52  and  O9_53 
REMARK   16  A    between atoms: C21_55  and  O10_56 
ROOT
HETATM    1  C6  UNL     1      26.546  74.088  -3.304  1.00  0.00     0.209 C 
ENDROOT
BRANCH   1   2
HETATM    2  N6  UNL     1      25.501  73.053  -3.257  1.00  0.00    -0.287 N 
ATOM      3  H6  UNL     1      25.490  72.238  -3.871  1.00  0.00     0.174 HD
BRANCH   2   4
HETATM    4  S1  UNL     1      24.314  73.348  -2.078  1.00  0.00     0.321 S 
HETATM    5  O3  UNL     1      24.063  74.830  -1.918  1.00  0.00    -0.182 OA
HETATM    6  O4  UNL     1      22.980  72.747  -2.424  1.00  0.00    -0.182 OA
BRANCH   4   7
HETATM    7  N5  UNL     1      24.873  72.765  -0.553  1.00  0.00    -0.250 N 
ATOM      8  H5  UNL     1      25.506  71.966  -0.534  1.00  0.00     0.182 HD
BRANCH   7   9
HETATM    9  C5  UNL     1      24.482  73.359   0.677  1.00  0.00     0.165 A 
HETATM   10  C2  UNL     1      25.423  73.936   1.481  1.00  0.00     0.205 A 
HETATM   11  N2  UNL     1      25.104  74.520   2.667  1.00  0.00    -0.321 N 
HETATM   12  C3  UNL     1      23.817  74.528   3.057  1.00  0.00     0.116 A 
ATOM     13  H2  UNL     1      25.826  74.945   3.249  1.00  0.00     0.169 HD
HETATM   14  C4  UNL     1      22.857  73.949   2.256  1.00  0.00     0.138 A 
HETATM   15  N4  UNL     1      23.199  73.366   1.066  1.00  0.00    -0.345 N 
ATOM     16  H4  UNL     1      22.482  72.940   0.478  1.00  0.00     0.167 HD
BRANCH  10  17
HETATM   17  N1  UNL     1      26.777  73.927   1.050  1.00  0.00    -0.106 N 
BRANCH  17  18
HETATM   18  O1  UNL     1      27.208  74.898   0.212  1.00  0.00    -0.257 OA
HETATM   19  C1  UNL     1      28.459  75.514   0.430  1.00  0.00     0.240 C 
ENDBRANCH  17  18
BRANCH  17  20
HETATM   20  O2  UNL     1      27.496  73.003   1.482  1.00  0.00    -0.261 OA
ATOM     21  H2  UNL     1      27.181  72.291   2.026  1.00  0.00     0.247 HD
ENDBRANCH  17  20
ENDBRANCH  10  17
BRANCH  12  22
HETATM   22  N3  UNL     1      23.494  75.082   4.187  1.00  0.00    -0.384 N 
ATOM     23  H32 UNL     1      24.210  75.457   4.809  1.00  0.00     0.157 HD
ATOM     24  H31 UNL     1      22.512  75.143   4.454  1.00  0.00     0.157 HD
ENDBRANCH  12  22
ENDBRANCH   7   9
ENDBRANCH   4   7
ENDBRANCH   2   4
ENDBRANCH   1   2
BRANCH   1  25
HETATM   25  C7  UNL     1      26.210  75.060  -4.371  1.00  0.00     0.228 C 
HETATM   26  O5  UNL     1      25.076  74.998  -4.975  1.00  0.00    -0.281 OA
BRANCH  25  27
HETATM   27  C8  UNL     1      27.122  76.077  -4.749  1.00  0.00    -0.020 C 
HETATM   28  C9  UNL     1      27.936  76.950  -5.047  1.00  0.00    -0.039 C 
BRANCH  28  29
HETATM   29  C10 UNL     1      28.882  77.968  -5.401  1.00  0.00     0.102 A 
HETATM   30  C11 UNL     1      29.376  78.866  -4.453  1.00  0.00     0.128 A 
HETATM   31  N7  UNL     1      30.262  79.816  -4.796  1.00  0.00    -0.349 N 
HETATM   32  C12 UNL     1      30.706  79.940  -6.056  1.00  0.00     0.114 A 
ATOM     33  H7  UNL     1      30.605  80.459  -4.082  1.00  0.00     0.167 HD
HETATM   34  C13 UNL     1      30.226  79.061  -7.002  1.00  0.00     0.137 A 
HETATM   35  N9  UNL     1      29.344  78.116  -6.659  1.00  0.00    -0.354 N 
ATOM     36  H9  UNL     1      29.006  77.479  -7.380  1.00  0.00     0.166 HD
BRANCH  32  37
HETATM   37  N8  UNL     1      31.564  80.871  -6.359  1.00  0.00    -0.384 N 
ATOM     38  H82 UNL     1      31.583  81.303  -7.283  1.00  0.00     0.157 HD
ATOM     39  H81 UNL     1      32.242  81.189  -5.666  1.00  0.00     0.157 HD
ENDBRANCH  32  37
ENDBRANCH  28  29
ENDBRANCH  25  27
ENDBRANCH   1  25
BRANCH   1  40
HETATM   40  C14 UNL     1      27.840  73.386  -3.448  1.00  0.00     0.187 C 
HETATM   41  O6  UNL     1      27.621  72.190  -4.143  1.00  0.00    -0.353 OA
HETATM   42  C15 UNL     1      28.550  71.269  -3.781  1.00  0.00     0.263 C 
HETATM   43  C20 UNL     1      29.471  71.901  -2.774  1.00  0.00     0.198 C 
HETATM   44  C21 UNL     1      28.515  72.955  -2.167  1.00  0.00     0.182 C 
BRANCH  42  45
HETATM   45  N10 UNL     1      29.280  70.708  -4.903  1.00  0.00    -0.280 N 
HETATM   46  C16 UNL     1      29.325  71.305  -6.091  1.00  0.00     0.104 A 
HETATM   47  C17 UNL     1      30.032  70.752  -7.158  1.00  0.00     0.092 A 
HETATM   48  C18 UNL     1      30.693  69.552  -6.947  1.00  0.00     0.250 A 
HETATM   49  O7  UNL     1      31.348  69.025  -7.909  1.00  0.00    -0.268 OA
HETATM   50  N11 UNL     1      30.631  68.968  -5.736  1.00  0.00    -0.275 N 
HETATM   51  C19 UNL     1      29.936  69.542  -4.742  1.00  0.00     0.331 A 
ATOM     52  H11 UNL     1      31.114  68.085  -5.573  1.00  0.00     0.173 HD
HETATM   53  O8  UNL     1      29.898  68.971  -3.620  1.00  0.00    -0.246 OA
ENDBRANCH  42  45
BRANCH  43  54
HETATM   54  O9  UNL     1      30.534  72.568  -3.367  1.00  0.00    -0.388 OA
ATOM     55  H9  UNL     1      30.253  73.282  -3.926  1.00  0.00     0.210 HD
ENDBRANCH  43  54
BRANCH  44  56
HETATM   56  O10 UNL     1      27.699  72.241  -1.317  1.00  0.00    -0.390 OA
ATOM     57  H10 UNL     1      28.160  71.824  -0.599  1.00  0.00     0.210 HD
ENDBRANCH  44  56
ENDBRANCH   1  40
TORSDOF 16
ENDMDL
MODEL 5
REMARK VINA RESULT: -9.511584464      2.032      3.741
REMARK  16 active torsions:
REMARK  status: ('A' for Active; 'I' for Inactive)
REMARK    1  A    between atoms: O1_2  and  N1_3 
REMARK    2  A    between atoms: N1_3  and  O2_4 
REMARK    3  A    between atoms: N1_3  and  C2_6 
REMARK    4  A    between atoms: C3_9  and  N3_10 
REMARK    5  A    between atoms: C5_16  and  N5_17 
REMARK    6  A    between atoms: N5_17  and  S1_19 
REMARK    7  A    between atoms: S1_19  and  N6_22 
REMARK    8  A    between atoms: N6_22  and  C6_24 
REMARK    9  A    between atoms: C6_24  and  C7_25 
REMARK   10  A    between atoms: C6_24  and  C14_40 
REMARK   11  A    between atoms: C7_25  and  C8_27 
REMARK   12  A    between atoms: C9_28  and  C10_29 
REMARK   13  A    between atoms: C12_33  and  N8_34 
REMARK   14  A    between atoms: C15_42  and  N10_43 
REMARK   15  A    between atoms: C20_52  and  O9_53 
REMARK   16  A    between atoms: C21_55  and  O10_56 
ROOT
HETATM    1  C6  UNL     1      26.528  74.240  -3.057  1.00  0.00     0.209 C 
ENDROOT
BRANCH   1   2
HETATM    2  N6  UNL     1      27.711  73.900  -2.253  1.00  0.00    -0.287 N 
ATOM      3  H6  UNL     1      28.668  74.065  -2.566  1.00  0.00     0.174 HD
BRANCH   2   4
HETATM    4  S1  UNL     1      27.328  73.206  -0.750  1.00  0.00     0.321 S 
HETATM    5  O3  UNL     1      28.112  71.933  -0.524  1.00  0.00    -0.182 OA
HETATM    6  O4  UNL     1      27.661  74.098   0.412  1.00  0.00    -0.182 OA
BRANCH   4   7
HETATM    7  N5  UNL     1      25.656  72.776  -0.735  1.00  0.00    -0.250 N 
ATOM      8  H5  UNL     1      25.284  72.222  -1.507  1.00  0.00     0.182 HD
BRANCH   7   9
HETATM    9  C5  UNL     1      24.781  73.167   0.313  1.00  0.00     0.165 A 
HETATM   10  C2  UNL     1      23.560  73.701   0.014  1.00  0.00     0.205 A 
HETATM   11  N2  UNL     1      22.682  74.090   0.978  1.00  0.00    -0.321 N 
HETATM   12  C3  UNL     1      23.033  73.942   2.268  1.00  0.00     0.116 A 
ATOM     13  H2  UNL     1      21.776  74.485   0.727  1.00  0.00     0.169 HD
HETATM   14  C4  UNL     1      24.263  73.406   2.583  1.00  0.00     0.138 A 
HETATM   15  N4  UNL     1      25.131  73.020   1.599  1.00  0.00    -0.345 N 
ATOM     16  H4  UNL     1      26.039  72.623   1.842  1.00  0.00     0.167 HD
BRANCH  10  17
HETATM   17  N1  UNL     1      23.201  73.842  -1.354  1.00  0.00    -0.106 N 
BRANCH  17  18
HETATM   18  O1  UNL     1      22.575  72.818  -1.980  1.00  0.00    -0.257 OA
HETATM   19  C1  UNL     1      21.676  73.081  -3.035  1.00  0.00     0.240 C 
ENDBRANCH  17  18
BRANCH  17  20
HETATM   20  O2  UNL     1      23.493  74.925  -1.900  1.00  0.00    -0.261 OA
ATOM     21  H2  UNL     1      23.531  75.759  -1.448  1.00  0.00     0.247 HD
ENDBRANCH  17  20
ENDBRANCH  10  17
BRANCH  12  22
HETATM   22  N3  UNL     1      22.207  74.308   3.201  1.00  0.00    -0.384 N 
ATOM     23  H32 UNL     1      21.460  73.687   3.511  1.00  0.00     0.157 HD
ATOM     24  H31 UNL     1      22.308  75.228   3.629  1.00  0.00     0.157 HD
ENDBRANCH  12  22
ENDBRANCH   7   9
ENDBRANCH   4   7
ENDBRANCH   2   4
ENDBRANCH   1   2
BRANCH   1  25
HETATM   25  C7  UNL     1      26.356  73.217  -4.114  1.00  0.00     0.228 C 
HETATM   26  O5  UNL     1      25.234  73.098  -4.732  1.00  0.00    -0.281 OA
BRANCH  25  27
HETATM   27  C8  UNL     1      27.418  72.348  -4.472  1.00  0.00    -0.020 C 
HETATM   28  C9  UNL     1      28.330  71.571  -4.752  1.00  0.00    -0.039 C 
BRANCH  28  29
HETATM   29  C10 UNL     1      29.394  70.669  -5.085  1.00  0.00     0.102 A 
HETATM   30  C11 UNL     1      29.922  69.785  -4.143  1.00  0.00     0.128 A 
HETATM   31  N7  UNL     1      30.920  68.944  -4.466  1.00  0.00    -0.349 N 
HETATM   32  C12 UNL     1      31.444  68.919  -5.701  1.00  0.00     0.114 A 
ATOM     33  H7  UNL     1      31.286  68.310  -3.757  1.00  0.00     0.167 HD
HETATM   34  C13 UNL     1      30.933  69.786  -6.641  1.00  0.00     0.137 A 
HETATM   35  N9  UNL     1      29.940  70.623  -6.317  1.00  0.00    -0.354 N 
ATOM     36  H9  UNL     1      29.581  71.254  -7.034  1.00  0.00     0.166 HD
BRANCH  32  37
HETATM   37  N8  UNL     1      32.410  68.093  -5.985  1.00  0.00    -0.384 N 
ATOM     38  H82 UNL     1      32.551  67.232  -5.459  1.00  0.00     0.157 HD
ATOM     39  H81 UNL     1      33.051  68.298  -6.752  1.00  0.00     0.157 HD
ENDBRANCH  32  37
ENDBRANCH  28  29
ENDBRANCH  25  27
ENDBRANCH   1  25
BRANCH   1  40
HETATM   40  C14 UNL     1      26.709  75.633  -3.523  1.00  0.00     0.187 C 
HETATM   41  O6  UNL     1      28.017  75.771  -4.005  1.00  0.00    -0.353 OA
HETATM   42  C15 UNL     1      28.428  77.057  -3.860  1.00  0.00     0.263 C 
HETATM   43  C20 UNL     1      27.304  77.843  -3.245  1.00  0.00     0.198 C 
HETATM   44  C21 UNL     1      26.581  76.713  -2.475  1.00  0.00     0.182 C 
BRANCH  42  45
HETATM   45  N10 UNL     1      28.896  77.659  -5.095  1.00  0.00    -0.280 N 
HETATM   46  C16 UNL     1      28.589  77.161  -6.290  1.00  0.00     0.104 A 
HETATM   47  C17 UNL     1      29.047  77.754  -7.466  1.00  0.00     0.092 A 
HETATM   48  C18 UNL     1      29.839  78.887  -7.357  1.00  0.00     0.250 A 
HETATM   49  O7  UNL     1      30.271  79.448  -8.420  1.00  0.00    -0.268 OA
HETATM   50  N11 UNL     1      30.135  79.370  -6.136  1.00  0.00    -0.275 N 
HETATM   51  C19 UNL     1      29.669  78.761  -5.035  1.00  0.00     0.331 A 
ATOM     52  H11 UNL     1      30.717  80.203  -6.048  1.00  0.00     0.173 HD
HETATM   53  O8  UNL     1      29.964  79.239  -3.908  1.00  0.00    -0.246 OA
ENDBRANCH  42  45
BRANCH  43  54
HETATM   54  O9  UNL     1      26.427  78.354  -4.192  1.00  0.00    -0.388 OA
ATOM     55  H9  UNL     1      25.861  79.031  -3.841  1.00  0.00     0.210 HD
ENDBRANCH  43  54
BRANCH  44  56
HETATM   56  O10 UNL     1      27.355  76.500  -1.355  1.00  0.00    -0.390 OA
ATOM     57  H10 UNL     1      27.957  77.209  -1.162  1.00  0.00     0.210 HD
ENDBRANCH  44  56
ENDBRANCH   1  40
TORSDOF 16
ENDMDL
