MODEL 1
REMARK VINA RESULT: -8.059227788      0.000      0.000
REMARK  12 active torsions:
REMARK  status: ('A' for Active; 'I' for Inactive)
REMARK    1  A    between atoms: O1_2  and  C2_3 
REMARK    2  A    between atoms: C2_3  and  O2_4 
REMARK    3  A    between atoms: C2_3  and  C3_6 
REMARK    4  A    between atoms: C10_18  and  O4_19 
REMARK    5  A    between atoms: O4_19  and  C11_20 
REMARK    6  A    between atoms: C11_20  and  C12_21 
REMARK    7  A    between atoms: C12_21  and  N3_22 
REMARK    8  A    between atoms: C12_21  and  C13_26 
REMARK    9  A    between atoms: N7_39  and  C19_40 
REMARK   10  A    between atoms: C19_40  and  O6_41 
REMARK   11  A    between atoms: O6_41  and  C20_42 
REMARK   12  A    between atoms: C22_47  and  C23_48 
ROOT
HETATM    1  C3  UNL     1      28.054  75.488  -1.472  1.00  0.00     0.240 C 
HETATM    2  N1  UNL     1      28.174  74.052  -1.391  1.00  0.00    -0.341 N 
ATOM      3  H1  UNL     1      28.872  73.753  -0.711  1.00  0.00     0.163 HD
HETATM    4  C4  UNL     1      27.548  72.965  -2.037  1.00  0.00     0.241 C 
HETATM    5  O3  UNL     1      28.265  71.949  -1.932  1.00  0.00    -0.271 OA
HETATM    6  C5  UNL     1      26.297  72.671  -2.798  1.00  0.00     0.185 C 
HETATM    7  C6  UNL     1      25.219  72.947  -1.741  1.00  0.00     0.036 C 
HETATM    8  C7  UNL     1      23.957  72.967  -2.318  1.00  0.00     0.008 C 
HETATM    9  C8  UNL     1      22.556  73.226  -2.224  1.00  0.00     0.044 C 
HETATM   10  C9  UNL     1      21.972  73.717  -3.577  1.00  0.00     0.058 C 
HETATM   11  N2  UNL     1      21.731  72.825  -4.591  1.00  0.00    -0.377 N 
ATOM     12  H2  UNL     1      21.133  72.016  -4.424  1.00  0.00     0.161 HD
HETATM   13  C10 UNL     1      22.342  73.036  -5.941  1.00  0.00     0.222 C 
HETATM   14  C14 UNL     1      23.745  72.885  -5.762  1.00  0.00     0.094 C 
HETATM   15  C15 UNL     1      25.031  72.784  -6.315  1.00  0.00     0.258 C 
HETATM   16  N5  UNL     1      24.911  71.722  -7.335  1.00  0.00    -0.062 N 
ATOM     17  H51 UNL     1      24.097  71.133  -7.158  1.00  0.00     0.278 HD
ATOM     18  H52 UNL     1      25.646  71.023  -7.225  1.00  0.00     0.278 HD
HETATM   19  C16 UNL     1      24.892  72.242  -8.668  1.00  0.00     0.253 C 
HETATM   20  C17 UNL     1      26.336  72.139  -9.181  1.00  0.00     0.148 C 
HETATM   21  N6  UNL     1      27.175  72.427  -8.054  1.00  0.00    -0.384 N 
ATOM     22  H6  UNL     1      27.586  73.352  -7.924  1.00  0.00     0.160 HD
HETATM   23  C18 UNL     1      27.410  71.399  -7.144  1.00  0.00     0.186 C 
HETATM   24  N7  UNL     1      26.997  71.453  -5.799  1.00  0.00    -0.285 N 
HETATM   25  C21 UNL     1      26.025  72.215  -5.234  1.00  0.00     0.126 C 
HETATM   26  N8  UNL     1      26.258  73.120  -4.119  1.00  0.00    -0.295 N 
HETATM   27  C22 UNL     1      26.826  74.358  -4.439  1.00  0.00     0.233 C 
HETATM   28  O11 UNL     1      26.498  75.421  -3.543  1.00  0.00    -0.253 OA
HETATM   29  C24 UNL     1      27.090  75.978  -2.421  1.00  0.00     0.293 C 
HETATM   30  O12 UNL     1      26.692  77.138  -2.208  1.00  0.00    -0.262 OA
ENDROOT
BRANCH  13  31
HETATM   31  O4  UNL     1      21.843  74.230  -6.381  1.00  0.00    -0.364 OA
BRANCH  31  32
HETATM   32  C11 UNL     1      22.097  74.357  -7.742  1.00  0.00     0.212 C 
BRANCH  32  33
HETATM   33  C12 UNL     1      22.409  75.775  -8.146  1.00  0.00     0.295 C 
BRANCH  33  34
HETATM   34  N3  UNL     1      22.901  75.739  -9.511  1.00  0.00    -0.065 N 
ATOM     35  H33 UNL     1      23.796  75.260  -9.599  1.00  0.00     0.275 HD
ATOM     36  H32 UNL     1      22.359  75.120 -10.113  1.00  0.00     0.275 HD
ATOM     37  H31 UNL     1      22.928  76.701  -9.850  1.00  0.00     0.275 HD
ENDBRANCH  33  34
BRANCH  33  38
HETATM   38  C13 UNL     1      21.130  76.527  -8.162  1.00  0.00     0.263 C 
HETATM   39  N4  UNL     1      21.082  77.755  -7.446  1.00  0.00    -0.060 NA
HETATM   40  O5  UNL     1      20.097  76.154  -8.758  1.00  0.00    -0.274 OA
ENDBRANCH  33  38
ENDBRANCH  32  33
ENDBRANCH  31  32
ENDBRANCH  13  31
BRANCH  24  41
HETATM   41  C19 UNL     1      27.730  70.439  -5.133  1.00  0.00     0.249 C 
BRANCH  41  42
HETATM   42  O6  UNL     1      29.101  70.723  -4.887  1.00  0.00    -0.248 OA
BRANCH  42  43
HETATM   43  C20 UNL     1      30.058  69.858  -4.453  1.00  0.00     0.338 C 
HETATM   44  O7  UNL     1      31.199  69.868  -4.952  1.00  0.00    -0.623 OA
HETATM   45  O8  UNL     1      29.763  68.957  -3.443  1.00  0.00    -0.623 OA
ENDBRANCH  42  43
ENDBRANCH  41  42
ENDBRANCH  24  41
BRANCH  27  46
HETATM   46  C23 UNL     1      28.208  74.534  -4.821  1.00  0.00     0.253 C 
HETATM   47  O9  UNL     1      29.260  74.009  -4.460  1.00  0.00    -0.641 OA
HETATM   48  O10 UNL     1      28.483  75.507  -5.836  1.00  0.00    -0.641 OA
ENDBRANCH  27  46
BRANCH   1  49
HETATM   49  C2  UNL     1      27.920  76.022  -0.057  1.00  0.00     0.288 C 
BRANCH  49  50
HETATM   50  O1  UNL     1      29.091  75.727   0.681  1.00  0.00    -0.364 OA
HETATM   51  C1  UNL     1      28.901  74.654   1.547  1.00  0.00     0.204 C 
ENDBRANCH  49  50
BRANCH  49  52
HETATM   52  O2  UNL     1      26.886  75.448   0.659  1.00  0.00    -0.369 OA
ATOM     53  H2  UNL     1      26.298  76.165   0.865  1.00  0.00     0.212 HD
ENDBRANCH  49  52
ENDBRANCH   1  49
TORSDOF 12
ENDMDL
MODEL 2
REMARK VINA RESULT: -7.805778029      3.461      5.110
REMARK  12 active torsions:
REMARK  status: ('A' for Active; 'I' for Inactive)
REMARK    1  A    between atoms: O1_2  and  C2_3 
REMARK    2  A    between atoms: C2_3  and  O2_4 
REMARK    3  A    between atoms: C2_3  and  C3_6 
REMARK    4  A    between atoms: C10_18  and  O4_19 
REMARK    5  A    between atoms: O4_19  and  C11_20 
REMARK    6  A    between atoms: C11_20  and  C12_21 
REMARK    7  A    between atoms: C12_21  and  N3_22 
REMARK    8  A    between atoms: C12_21  and  C13_26 
REMARK    9  A    between atoms: N7_39  and  C19_40 
REMARK   10  A    between atoms: C19_40  and  O6_41 
REMARK   11  A    between atoms: O6_41  and  C20_42 
REMARK   12  A    between atoms: C22_47  and  C23_48 
ROOT
HETATM    1  C3  UNL     1      28.658  75.224  -4.002  1.00  0.00     0.240 C 
HETATM    2  N1  UNL     1      29.008  73.874  -3.631  1.00  0.00    -0.341 N 
ATOM      3  H1  UNL     1      29.311  73.799  -2.660  1.00  0.00     0.163 HD
HETATM    4  C4  UNL     1      29.029  72.633  -4.302  1.00  0.00     0.241 C 
HETATM    5  O3  UNL     1      29.783  71.844  -3.695  1.00  0.00    -0.271 OA
HETATM    6  C5  UNL     1      28.423  71.989  -5.505  1.00  0.00     0.185 C 
HETATM    7  C6  UNL     1      26.929  72.023  -5.156  1.00  0.00     0.036 C 
HETATM    8  C7  UNL     1      26.158  71.687  -6.260  1.00  0.00     0.008 C 
HETATM    9  C8  UNL     1      24.882  71.576  -6.892  1.00  0.00     0.044 C 
HETATM   10  C9  UNL     1      24.977  71.836  -8.421  1.00  0.00     0.058 C 
HETATM   11  N2  UNL     1      25.467  70.866  -9.258  1.00  0.00    -0.377 N 
ATOM     12  H2  UNL     1      25.044  69.937  -9.262  1.00  0.00     0.161 HD
HETATM   13  C10 UNL     1      26.619  71.166 -10.165  1.00  0.00     0.222 C 
HETATM   14  C14 UNL     1      27.736  71.394  -9.315  1.00  0.00     0.094 C 
HETATM   15  C15 UNL     1      29.115  71.605  -9.160  1.00  0.00     0.258 C 
HETATM   16  N5  UNL     1      29.744  70.503  -9.915  1.00  0.00    -0.062 N 
ATOM     17  H51 UNL     1      29.091  69.731 -10.052  1.00  0.00     0.278 HD
ATOM     18  H52 UNL     1      30.446  70.025  -9.350  1.00  0.00     0.278 HD
HETATM   19  C16 UNL     1      30.296  70.937 -11.163  1.00  0.00     0.253 C 
HETATM   20  C17 UNL     1      31.788  71.191 -10.896  1.00  0.00     0.148 C 
HETATM   21  N6  UNL     1      31.865  71.739  -9.574  1.00  0.00    -0.384 N 
ATOM     22  H6  UNL     1      31.956  72.743  -9.423  1.00  0.00     0.160 HD
HETATM   23  C18 UNL     1      31.809  70.850  -8.502  1.00  0.00     0.186 C 
HETATM   24  N7  UNL     1      30.772  70.857  -7.549  1.00  0.00    -0.285 N 
HETATM   25  C21 UNL     1      29.518  71.365  -7.657  1.00  0.00     0.126 C 
HETATM   26  N8  UNL     1      28.967  72.350  -6.738  1.00  0.00    -0.295 N 
HETATM   27  C22 UNL     1      29.355  73.678  -6.954  1.00  0.00     0.233 C 
HETATM   28  O11 UNL     1      28.412  74.658  -6.519  1.00  0.00    -0.253 OA
HETATM   29  C24 UNL     1      28.229  75.402  -5.364  1.00  0.00     0.293 C 
HETATM   30  O12 UNL     1      27.554  76.427  -5.569  1.00  0.00    -0.262 OA
ENDROOT
BRANCH  13  31
HETATM   31  O4  UNL     1      26.180  72.167 -10.986  1.00  0.00    -0.364 OA
BRANCH  31  32
HETATM   32  C11 UNL     1      26.917  72.145 -12.166  1.00  0.00     0.212 C 
BRANCH  32  33
HETATM   33  C12 UNL     1      27.275  73.525 -12.654  1.00  0.00     0.295 C 
BRANCH  33  34
HETATM   34  N3  UNL     1      28.524  73.900 -12.018  1.00  0.00    -0.065 N 
ATOM     35  H33 UNL     1      28.641  74.909 -11.933  1.00  0.00     0.275 HD
ATOM     36  H32 UNL     1      28.546  73.680 -11.023  1.00  0.00     0.275 HD
ATOM     37  H31 UNL     1      29.277  73.453 -12.541  1.00  0.00     0.275 HD
ENDBRANCH  33  34
BRANCH  33  38
HETATM   38  C13 UNL     1      27.536  73.430 -14.110  1.00  0.00     0.263 C 
HETATM   39  N4  UNL     1      27.245  74.572 -14.906  1.00  0.00    -0.060 NA
HETATM   40  O5  UNL     1      27.992  72.416 -14.683  1.00  0.00    -0.274 OA
ENDBRANCH  33  38
ENDBRANCH  32  33
ENDBRANCH  31  32
ENDBRANCH  13  31
BRANCH  24  41
HETATM   41  C19 UNL     1      31.257  70.101  -6.452  1.00  0.00     0.249 C 
BRANCH  41  42
HETATM   42  O6  UNL     1      32.151  69.044  -6.773  1.00  0.00    -0.248 OA
BRANCH  42  43
HETATM   43  C20 UNL     1      32.586  68.052  -5.947  1.00  0.00     0.338 C 
HETATM   44  O7  UNL     1      32.098  67.910  -4.811  1.00  0.00    -0.623 OA
HETATM   45  O8  UNL     1      33.582  67.190  -6.376  1.00  0.00    -0.623 OA
ENDBRANCH  42  43
ENDBRANCH  41  42
ENDBRANCH  24  41
BRANCH  27  46
HETATM   46  C23 UNL     1      30.672  74.189  -6.652  1.00  0.00     0.253 C 
HETATM   47  O9  UNL     1      31.266  74.434  -5.604  1.00  0.00    -0.641 OA
HETATM   48  O10 UNL     1      31.522  74.489  -7.766  1.00  0.00    -0.641 OA
ENDBRANCH  27  46
BRANCH   1  49
HETATM   49  C2  UNL     1      27.723  75.770  -2.938  1.00  0.00     0.288 C 
BRANCH  49  50
HETATM   50  O1  UNL     1      28.178  75.384  -1.654  1.00  0.00    -0.364 OA
HETATM   51  C1  UNL     1      27.760  76.272  -0.668  1.00  0.00     0.204 C 
ENDBRANCH  49  50
BRANCH  49  52
HETATM   52  O2  UNL     1      26.433  75.281  -3.027  1.00  0.00    -0.369 OA
ATOM     53  H2  UNL     1      26.075  75.666  -3.818  1.00  0.00     0.212 HD
ENDBRANCH  49  52
ENDBRANCH   1  49
TORSDOF 12
ENDMDL
MODEL 3
REMARK VINA RESULT: -7.775726629      3.483      5.318
REMARK  12 active torsions:
REMARK  status: ('A' for Active; 'I' for Inactive)
REMARK    1  A    between atoms: O1_2  and  C2_3 
REMARK    2  A    between atoms: C2_3  and  O2_4 
REMARK    3  A    between atoms: C2_3  and  C3_6 
REMARK    4  A    between atoms: C10_18  and  O4_19 
REMARK    5  A    between atoms: O4_19  and  C11_20 
REMARK    6  A    between atoms: C11_20  and  C12_21 
REMARK    7  A    between atoms: C12_21  and  N3_22 
REMARK    8  A    between atoms: C12_21  and  C13_26 
REMARK    9  A    between atoms: N7_39  and  C19_40 
REMARK   10  A    between atoms: C19_40  and  O6_41 
REMARK   11  A    between atoms: O6_41  and  C20_42 
REMARK   12  A    between atoms: C22_47  and  C23_48 
ROOT
HETATM    1  C3  UNL     1      28.658  75.221  -4.027  1.00  0.00     0.240 C 
HETATM    2  N1  UNL     1      29.016  73.875  -3.650  1.00  0.00    -0.341 N 
ATOM      3  H1  UNL     1      29.319  73.807  -2.679  1.00  0.00     0.163 HD
HETATM    4  C4  UNL     1      29.044  72.631  -4.314  1.00  0.00     0.241 C 
HETATM    5  O3  UNL     1      29.802  71.849  -3.704  1.00  0.00    -0.271 OA
HETATM    6  C5  UNL     1      28.441  71.977  -5.514  1.00  0.00     0.185 C 
HETATM    7  C6  UNL     1      26.947  72.005  -5.165  1.00  0.00     0.036 C 
HETATM    8  C7  UNL     1      26.177  71.658  -6.266  1.00  0.00     0.008 C 
HETATM    9  C8  UNL     1      24.902  71.537  -6.898  1.00  0.00     0.044 C 
HETATM   10  C9  UNL     1      24.995  71.790  -8.428  1.00  0.00     0.058 C 
HETATM   11  N2  UNL     1      25.490  70.818  -9.260  1.00  0.00    -0.377 N 
ATOM     12  H2  UNL     1      25.073  69.887  -9.259  1.00  0.00     0.161 HD
HETATM   13  C10 UNL     1      26.640  71.120 -10.169  1.00  0.00     0.222 C 
HETATM   14  C14 UNL     1      27.756  71.359  -9.320  1.00  0.00     0.094 C 
HETATM   15  C15 UNL     1      29.134  71.579  -9.168  1.00  0.00     0.258 C 
HETATM   16  N5  UNL     1      29.769  70.477  -9.917  1.00  0.00    -0.062 N 
ATOM     17  H51 UNL     1      29.121  69.701 -10.050  1.00  0.00     0.278 HD
ATOM     18  H52 UNL     1      30.474  70.005  -9.350  1.00  0.00     0.278 HD
HETATM   19  C16 UNL     1      30.318  70.908 -11.167  1.00  0.00     0.253 C 
HETATM   20  C17 UNL     1      31.809  71.171 -10.902  1.00  0.00     0.148 C 
HETATM   21  N6  UNL     1      31.883  71.726  -9.583  1.00  0.00    -0.384 N 
ATOM     22  H6  UNL     1      31.969  72.732  -9.437  1.00  0.00     0.160 HD
HETATM   23  C18 UNL     1      31.833  70.843  -8.507  1.00  0.00     0.186 C 
HETATM   24  N7  UNL     1      30.796  70.849  -7.553  1.00  0.00    -0.285 N 
HETATM   25  C21 UNL     1      29.539  71.349  -7.663  1.00  0.00     0.126 C 
HETATM   26  N8  UNL     1      28.983  72.335  -6.749  1.00  0.00    -0.295 N 
HETATM   27  C22 UNL     1      29.363  73.664  -6.971  1.00  0.00     0.233 C 
HETATM   28  O11 UNL     1      28.414  74.641  -6.541  1.00  0.00    -0.253 OA
HETATM   29  C24 UNL     1      28.228  75.389  -5.390  1.00  0.00     0.293 C 
HETATM   30  O12 UNL     1      27.546  76.410  -5.599  1.00  0.00    -0.262 OA
ENDROOT
BRANCH  13  31
HETATM   31  O4  UNL     1      26.196  72.115 -10.995  1.00  0.00    -0.364 OA
BRANCH  31  32
HETATM   32  C11 UNL     1      25.813  71.561 -12.212  1.00  0.00     0.212 C 
BRANCH  32  33
HETATM   33  C12 UNL     1      26.852  70.629 -12.780  1.00  0.00     0.295 C 
BRANCH  33  34
HETATM   34  N3  UNL     1      26.149  69.528 -13.411  1.00  0.00    -0.065 N 
ATOM     35  H33 UNL     1      26.199  69.555 -14.429  1.00  0.00     0.275 HD
ATOM     36  H32 UNL     1      26.615  68.630 -13.279  1.00  0.00     0.275 HD
ATOM     37  H31 UNL     1      25.192  69.536 -13.058  1.00  0.00     0.275 HD
ENDBRANCH  33  34
BRANCH  33  38
HETATM   38  C13 UNL     1      27.571  71.360 -13.851  1.00  0.00     0.263 C 
HETATM   39  N4  UNL     1      27.484  70.841 -15.172  1.00  0.00    -0.060 NA
HETATM   40  O5  UNL     1      28.247  72.397 -13.670  1.00  0.00    -0.274 OA
ENDBRANCH  33  38
ENDBRANCH  32  33
ENDBRANCH  31  32
ENDBRANCH  13  31
BRANCH  24  41
HETATM   41  C19 UNL     1      31.285  70.101  -6.453  1.00  0.00     0.249 C 
BRANCH  41  42
HETATM   42  O6  UNL     1      32.156  69.024  -6.771  1.00  0.00    -0.248 OA
BRANCH  42  43
HETATM   43  C20 UNL     1      32.596  68.043  -5.935  1.00  0.00     0.338 C 
HETATM   44  O7  UNL     1      32.097  67.901  -4.803  1.00  0.00    -0.623 OA
HETATM   45  O8  UNL     1      33.608  67.193  -6.347  1.00  0.00    -0.623 OA
ENDBRANCH  42  43
ENDBRANCH  41  42
ENDBRANCH  24  41
BRANCH  27  46
HETATM   46  C23 UNL     1      30.677  74.184  -6.673  1.00  0.00     0.253 C 
HETATM   47  O9  UNL     1      31.269  74.441  -5.626  1.00  0.00    -0.641 OA
HETATM   48  O10 UNL     1      31.527  74.479  -7.788  1.00  0.00    -0.641 OA
ENDBRANCH  27  46
BRANCH   1  49
HETATM   49  C2  UNL     1      27.720  75.767  -2.966  1.00  0.00     0.288 C 
BRANCH  49  50
HETATM   50  O1  UNL     1      28.180  75.394  -1.680  1.00  0.00    -0.364 OA
HETATM   51  C1  UNL     1      27.740  76.275  -0.697  1.00  0.00     0.204 C 
ENDBRANCH  49  50
BRANCH  49  52
HETATM   52  O2  UNL     1      26.434  75.266  -3.049  1.00  0.00    -0.369 OA
ATOM     53  H2  UNL     1      26.099  75.579  -3.881  1.00  0.00     0.212 HD
ENDBRANCH  49  52
ENDBRANCH   1  49
TORSDOF 12
ENDMDL
MODEL 4
REMARK VINA RESULT: -7.628942825      9.051     13.354
REMARK  12 active torsions:
REMARK  status: ('A' for Active; 'I' for Inactive)
REMARK    1  A    between atoms: O1_2  and  C2_3 
REMARK    2  A    between atoms: C2_3  and  O2_4 
REMARK    3  A    between atoms: C2_3  and  C3_6 
REMARK    4  A    between atoms: C10_18  and  O4_19 
REMARK    5  A    between atoms: O4_19  and  C11_20 
REMARK    6  A    between atoms: C11_20  and  C12_21 
REMARK    7  A    between atoms: C12_21  and  N3_22 
REMARK    8  A    between atoms: C12_21  and  C13_26 
REMARK    9  A    between atoms: N7_39  and  C19_40 
REMARK   10  A    between atoms: C19_40  and  O6_41 
REMARK   11  A    between atoms: O6_41  and  C20_42 
REMARK   12  A    between atoms: C22_47  and  C23_48 
ROOT
HETATM    1  C3  UNL     1      29.723  72.652 -12.938  1.00  0.00     0.240 C 
HETATM    2  N1  UNL     1      30.741  73.494 -12.357  1.00  0.00    -0.341 N 
ATOM      3  H1  UNL     1      30.458  74.473 -12.305  1.00  0.00     0.163 HD
HETATM    4  C4  UNL     1      32.037  73.277 -11.844  1.00  0.00     0.241 C 
HETATM    5  O3  UNL     1      32.668  74.353 -11.837  1.00  0.00    -0.271 OA
HETATM    6  C5  UNL     1      32.868  72.156 -11.312  1.00  0.00     0.185 C 
HETATM    7  C6  UNL     1      32.069  71.741 -10.069  1.00  0.00     0.036 C 
HETATM    8  C7  UNL     1      32.545  70.543  -9.555  1.00  0.00     0.008 C 
HETATM    9  C8  UNL     1      32.416  69.444  -8.651  1.00  0.00     0.044 C 
HETATM   10  C9  UNL     1      32.981  68.132  -9.262  1.00  0.00     0.058 C 
HETATM   11  N2  UNL     1      34.335  67.921  -9.313  1.00  0.00    -0.377 N 
ATOM     12  H2  UNL     1      34.890  67.972  -8.458  1.00  0.00     0.161 HD
HETATM   13  C10 UNL     1      35.001  67.615 -10.618  1.00  0.00     0.222 C 
HETATM   14  C14 UNL     1      34.871  68.791 -11.407  1.00  0.00     0.094 C 
HETATM   15  C15 UNL     1      35.191  69.509 -12.570  1.00  0.00     0.258 C 
HETATM   16  N5  UNL     1      36.666  69.468 -12.635  1.00  0.00    -0.062 N 
ATOM     17  H51 UNL     1      37.068  69.257 -11.722  1.00  0.00     0.278 HD
ATOM     18  H52 UNL     1      37.054  70.401 -12.772  1.00  0.00     0.278 HD
HETATM   19  C16 UNL     1      37.146  68.559 -13.631  1.00  0.00     0.253 C 
HETATM   20  C17 UNL     1      37.426  69.412 -14.878  1.00  0.00     0.148 C 
HETATM   21  N6  UNL     1      36.399  70.412 -14.910  1.00  0.00    -0.384 N 
ATOM     22  H6  UNL     1      35.580  70.309 -15.510  1.00  0.00     0.160 HD
HETATM   23  C18 UNL     1      36.558  71.528 -14.093  1.00  0.00     0.186 C 
HETATM   24  N7  UNL     1      35.677  71.843 -13.040  1.00  0.00    -0.285 N 
HETATM   25  C21 UNL     1      34.824  71.028 -12.368  1.00  0.00     0.126 C 
HETATM   26  N8  UNL     1      33.395  71.275 -12.257  1.00  0.00    -0.295 N 
HETATM   27  C22 UNL     1      32.620  70.915 -13.366  1.00  0.00     0.233 C 
HETATM   28  O11 UNL     1      31.265  70.574 -13.067  1.00  0.00    -0.253 OA
HETATM   29  C24 UNL     1      30.060  71.258 -13.049  1.00  0.00     0.293 C 
HETATM   30  O12 UNL     1      29.084  70.491 -13.149  1.00  0.00    -0.262 OA
ENDROOT
BRANCH  13  31
HETATM   31  O4  UNL     1      34.434  66.448 -11.048  1.00  0.00    -0.364 OA
BRANCH  31  32
HETATM   32  C11 UNL     1      35.396  65.689 -11.706  1.00  0.00     0.212 C 
BRANCH  32  33
HETATM   33  C12 UNL     1      34.878  65.070 -12.979  1.00  0.00     0.295 C 
BRANCH  33  34
HETATM   34  N3  UNL     1      33.988  66.034 -13.599  1.00  0.00    -0.065 N 
ATOM     35  H33 UNL     1      34.445  66.593 -14.319  1.00  0.00     0.275 HD
ATOM     36  H32 UNL     1      33.284  65.599 -14.196  1.00  0.00     0.275 HD
ATOM     37  H31 UNL     1      33.582  66.598 -12.852  1.00  0.00     0.275 HD
ENDBRANCH  33  34
BRANCH  33  38
HETATM   38  C13 UNL     1      36.033  64.891 -13.891  1.00  0.00     0.263 C 
HETATM   39  N4  UNL     1      35.754  64.575 -15.250  1.00  0.00    -0.060 NA
HETATM   40  O5  UNL     1      37.230  64.998 -13.547  1.00  0.00    -0.274 OA
ENDBRANCH  33  38
ENDBRANCH  32  33
ENDBRANCH  31  32
ENDBRANCH  13  31
BRANCH  24  41
HETATM   41  C19 UNL     1      35.940  73.197 -12.714  1.00  0.00     0.249 C 
BRANCH  41  42
HETATM   42  O6  UNL     1      35.536  74.159 -13.680  1.00  0.00    -0.248 OA
BRANCH  42  43
HETATM   43  C20 UNL     1      35.446  75.507 -13.514  1.00  0.00     0.338 C 
HETATM   44  O7  UNL     1      36.117  76.087 -12.640  1.00  0.00    -0.623 OA
HETATM   45  O8  UNL     1      34.602  76.244 -14.328  1.00  0.00    -0.623 OA
ENDBRANCH  42  43
ENDBRANCH  41  42
ENDBRANCH  24  41
BRANCH  27  46
HETATM   46  C23 UNL     1      32.611  71.646 -14.611  1.00  0.00     0.253 C 
HETATM   47  O9  UNL     1      32.718  72.838 -14.895  1.00  0.00    -0.641 OA
HETATM   48  O10 UNL     1      32.455  70.880 -15.812  1.00  0.00    -0.641 OA
ENDBRANCH  27  46
BRANCH   1  49
HETATM   49  C2  UNL     1      28.411  72.961 -12.240  1.00  0.00     0.288 C 
BRANCH  49  50
HETATM   50  O1  UNL     1      27.921  74.217 -12.672  1.00  0.00    -0.364 OA
HETATM   51  C1  UNL     1      27.526  74.188 -14.006  1.00  0.00     0.204 C 
ENDBRANCH  49  50
BRANCH  49  52
HETATM   52  O2  UNL     1      28.523  73.070 -10.866  1.00  0.00    -0.369 OA
ATOM     53  H2  UNL     1      28.358  72.195 -10.534  1.00  0.00     0.212 HD
ENDBRANCH  49  52
ENDBRANCH   1  49
TORSDOF 12
ENDMDL
MODEL 5
REMARK VINA RESULT: -7.606926607      2.925      4.377
REMARK  12 active torsions:
REMARK  status: ('A' for Active; 'I' for Inactive)
REMARK    1  A    between atoms: O1_2  and  C2_3 
REMARK    2  A    between atoms: C2_3  and  O2_4 
REMARK    3  A    between atoms: C2_3  and  C3_6 
REMARK    4  A    between atoms: C10_18  and  O4_19 
REMARK    5  A    between atoms: O4_19  and  C11_20 
REMARK    6  A    between atoms: C11_20  and  C12_21 
REMARK    7  A    between atoms: C12_21  and  N3_22 
REMARK    8  A    between atoms: C12_21  and  C13_26 
REMARK    9  A    between atoms: N7_39  and  C19_40 
REMARK   10  A    between atoms: C19_40  and  O6_41 
REMARK   11  A    between atoms: O6_41  and  C20_42 
REMARK   12  A    between atoms: C22_47  and  C23_48 
ROOT
HETATM    1  C3  UNL     1      28.064  76.163  -3.550  1.00  0.00     0.240 C 
HETATM    2  N1  UNL     1      28.457  74.870  -3.044  1.00  0.00    -0.341 N 
ATOM      3  H1  UNL     1      28.802  74.912  -2.085  1.00  0.00     0.163 HD
HETATM    4  C4  UNL     1      28.472  73.560  -3.568  1.00  0.00     0.241 C 
HETATM    5  O3  UNL     1      29.267  72.857  -2.911  1.00  0.00    -0.271 OA
HETATM    6  C5  UNL     1      27.827  72.773  -4.661  1.00  0.00     0.185 C 
HETATM    7  C6  UNL     1      26.349  72.826  -4.251  1.00  0.00     0.036 C 
HETATM    8  C7  UNL     1      25.537  72.354  -5.272  1.00  0.00     0.008 C 
HETATM    9  C8  UNL     1      24.237  72.153  -5.829  1.00  0.00     0.044 C 
HETATM   10  C9  UNL     1      24.260  72.236  -7.380  1.00  0.00     0.058 C 
HETATM   11  N2  UNL     1      24.732  71.183  -8.122  1.00  0.00    -0.377 N 
ATOM     12  H2  UNL     1      24.328  70.254  -8.000  1.00  0.00     0.161 HD
HETATM   13  C10 UNL     1      25.837  71.393  -9.109  1.00  0.00     0.222 C 
HETATM   14  C14 UNL     1      26.986  71.733  -8.342  1.00  0.00     0.094 C 
HETATM   15  C15 UNL     1      28.366  71.981  -8.276  1.00  0.00     0.258 C 
HETATM   16  N5  UNL     1      28.983  70.808  -8.928  1.00  0.00    -0.062 N 
ATOM     17  H51 UNL     1      28.340  70.017  -8.945  1.00  0.00     0.278 HD
ATOM     18  H52 UNL     1      29.718  70.408  -8.345  1.00  0.00     0.278 HD
HETATM   19  C16 UNL     1      29.471  71.104 -10.241  1.00  0.00     0.253 C 
HETATM   20  C17 UNL     1      30.968  71.408 -10.073  1.00  0.00     0.148 C 
HETATM   21  N6  UNL     1      31.092  72.106  -8.827  1.00  0.00    -0.384 N 
ATOM     22  H6  UNL     1      31.170  73.122  -8.796  1.00  0.00     0.160 HD
HETATM   23  C18 UNL     1      31.101  71.345  -7.660  1.00  0.00     0.186 C 
HETATM   24  N7  UNL     1      30.106  71.448  -6.667  1.00  0.00    -0.285 N 
HETATM   25  C21 UNL     1      28.839  71.921  -6.775  1.00  0.00     0.126 C 
HETATM   26  N8  UNL     1      28.309  72.998  -5.951  1.00  0.00    -0.295 N 
HETATM   27  C22 UNL     1      28.662  74.297  -6.334  1.00  0.00     0.233 C 
HETATM   28  O11 UNL     1      27.719  75.307  -5.972  1.00  0.00    -0.253 OA
HETATM   29  C24 UNL     1      27.573  76.176  -4.903  1.00  0.00     0.293 C 
HETATM   30  O12 UNL     1      26.869  77.162  -5.192  1.00  0.00    -0.262 OA
ENDROOT
BRANCH  13  31
HETATM   31  O4  UNL     1      25.344  72.287 -10.018  1.00  0.00    -0.364 OA
BRANCH  31  32
HETATM   32  C11 UNL     1      24.979  71.607 -11.175  1.00  0.00     0.212 C 
BRANCH  32  33
HETATM   33  C12 UNL     1      25.797  70.361 -11.401  1.00  0.00     0.295 C 
BRANCH  33  34
HETATM   34  N3  UNL     1      24.870  69.273 -11.649  1.00  0.00    -0.065 N 
ATOM     35  H33 UNL     1      23.909  69.589 -11.775  1.00  0.00     0.275 HD
ATOM     36  H32 UNL     1      24.992  68.848 -12.568  1.00  0.00     0.275 HD
ATOM     37  H31 UNL     1      24.973  68.605 -10.885  1.00  0.00     0.275 HD
ENDBRANCH  33  34
BRANCH  33  38
HETATM   38  C13 UNL     1      26.581  70.560 -12.643  1.00  0.00     0.263 C 
HETATM   39  N4  UNL     1      27.011  71.882 -12.944  1.00  0.00    -0.060 NA
HETATM   40  O5  UNL     1      26.886  69.647 -13.441  1.00  0.00    -0.274 OA
ENDBRANCH  33  38
ENDBRANCH  32  33
ENDBRANCH  31  32
ENDBRANCH  13  31
BRANCH  24  41
HETATM   41  C19 UNL     1      30.653  70.830  -5.514  1.00  0.00     0.249 C 
BRANCH  41  42
HETATM   42  O6  UNL     1      30.416  69.434  -5.385  1.00  0.00    -0.248 OA
BRANCH  42  43
HETATM   43  C20 UNL     1      30.748  68.634  -4.335  1.00  0.00     0.338 C 
HETATM   44  O7  UNL     1      30.057  68.625  -3.299  1.00  0.00    -0.623 OA
HETATM   45  O8  UNL     1      31.865  67.820  -4.419  1.00  0.00    -0.623 OA
ENDBRANCH  42  43
ENDBRANCH  41  42
ENDBRANCH  24  41
BRANCH  27  46
HETATM   46  C23 UNL     1      29.980  74.859  -6.154  1.00  0.00     0.253 C 
HETATM   47  O9  UNL     1      30.896  74.634  -5.365  1.00  0.00    -0.641 OA
HETATM   48  O10 UNL     1      30.371  75.899  -7.057  1.00  0.00    -0.641 OA
ENDBRANCH  27  46
BRANCH   1  49
HETATM   49  C2  UNL     1      27.166  76.814  -2.514  1.00  0.00     0.288 C 
BRANCH  49  50
HETATM   50  O1  UNL     1      27.928  77.180  -1.379  1.00  0.00    -0.364 OA
HETATM   51  C1  UNL     1      27.686  76.336  -0.299  1.00  0.00     0.204 C 
ENDBRANCH  49  50
BRANCH  49  52
HETATM   52  O2  UNL     1      26.175  75.978  -2.032  1.00  0.00    -0.369 OA
ATOM     53  H2  UNL     1      25.433  76.114  -2.609  1.00  0.00     0.212 HD
ENDBRANCH  49  52
ENDBRANCH   1  49
TORSDOF 12
ENDMDL
