MODEL 1
REMARK VINA RESULT: -9.964551046      0.000      0.000
REMARK  13 active torsions:
REMARK  status: ('A' for Active; 'I' for Inactive)
REMARK    1  A    between atoms: O1_2  and  C2_3 
REMARK       I    between atoms: N1_5  and  C4_6 
REMARK       I    between atoms: C4_6  and  N2_7 
REMARK    2  A    between atoms: C5_12  and  N5_13 
REMARK    3  A    between atoms: N5_13  and  C6_15 
REMARK    4  A    between atoms: C8_21  and  N8_22 
REMARK       I    between atoms: N8_22  and  C9_24 
REMARK    5  A    between atoms: C9_24  and  C10_26 
REMARK    6  A    between atoms: C10_26  and  S1_27 
REMARK    7  A    between atoms: S1_27  and  C11_28 
REMARK    8  A    between atoms: C11_28  and  C12_29 
REMARK    9  A    between atoms: C13_31  and  N9_32 
REMARK   10  A    between atoms: C17_41  and  O5_42 
REMARK   11  A    between atoms: C20_48  and  N13_49 
REMARK       I    between atoms: N13_49  and  C21_51 
REMARK   12  A    between atoms: C21_51  and  C22_53 
REMARK   13  A    between atoms: C22_53  and  N14_54 
ROOT
HETATM    1  C11 UNL     1      27.113  76.336  -5.311  1.00  0.00     0.108 C 
ENDROOT
BRANCH   1   2
HETATM    2  S1  UNL     1      25.555  75.423  -5.395  1.00  0.00    -0.157 SA
BRANCH   2   3
HETATM    3  C10 UNL     1      25.490  74.069  -4.217  1.00  0.00     0.177 C 
BRANCH   3   4
HETATM    4  C9  UNL     1      26.207  74.451  -2.985  1.00  0.00     0.245 C 
HETATM    5  N8  UNL     1      27.147  73.564  -2.420  1.00  0.00    -0.158 N 
ATOM      6  H8  UNL     1      27.673  72.941  -3.033  1.00  0.00     0.187 HD
HETATM    7  O2  UNL     1      25.986  75.559  -2.436  1.00  0.00    -0.272 OA
BRANCH   5   8
HETATM    8  C8  UNL     1      27.360  73.520  -1.140  1.00  0.00     0.700 A 
HETATM    9  N7  UNL     1      28.527  73.123  -0.622  1.00  0.00    -0.186 N 
HETATM   10  C7  UNL     1      28.643  73.122   0.716  1.00  0.00     0.215 A 
ATOM     11  H7  UNL     1      29.301  72.832  -1.221  1.00  0.00     0.185 HD
HETATM   12  N6  UNL     1      27.649  73.498   1.533  1.00  0.00    -0.187 N 
HETATM   13  C6  UNL     1      26.459  73.903   1.006  1.00  0.00     0.695 A 
ATOM     14  H6  UNL     1      27.783  73.482   2.545  1.00  0.00     0.185 HD
HETATM   15  N15 UNL     1      26.350  73.901  -0.338  1.00  0.00    -0.022 N 
ATOM     16  H15 UNL     1      25.471  74.200  -0.761  1.00  0.00     0.203 HD
BRANCH  13  17
HETATM   17  N5  UNL     1      25.505  74.265   1.773  1.00  0.00    -0.200 N 
ATOM     18  H5  UNL     1      25.391  75.256   1.990  1.00  0.00     0.180 HD
BRANCH  17  19
HETATM   19  C5  UNL     1      24.590  73.321   2.337  1.00  0.00     0.272 C 
HETATM   20  C2  UNL     1      23.505  74.130   3.001  1.00  0.00     0.103 C 
HETATM   21  C3  UNL     1      22.537  74.245   2.110  1.00  0.00     0.151 C 
HETATM   22  N1  UNL     1      22.911  73.568   0.904  1.00  0.00    -0.238 N 
HETATM   23  C4  UNL     1      22.429  73.856  -0.398  1.00  0.00     0.204 C 
HETATM   24  N4  UNL     1      23.829  72.594   1.335  1.00  0.00    -0.099 NA
HETATM   25  N2  UNL     1      23.110  74.613  -1.200  1.00  0.00    -0.372 N 
HETATM   26  N3  UNL     1      21.194  73.333  -0.865  1.00  0.00    -0.062 NA
ATOM     27  H22 UNL     1      23.996  74.988  -0.865  1.00  0.00     0.158 HD
ATOM     28  H21 UNL     1      22.763  74.821  -2.136  1.00  0.00     0.158 HD
BRANCH  20  29
HETATM   29  O1  UNL     1      23.539  74.642   4.299  1.00  0.00    -0.355 OA
HETATM   30  C1  UNL     1      22.370  74.543   5.097  1.00  0.00     0.209 C 
ENDBRANCH  20  29
ENDBRANCH  17  19
ENDBRANCH  13  17
ENDBRANCH   5   8
ENDBRANCH   3   4
ENDBRANCH   2   3
ENDBRANCH   1   2
BRANCH   1  31
HETATM   31  C12 UNL     1      28.234  75.632  -5.988  1.00  0.00     0.156 C 
HETATM   32  O3  UNL     1      29.031  74.985  -5.064  1.00  0.00    -0.358 OA
HETATM   33  C13 UNL     1      30.271  74.791  -5.651  1.00  0.00     0.233 C 
HETATM   34  C19 UNL     1      30.415  75.768  -6.793  1.00  0.00     0.082 C 
HETATM   35  C20 UNL     1      29.145  76.607  -6.658  1.00  0.00     0.118 C 
BRANCH  33  36
HETATM   36  N9  UNL     1      30.422  73.421  -6.092  1.00  0.00    -0.300 N 
HETATM   37  C14 UNL     1      30.750  72.990  -7.317  1.00  0.00     0.188 A 
HETATM   38  N10 UNL     1      30.786  71.635  -7.308  1.00  0.00    -0.345 N 
HETATM   39  C15 UNL     1      30.478  71.189  -6.063  1.00  0.00     0.147 A 
ATOM     40  H10 UNL     1      31.010  71.044  -8.109  1.00  0.00     0.167 HD
HETATM   41  C16 UNL     1      30.366  69.944  -5.492  1.00  0.00     0.279 A 
HETATM   42  C18 UNL     1      30.252  72.342  -5.312  1.00  0.00     0.146 A 
HETATM   43  O4  UNL     1      30.573  68.922  -6.178  1.00  0.00    -0.265 OA
HETATM   44  N11 UNL     1      30.036  69.852  -4.200  1.00  0.00    -0.287 N 
HETATM   45  C17 UNL     1      29.807  70.945  -3.434  1.00  0.00     0.225 A 
ATOM     46  H11 UNL     1      29.953  68.928  -3.777  1.00  0.00     0.172 HD
HETATM   47  N12 UNL     1      29.922  72.147  -4.015  1.00  0.00    -0.306 N 
ATOM     48  H12 UNL     1      29.749  72.971  -3.439  1.00  0.00     0.171 HD
BRANCH  45  49
HETATM   49  O5  UNL     1      29.468  70.768  -2.103  1.00  0.00    -0.332 OA
ATOM     50  H5  UNL     1      29.701  71.444  -1.478  1.00  0.00     0.221 HD
ENDBRANCH  45  49
ENDBRANCH  33  36
BRANCH  35  51
HETATM   51  N13 UNL     1      29.472  77.706  -5.776  1.00  0.00    -0.352 N 
HETATM   52  C21 UNL     1      30.007  78.928  -6.226  1.00  0.00     0.243 C 
HETATM   53  O6  UNL     1      30.219  79.099  -7.446  1.00  0.00    -0.272 OA
ATOM     54  H13 UNL     1      29.305  77.589  -4.777  1.00  0.00     0.163 HD
BRANCH  52  55
HETATM   55  C22 UNL     1      30.316  79.999  -5.265  1.00  0.00     0.332 C 
BRANCH  55  56
HETATM   56  N14 UNL     1      31.405  80.787  -5.752  1.00  0.00    -0.071 N 
ATOM     57 3H14 UNL     1      31.907  80.323  -6.509  1.00  0.00     0.274 HD
ATOM     58 2H14 UNL     1      31.085  81.607  -6.267  1.00  0.00     0.274 HD
ATOM     59 1H14 UNL     1      32.022  81.038  -4.979  1.00  0.00     0.274 HD
ENDBRANCH  55  56
ENDBRANCH  52  55
ENDBRANCH  35  51
ENDBRANCH   1  31
TORSDOF 13
ENDMDL
MODEL 2
REMARK VINA RESULT: -9.957150156      1.895      2.092
REMARK  13 active torsions:
REMARK  status: ('A' for Active; 'I' for Inactive)
REMARK    1  A    between atoms: O1_2  and  C2_3 
REMARK       I    between atoms: N1_5  and  C4_6 
REMARK       I    between atoms: C4_6  and  N2_7 
REMARK    2  A    between atoms: C5_12  and  N5_13 
REMARK    3  A    between atoms: N5_13  and  C6_15 
REMARK    4  A    between atoms: C8_21  and  N8_22 
REMARK       I    between atoms: N8_22  and  C9_24 
REMARK    5  A    between atoms: C9_24  and  C10_26 
REMARK    6  A    between atoms: C10_26  and  S1_27 
REMARK    7  A    between atoms: S1_27  and  C11_28 
REMARK    8  A    between atoms: C11_28  and  C12_29 
REMARK    9  A    between atoms: C13_31  and  N9_32 
REMARK   10  A    between atoms: C17_41  and  O5_42 
REMARK   11  A    between atoms: C20_48  and  N13_49 
REMARK       I    between atoms: N13_49  and  C21_51 
REMARK   12  A    between atoms: C21_51  and  C22_53 
REMARK   13  A    between atoms: C22_53  and  N14_54 
ROOT
HETATM    1  C11 UNL     1      25.844  74.538  -5.954  1.00  0.00     0.108 C 
ENDROOT
BRANCH   1   2
HETATM    2  S1  UNL     1      24.923  73.019  -5.618  1.00  0.00    -0.157 SA
BRANCH   2   3
HETATM    3  C10 UNL     1      24.179  73.015  -3.985  1.00  0.00     0.177 C 
BRANCH   3   4
HETATM    4  C9  UNL     1      25.113  73.621  -3.015  1.00  0.00     0.245 C 
HETATM    5  N8  UNL     1      26.149  72.839  -2.462  1.00  0.00    -0.158 N 
ATOM      6  H8  UNL     1      26.554  72.086  -3.018  1.00  0.00     0.187 HD
HETATM    7  O2  UNL     1      24.992  74.825  -2.678  1.00  0.00    -0.272 OA
BRANCH   5   8
HETATM    8  C8  UNL     1      26.600  73.053  -1.264  1.00  0.00     0.700 A 
HETATM    9  N7  UNL     1      27.884  72.868  -0.939  1.00  0.00    -0.186 N 
HETATM   10  C7  UNL     1      28.246  73.127   0.329  1.00  0.00     0.215 A 
ATOM     11  H7  UNL     1      28.563  72.542  -1.627  1.00  0.00     0.185 HD
HETATM   12  N6  UNL     1      27.382  73.556   1.260  1.00  0.00    -0.187 N 
HETATM   13  C6  UNL     1      26.073  73.746   0.929  1.00  0.00     0.695 A 
ATOM     14  H6  UNL     1      27.702  73.740   2.211  1.00  0.00     0.185 HD
HETATM   15  N15 UNL     1      25.717  73.484  -0.345  1.00  0.00    -0.022 N 
ATOM     16  H15 UNL     1      24.744  73.617  -0.622  1.00  0.00     0.203 HD
BRANCH  13  17
HETATM   17  N5  UNL     1      25.240  74.156   1.805  1.00  0.00    -0.200 N 
ATOM     18  H5  UNL     1      25.224  75.146   2.050  1.00  0.00     0.180 HD
BRANCH  17  19
HETATM   19  C5  UNL     1      24.328  73.266   2.454  1.00  0.00     0.272 C 
HETATM   20  C2  UNL     1      23.356  74.134   3.210  1.00  0.00     0.103 C 
HETATM   21  C3  UNL     1      22.320  74.307   2.411  1.00  0.00     0.151 C 
HETATM   22  N1  UNL     1      22.543  73.610   1.178  1.00  0.00    -0.238 N 
HETATM   23  C4  UNL     1      21.961  73.926  -0.075  1.00  0.00     0.204 C 
HETATM   24  N4  UNL     1      23.439  72.584   1.529  1.00  0.00    -0.099 NA
HETATM   25  N2  UNL     1      22.608  74.643  -0.940  1.00  0.00    -0.372 N 
HETATM   26  N3  UNL     1      20.661  73.476  -0.426  1.00  0.00    -0.062 NA
ATOM     27  H22 UNL     1      23.542  74.966  -0.688  1.00  0.00     0.158 HD
ATOM     28  H21 UNL     1      22.191  74.871  -1.841  1.00  0.00     0.158 HD
BRANCH  20  29
HETATM   29  O1  UNL     1      23.537  74.643   4.498  1.00  0.00    -0.355 OA
HETATM   30  C1  UNL     1      22.393  74.849   5.312  1.00  0.00     0.209 C 
ENDBRANCH  20  29
ENDBRANCH  17  19
ENDBRANCH  13  17
ENDBRANCH   5   8
ENDBRANCH   3   4
ENDBRANCH   2   3
ENDBRANCH   1   2
BRANCH   1  31
HETATM   31  C12 UNL     1      27.313  74.320  -6.033  1.00  0.00     0.156 C 
HETATM   32  O3  UNL     1      27.687  73.241  -5.256  1.00  0.00    -0.358 OA
HETATM   33  C13 UNL     1      29.035  73.387  -4.967  1.00  0.00     0.233 C 
HETATM   34  C19 UNL     1      29.408  74.838  -5.158  1.00  0.00     0.082 C 
HETATM   35  C20 UNL     1      28.053  75.480  -5.454  1.00  0.00     0.118 C 
BRANCH  33  36
HETATM   36  N9  UNL     1      29.835  72.512  -5.796  1.00  0.00    -0.300 N 
HETATM   37  C14 UNL     1      30.343  72.776  -7.007  1.00  0.00     0.188 A 
HETATM   38  N10 UNL     1      31.032  71.689  -7.437  1.00  0.00    -0.345 N 
HETATM   39  C15 UNL     1      30.966  70.716  -6.492  1.00  0.00     0.147 A 
ATOM     40  H10 UNL     1      31.521  71.615  -8.329  1.00  0.00     0.167 HD
HETATM   41  C16 UNL     1      31.465  69.441  -6.395  1.00  0.00     0.279 A 
HETATM   42  C18 UNL     1      30.201  71.265  -5.463  1.00  0.00     0.146 A 
HETATM   43  O4  UNL     1      32.148  68.965  -7.326  1.00  0.00    -0.265 OA
HETATM   44  N11 UNL     1      31.207  68.727  -5.294  1.00  0.00    -0.287 N 
HETATM   45  C17 UNL     1      30.470  69.219  -4.271  1.00  0.00     0.225 A 
ATOM     46  H11 UNL     1      31.579  67.780  -5.222  1.00  0.00     0.172 HD
HETATM   47  N12 UNL     1      29.994  70.466  -4.391  1.00  0.00    -0.306 N 
ATOM     48  H12 UNL     1      29.437  70.838  -3.621  1.00  0.00     0.171 HD
BRANCH  45  49
HETATM   49  O5  UNL     1      30.245  68.418  -3.164  1.00  0.00    -0.332 OA
ATOM     50  H5  UNL     1      29.377  68.402  -2.780  1.00  0.00     0.221 HD
ENDBRANCH  45  49
ENDBRANCH  33  36
BRANCH  35  51
HETATM   51  N13 UNL     1      27.496  75.870  -4.177  1.00  0.00    -0.352 N 
HETATM   52  C21 UNL     1      27.768  77.104  -3.557  1.00  0.00     0.243 C 
HETATM   53  O6  UNL     1      28.525  77.925  -4.119  1.00  0.00    -0.272 OA
ATOM     54  H13 UNL     1      26.874  75.216  -3.702  1.00  0.00     0.163 HD
BRANCH  52  55
HETATM   55  C22 UNL     1      27.164  77.426  -2.255  1.00  0.00     0.332 C 
BRANCH  55  56
HETATM   56  N14 UNL     1      27.458  76.390  -1.315  1.00  0.00    -0.071 N 
ATOM     57 3H14 UNL     1      26.663  75.767  -1.168  1.00  0.00     0.274 HD
ATOM     58 2H14 UNL     1      28.114  75.705  -1.691  1.00  0.00     0.274 HD
ATOM     59 1H14 UNL     1      27.791  76.799  -0.442  1.00  0.00     0.274 HD
ENDBRANCH  55  56
ENDBRANCH  52  55
ENDBRANCH  35  51
ENDBRANCH   1  31
TORSDOF 13
ENDMDL
MODEL 3
REMARK VINA RESULT: -9.560337911      1.877      3.270
REMARK  13 active torsions:
REMARK  status: ('A' for Active; 'I' for Inactive)
REMARK    1  A    between atoms: O1_2  and  C2_3 
REMARK       I    between atoms: N1_5  and  C4_6 
REMARK       I    between atoms: C4_6  and  N2_7 
REMARK    2  A    between atoms: C5_12  and  N5_13 
REMARK    3  A    between atoms: N5_13  and  C6_15 
REMARK    4  A    between atoms: C8_21  and  N8_22 
REMARK       I    between atoms: N8_22  and  C9_24 
REMARK    5  A    between atoms: C9_24  and  C10_26 
REMARK    6  A    between atoms: C10_26  and  S1_27 
REMARK    7  A    between atoms: S1_27  and  C11_28 
REMARK    8  A    between atoms: C11_28  and  C12_29 
REMARK    9  A    between atoms: C13_31  and  N9_32 
REMARK   10  A    between atoms: C17_41  and  O5_42 
REMARK   11  A    between atoms: C20_48  and  N13_49 
REMARK       I    between atoms: N13_49  and  C21_51 
REMARK   12  A    between atoms: C21_51  and  C22_53 
REMARK   13  A    between atoms: C22_53  and  N14_54 
ROOT
HETATM    1  C11 UNL     1      27.449  76.626  -3.548  1.00  0.00     0.108 C 
ENDROOT
BRANCH   1   2
HETATM    2  S1  UNL     1      26.690  75.516  -2.340  1.00  0.00    -0.157 SA
BRANCH   2   3
HETATM    3  C10 UNL     1      26.331  73.897  -3.026  1.00  0.00     0.177 C 
BRANCH   3   4
HETATM    4  C9  UNL     1      25.197  73.292  -2.299  1.00  0.00     0.245 C 
HETATM    5  N8  UNL     1      23.877  73.555  -2.722  1.00  0.00    -0.158 N 
ATOM      6  H8  UNL     1      23.697  73.723  -3.711  1.00  0.00     0.187 HD
HETATM    7  O2  UNL     1      25.399  72.548  -1.307  1.00  0.00    -0.272 OA
BRANCH   5   8
HETATM    8  C8  UNL     1      22.886  73.588  -1.884  1.00  0.00     0.700 A 
HETATM    9  N7  UNL     1      21.661  73.159  -2.207  1.00  0.00    -0.186 N 
HETATM   10  C7  UNL     1      20.710  73.232  -1.261  1.00  0.00     0.215 A 
ATOM     11  H7  UNL     1      21.457  72.792  -3.136  1.00  0.00     0.185 HD
HETATM   12  N6  UNL     1      20.942  73.708  -0.029  1.00  0.00    -0.187 N 
HETATM   13  C6  UNL     1      22.191  74.145   0.301  1.00  0.00     0.695 A 
ATOM     14  H6  UNL     1      20.188  73.744   0.657  1.00  0.00     0.185 HD
HETATM   15  N15 UNL     1      23.141  74.070  -0.653  1.00  0.00    -0.022 N 
ATOM     16  H15 UNL     1      24.085  74.389  -0.435  1.00  0.00     0.203 HD
BRANCH  13  17
HETATM   17  N5  UNL     1      22.426  74.600   1.470  1.00  0.00    -0.200 N 
ATOM     18  H5  UNL     1      22.179  75.566   1.685  1.00  0.00     0.180 HD
BRANCH  17  19
HETATM   19  C5  UNL     1      23.025  73.793   2.487  1.00  0.00     0.272 C 
HETATM   20  C2  UNL     1      24.135  74.621   3.083  1.00  0.00     0.103 C 
HETATM   21  C3  UNL     1      23.617  75.225   4.136  1.00  0.00     0.151 C 
HETATM   22  N1  UNL     1      22.240  74.852   4.276  1.00  0.00    -0.238 N 
HETATM   23  C4  UNL     1      21.231  75.613   4.918  1.00  0.00     0.204 C 
HETATM   24  N4  UNL     1      22.166  73.599   3.643  1.00  0.00    -0.099 NA
HETATM   25  N2  UNL     1      20.440  76.373   4.229  1.00  0.00    -0.372 N 
HETATM   26  N3  UNL     1      21.054  75.572   6.327  1.00  0.00    -0.062 NA
ATOM     27  H22 UNL     1      20.567  76.403   3.218  1.00  0.00     0.158 HD
ATOM     28  H21 UNL     1      19.714  76.921   4.691  1.00  0.00     0.158 HD
BRANCH  20  29
HETATM   29  O1  UNL     1      25.442  74.713   2.600  1.00  0.00    -0.355 OA
HETATM   30  C1  UNL     1      25.923  73.687   1.747  1.00  0.00     0.209 C 
ENDBRANCH  20  29
ENDBRANCH  17  19
ENDBRANCH  13  17
ENDBRANCH   5   8
ENDBRANCH   3   4
ENDBRANCH   2   3
ENDBRANCH   1   2
BRANCH   1  31
HETATM   31  C12 UNL     1      28.161  75.900  -4.633  1.00  0.00     0.156 C 
HETATM   32  O3  UNL     1      29.356  75.384  -4.171  1.00  0.00    -0.358 OA
HETATM   33  C13 UNL     1      30.172  75.179  -5.272  1.00  0.00     0.233 C 
HETATM   34  C19 UNL     1      29.665  76.038  -6.406  1.00  0.00     0.082 C 
HETATM   35  C20 UNL     1      28.552  76.836  -5.730  1.00  0.00     0.118 C 
BRANCH  33  36
HETATM   36  N9  UNL     1      30.207  73.778  -5.632  1.00  0.00    -0.300 N 
HETATM   37  C14 UNL     1      30.462  73.252  -6.836  1.00  0.00     0.188 A 
HETATM   38  N10 UNL     1      30.399  71.900  -6.745  1.00  0.00    -0.345 N 
HETATM   39  C15 UNL     1      30.099  71.553  -5.467  1.00  0.00     0.147 A 
ATOM     40  H10 UNL     1      30.552  71.248  -7.514  1.00  0.00     0.167 HD
HETATM   41  C16 UNL     1      29.915  70.357  -4.817  1.00  0.00     0.279 A 
HETATM   42  C18 UNL     1      29.983  72.763  -4.783  1.00  0.00     0.146 A 
HETATM   43  O4  UNL     1      30.023  69.283  -5.445  1.00  0.00    -0.265 OA
HETATM   44  N11 UNL     1      29.621  70.367  -3.513  1.00  0.00    -0.287 N 
HETATM   45  C17 UNL     1      29.498  71.518  -2.810  1.00  0.00     0.225 A 
ATOM     46  H11 UNL     1      29.484  69.479  -3.031  1.00  0.00     0.172 HD
HETATM   47  N12 UNL     1      29.682  72.671  -3.467  1.00  0.00    -0.306 N 
ATOM     48  H12 UNL     1      29.589  73.539  -2.938  1.00  0.00     0.171 HD
BRANCH  45  49
HETATM   49  O5  UNL     1      29.190  71.446  -1.461  1.00  0.00    -0.332 OA
ATOM     50  H5  UNL     1      29.541  72.108  -0.877  1.00  0.00     0.221 HD
ENDBRANCH  45  49
ENDBRANCH  33  36
BRANCH  35  51
HETATM   51  N13 UNL     1      29.168  78.032  -5.199  1.00  0.00    -0.352 N 
HETATM   52  C21 UNL     1      29.779  79.011  -6.005  1.00  0.00     0.243 C 
HETATM   53  O6  UNL     1      29.801  78.865  -7.247  1.00  0.00    -0.272 OA
ATOM     54  H13 UNL     1      29.159  78.173  -4.189  1.00  0.00     0.163 HD
BRANCH  52  55
HETATM   55  C22 UNL     1      30.388  80.201  -5.389  1.00  0.00     0.332 C 
BRANCH  55  56
HETATM   56  N14 UNL     1      31.646  80.478  -6.011  1.00  0.00    -0.071 N 
ATOM     57 3H14 UNL     1      32.232  79.646  -6.079  1.00  0.00     0.274 HD
ATOM     58 2H14 UNL     1      31.548  80.671  -7.008  1.00  0.00     0.274 HD
ATOM     59 1H14 UNL     1      32.114  81.239  -5.518  1.00  0.00     0.274 HD
ENDBRANCH  55  56
ENDBRANCH  52  55
ENDBRANCH  35  51
ENDBRANCH   1  31
TORSDOF 13
ENDMDL
MODEL 4
REMARK VINA RESULT: -9.391946559      4.118     10.532
REMARK  13 active torsions:
REMARK  status: ('A' for Active; 'I' for Inactive)
REMARK    1  A    between atoms: O1_2  and  C2_3 
REMARK       I    between atoms: N1_5  and  C4_6 
REMARK       I    between atoms: C4_6  and  N2_7 
REMARK    2  A    between atoms: C5_12  and  N5_13 
REMARK    3  A    between atoms: N5_13  and  C6_15 
REMARK    4  A    between atoms: C8_21  and  N8_22 
REMARK       I    between atoms: N8_22  and  C9_24 
REMARK    5  A    between atoms: C9_24  and  C10_26 
REMARK    6  A    between atoms: C10_26  and  S1_27 
REMARK    7  A    between atoms: S1_27  and  C11_28 
REMARK    8  A    between atoms: C11_28  and  C12_29 
REMARK    9  A    between atoms: C13_31  and  N9_32 
REMARK   10  A    between atoms: C17_41  and  O5_42 
REMARK   11  A    between atoms: C20_48  and  N13_49 
REMARK       I    between atoms: N13_49  and  C21_51 
REMARK   12  A    between atoms: C21_51  and  C22_53 
REMARK   13  A    between atoms: C22_53  and  N14_54 
ROOT
HETATM    1  C11 UNL     1      30.149  75.257  -6.843  1.00  0.00     0.108 C 
ENDROOT
BRANCH   1   2
HETATM    2  S1  UNL     1      30.555  73.519  -6.552  1.00  0.00    -0.157 SA
BRANCH   2   3
HETATM    3  C10 UNL     1      29.151  72.433  -6.817  1.00  0.00     0.177 C 
BRANCH   3   4
HETATM    4  C9  UNL     1      29.616  71.034  -6.892  1.00  0.00     0.245 C 
HETATM    5  N8  UNL     1      30.596  70.575  -5.986  1.00  0.00    -0.158 N 
ATOM      6  H8  UNL     1      30.637  70.980  -5.051  1.00  0.00     0.187 HD
HETATM    7  O2  UNL     1      29.147  70.250  -7.754  1.00  0.00    -0.272 OA
BRANCH   5   8
HETATM    8  C8  UNL     1      31.448  69.651  -6.313  1.00  0.00     0.700 A 
HETATM    9  N7  UNL     1      31.720  68.614  -5.515  1.00  0.00    -0.186 N 
HETATM   10  C7  UNL     1      32.613  67.711  -5.955  1.00  0.00     0.215 A 
ATOM     11  H7  UNL     1      31.268  68.512  -4.606  1.00  0.00     0.185 HD
HETATM   12  N6  UNL     1      33.227  67.812  -7.142  1.00  0.00    -0.187 N 
HETATM   13  C6  UNL     1      32.949  68.869  -7.957  1.00  0.00     0.695 A 
ATOM     14  H6  UNL     1      33.898  67.101  -7.435  1.00  0.00     0.185 HD
HETATM   15  N15 UNL     1      32.053  69.772  -7.510  1.00  0.00    -0.022 N 
ATOM     16  H15 UNL     1      31.825  70.573  -8.098  1.00  0.00     0.203 HD
BRANCH  13  17
HETATM   17  N5  UNL     1      33.525  68.977  -9.091  1.00  0.00    -0.200 N 
ATOM     18  H5  UNL     1      34.263  69.671  -9.209  1.00  0.00     0.180 HD
BRANCH  17  19
HETATM   19  C5  UNL     1      33.165  68.151 -10.202  1.00  0.00     0.272 C 
HETATM   20  C2  UNL     1      33.908  68.699 -11.394  1.00  0.00     0.103 C 
HETATM   21  C3  UNL     1      35.025  68.002 -11.482  1.00  0.00     0.151 C 
HETATM   22  N1  UNL     1      35.070  67.030 -10.430  1.00  0.00    -0.238 N 
HETATM   23  C4  UNL     1      36.241  66.456  -9.874  1.00  0.00     0.204 C 
HETATM   24  N4  UNL     1      33.717  66.809 -10.118  1.00  0.00    -0.099 NA
HETATM   25  N2  UNL     1      36.754  66.932  -8.782  1.00  0.00    -0.372 N 
HETATM   26  N3  UNL     1      36.891  65.352 -10.487  1.00  0.00    -0.062 NA
ATOM     27  H22 UNL     1      36.287  67.724  -8.342  1.00  0.00     0.158 HD
ATOM     28  H21 UNL     1      37.596  66.520  -8.383  1.00  0.00     0.158 HD
BRANCH  20  29
HETATM   29  O1  UNL     1      33.479  69.737 -12.223  1.00  0.00    -0.355 OA
HETATM   30  C1  UNL     1      34.110  71.003 -12.106  1.00  0.00     0.209 C 
ENDBRANCH  20  29
ENDBRANCH  17  19
ENDBRANCH  13  17
ENDBRANCH   5   8
ENDBRANCH   3   4
ENDBRANCH   2   3
ENDBRANCH   1   2
BRANCH   1  31
HETATM   31  C12 UNL     1      29.652  75.948  -5.624  1.00  0.00     0.156 C 
HETATM   32  O3  UNL     1      28.340  75.600  -5.368  1.00  0.00    -0.358 OA
HETATM   33  C13 UNL     1      27.794  76.599  -4.577  1.00  0.00     0.233 C 
HETATM   34  C19 UNL     1      28.632  77.845  -4.740  1.00  0.00     0.082 C 
HETATM   35  C20 UNL     1      29.620  77.426  -5.827  1.00  0.00     0.118 C 
BRANCH  33  36
HETATM   36  N9  UNL     1      27.719  76.178  -3.195  1.00  0.00    -0.300 N 
HETATM   37  C14 UNL     1      27.263  76.883  -2.152  1.00  0.00     0.188 A 
HETATM   38  N10 UNL     1      27.364  76.122  -1.034  1.00  0.00    -0.345 N 
HETATM   39  C15 UNL     1      27.890  74.914  -1.362  1.00  0.00     0.147 A 
ATOM     40  H10 UNL     1      27.088  76.411  -0.095  1.00  0.00     0.167 HD
HETATM   41  C16 UNL     1      28.207  73.783  -0.651  1.00  0.00     0.279 A 
HETATM   42  C18 UNL     1      28.106  74.977  -2.738  1.00  0.00     0.146 A 
HETATM   43  O4  UNL     1      28.007  73.743   0.581  1.00  0.00    -0.265 OA
HETATM   44  N11 UNL     1      28.727  72.735  -1.299  1.00  0.00    -0.287 N 
HETATM   45  C17 UNL     1      28.953  72.753  -2.634  1.00  0.00     0.225 A 
ATOM     46  H11 UNL     1      28.961  71.895  -0.771  1.00  0.00     0.172 HD
HETATM   47  N12 UNL     1      28.636  73.868  -3.305  1.00  0.00    -0.306 N 
ATOM     48  H12 UNL     1      28.807  73.883  -4.310  1.00  0.00     0.171 HD
BRANCH  45  49
HETATM   49  O5  UNL     1      29.495  71.628  -3.234  1.00  0.00    -0.332 OA
ATOM     50  H5  UNL     1      29.119  71.318  -4.049  1.00  0.00     0.221 HD
ENDBRANCH  45  49
ENDBRANCH  33  36
BRANCH  35  51
HETATM   51  N13 UNL     1      29.006  77.765  -7.093  1.00  0.00    -0.352 N 
HETATM   52  C21 UNL     1      29.486  78.782  -7.939  1.00  0.00     0.243 C 
HETATM   53  O6  UNL     1      30.495  79.441  -7.605  1.00  0.00    -0.272 OA
ATOM     54  H13 UNL     1      28.183  77.239  -7.387  1.00  0.00     0.163 HD
BRANCH  52  55
HETATM   55  C22 UNL     1      28.804  79.069  -9.211  1.00  0.00     0.332 C 
BRANCH  55  56
HETATM   56  N14 UNL     1      28.762  80.482  -9.431  1.00  0.00    -0.071 N 
ATOM     57 3H14 UNL     1      27.838  80.872  -9.248  1.00  0.00     0.274 HD
ATOM     58 2H14 UNL     1      29.282  80.996  -8.720  1.00  0.00     0.274 HD
ATOM     59 1H14 UNL     1      29.089  80.694 -10.373  1.00  0.00     0.274 HD
ENDBRANCH  55  56
ENDBRANCH  52  55
ENDBRANCH  35  51
ENDBRANCH   1  31
TORSDOF 13
ENDMDL
MODEL 5
REMARK VINA RESULT: -9.310673844      1.811      3.901
REMARK  13 active torsions:
REMARK  status: ('A' for Active; 'I' for Inactive)
REMARK    1  A    between atoms: O1_2  and  C2_3 
REMARK       I    between atoms: N1_5  and  C4_6 
REMARK       I    between atoms: C4_6  and  N2_7 
REMARK    2  A    between atoms: C5_12  and  N5_13 
REMARK    3  A    between atoms: N5_13  and  C6_15 
REMARK    4  A    between atoms: C8_21  and  N8_22 
REMARK       I    between atoms: N8_22  and  C9_24 
REMARK    5  A    between atoms: C9_24  and  C10_26 
REMARK    6  A    between atoms: C10_26  and  S1_27 
REMARK    7  A    between atoms: S1_27  and  C11_28 
REMARK    8  A    between atoms: C11_28  and  C12_29 
REMARK    9  A    between atoms: C13_31  and  N9_32 
REMARK   10  A    between atoms: C17_41  and  O5_42 
REMARK   11  A    between atoms: C20_48  and  N13_49 
REMARK       I    between atoms: N13_49  and  C21_51 
REMARK   12  A    between atoms: C21_51  and  C22_53 
REMARK   13  A    between atoms: C22_53  and  N14_54 
ROOT
HETATM    1  C11 UNL     1      27.163  76.409  -5.081  1.00  0.00     0.108 C 
ENDROOT
BRANCH   1   2
HETATM    2  S1  UNL     1      25.539  75.642  -5.288  1.00  0.00    -0.157 SA
BRANCH   2   3
HETATM    3  C10 UNL     1      25.648  73.875  -5.589  1.00  0.00     0.177 C 
BRANCH   3   4
HETATM    4  C9  UNL     1      25.691  73.157  -4.299  1.00  0.00     0.245 C 
HETATM    5  N8  UNL     1      24.605  73.263  -3.405  1.00  0.00    -0.158 N 
ATOM      6  H8  UNL     1      23.665  73.396  -3.779  1.00  0.00     0.187 HD
HETATM    7  O2  UNL     1      26.685  72.454  -3.993  1.00  0.00    -0.272 OA
BRANCH   5   8
HETATM    8  C8  UNL     1      24.771  73.195  -2.120  1.00  0.00     0.700 A 
HETATM    9  N7  UNL     1      23.747  73.261  -1.261  1.00  0.00    -0.186 N 
HETATM   10  C7  UNL     1      24.031  73.173   0.049  1.00  0.00     0.215 A 
ATOM     11  H7  UNL     1      22.788  73.374  -1.589  1.00  0.00     0.185 HD
HETATM   12  N6  UNL     1      25.279  73.024   0.516  1.00  0.00    -0.187 N 
HETATM   13  C6  UNL     1      26.322  72.957  -0.358  1.00  0.00     0.695 A 
ATOM     14  H6  UNL     1      25.446  72.962   1.521  1.00  0.00     0.185 HD
HETATM   15  N15 UNL     1      26.031  73.046  -1.672  1.00  0.00    -0.022 N 
ATOM     16  H15 UNL     1      26.792  72.998  -2.350  1.00  0.00     0.203 HD
BRANCH  13  17
HETATM   17  N5  UNL     1      27.515  72.814   0.073  1.00  0.00    -0.200 N 
ATOM     18  H5  UNL     1      27.709  72.092   0.768  1.00  0.00     0.180 HD
BRANCH  17  19
HETATM   19  C5  UNL     1      28.589  73.637  -0.391  1.00  0.00     0.272 C 
HETATM   20  C2  UNL     1      28.506  74.921   0.393  1.00  0.00     0.103 C 
HETATM   21  C3  UNL     1      29.318  74.775   1.424  1.00  0.00     0.151 C 
HETATM   22  N1  UNL     1      29.931  73.480   1.372  1.00  0.00    -0.238 N 
HETATM   23  C4  UNL     1      30.439  72.754   2.479  1.00  0.00     0.204 C 
HETATM   24  N4  UNL     1      29.898  73.146   0.007  1.00  0.00    -0.099 NA
HETATM   25  N2  UNL     1      29.720  71.842   3.055  1.00  0.00    -0.372 N 
HETATM   26  N3  UNL     1      31.741  72.998   2.993  1.00  0.00    -0.062 NA
ATOM     27  H22 UNL     1      28.786  71.667   2.686  1.00  0.00     0.158 HD
ATOM     28  H21 UNL     1      30.086  71.320   3.851  1.00  0.00     0.158 HD
BRANCH  20  29
HETATM   29  O1  UNL     1      27.721  76.030   0.073  1.00  0.00    -0.355 OA
HETATM   30  C1  UNL     1      27.567  76.380  -1.293  1.00  0.00     0.209 C 
ENDBRANCH  20  29
ENDBRANCH  17  19
ENDBRANCH  13  17
ENDBRANCH   5   8
ENDBRANCH   3   4
ENDBRANCH   2   3
ENDBRANCH   1   2
BRANCH   1  31
HETATM   31  C12 UNL     1      28.242  75.685  -5.804  1.00  0.00     0.156 C 
HETATM   32  O3  UNL     1      29.099  75.071  -4.911  1.00  0.00    -0.358 OA
HETATM   33  C13 UNL     1      30.300  74.859  -5.569  1.00  0.00     0.233 C 
HETATM   34  C19 UNL     1      30.366  75.798  -6.751  1.00  0.00     0.082 C 
HETATM   35  C20 UNL     1      29.105  76.638  -6.563  1.00  0.00     0.118 C 
BRANCH  33  36
HETATM   36  N9  UNL     1      30.428  73.476  -5.973  1.00  0.00    -0.300 N 
HETATM   37  C14 UNL     1      30.765  73.007  -7.181  1.00  0.00     0.188 A 
HETATM   38  N10 UNL     1      30.773  71.652  -7.137  1.00  0.00    -0.345 N 
HETATM   39  C15 UNL     1      30.437  71.244  -5.886  1.00  0.00     0.147 A 
ATOM     40  H10 UNL     1      30.995  71.036  -7.919  1.00  0.00     0.167 HD
HETATM   41  C16 UNL     1      30.290  70.018  -5.285  1.00  0.00     0.279 A 
HETATM   42  C18 UNL     1      30.224  72.421  -5.169  1.00  0.00     0.146 A 
HETATM   43  O4  UNL     1      30.485  68.974  -5.941  1.00  0.00    -0.265 OA
HETATM   44  N11 UNL     1      29.939  69.967  -3.996  1.00  0.00    -0.287 N 
HETATM   45  C17 UNL     1      29.722  71.084  -3.262  1.00  0.00     0.225 A 
ATOM     46  H11 UNL     1      29.830  69.056  -3.550  1.00  0.00     0.172 HD
HETATM   47  N12 UNL     1      29.871  72.267  -3.872  1.00  0.00    -0.306 N 
ATOM     48  H12 UNL     1      29.707  73.110  -3.320  1.00  0.00     0.171 HD
BRANCH  45  49
HETATM   49  O5  UNL     1      29.359  70.948  -1.932  1.00  0.00    -0.332 OA
ATOM     50  H5  UNL     1      30.004  71.139  -1.261  1.00  0.00     0.221 HD
ENDBRANCH  45  49
ENDBRANCH  33  36
BRANCH  35  51
HETATM   51  N13 UNL     1      29.482  77.767  -5.742  1.00  0.00    -0.352 N 
HETATM   52  C21 UNL     1      30.019  78.960  -6.263  1.00  0.00     0.243 C 
HETATM   53  O6  UNL     1      30.186  79.076  -7.496  1.00  0.00    -0.272 OA
ATOM     54  H13 UNL     1      29.352  77.696  -4.733  1.00  0.00     0.163 HD
BRANCH  52  55
HETATM   55  C22 UNL     1      30.381  80.064  -5.361  1.00  0.00     0.332 C 
BRANCH  55  56
HETATM   56  N14 UNL     1      31.543  80.734  -5.857  1.00  0.00    -0.071 N 
ATOM     57 3H14 UNL     1      32.251  80.080  -6.190  1.00  0.00     0.274 HD
ATOM     58 2H14 UNL     1      31.361  81.215  -6.738  1.00  0.00     0.274 HD
ATOM     59 1H14 UNL     1      31.908  81.366  -5.145  1.00  0.00     0.274 HD
ENDBRANCH  55  56
ENDBRANCH  52  55
ENDBRANCH  35  51
ENDBRANCH   1  31
TORSDOF 13
ENDMDL
