MODEL 1
REMARK VINA RESULT: -10.818695977      0.000      0.000
REMARK  12 active torsions:
REMARK  status: ('A' for Active; 'I' for Inactive)
REMARK    1  A    between atoms: C2_3  and  C10_19 
REMARK    2  A    between atoms: C3_4  and  O1_5 
REMARK    3  A    between atoms: O1_5  and  C4_6 
REMARK    4  A    between atoms: C9_16  and  O5_17 
REMARK    5  A    between atoms: C10_19  and  N3_20 
REMARK    6  A    between atoms: N3_20  and  S1_22 
REMARK    7  A    between atoms: S1_22  and  N4_25 
REMARK    8  A    between atoms: C12_27  and  N5_28 
REMARK       I    between atoms: N5_28  and  C13_30 
REMARK    9  A    between atoms: C13_30  and  C14_32 
REMARK   10  A    between atoms: C14_32  and  O9_33 
REMARK   11  A    between atoms: C14_32  and  C15_35 
REMARK   12  A    between atoms: C18_42  and  N8_43 
ROOT
HETATM    1  N1  UNL     1      29.505  79.163  -4.789  1.00  0.00    -0.192 NA
HETATM    2  C1  UNL     1      28.851  78.255  -4.473  1.00  0.00     0.098 C 
HETATM    3  C2  UNL     1      28.034  77.136  -4.056  1.00  0.00     0.062 C 
HETATM    4  C3  UNL     1      27.437  77.103  -2.886  1.00  0.00     0.158 C 
ENDROOT
BRANCH   3   5
HETATM    5  C10 UNL     1      27.847  75.972  -4.971  1.00  0.00     0.185 C 
BRANCH   5   6
HETATM    6  N3  UNL     1      28.723  74.906  -4.581  1.00  0.00    -0.296 N 
ATOM      7  H3  UNL     1      29.140  74.775  -3.660  1.00  0.00     0.174 HD
BRANCH   6   8
HETATM    8  S1  UNL     1      28.944  73.882  -5.960  1.00  0.00     0.339 S 
HETATM    9  O6  UNL     1      30.026  74.487  -6.808  1.00  0.00    -0.181 OA
HETATM   10  O7  UNL     1      27.640  73.808  -6.705  1.00  0.00    -0.181 OA
BRANCH   8  11
HETATM   11  N4  UNL     1      29.427  72.332  -5.405  1.00  0.00    -0.170 N 
HETATM   12  C11 UNL     1      30.201  71.488  -6.142  1.00  0.00     0.166 A 
HETATM   13  C12 UNL     1      30.370  70.366  -5.372  1.00  0.00     0.123 A 
HETATM   14  C21 UNL     1      29.685  70.558  -4.167  1.00  0.00     0.289 A 
HETATM   15  O11 UNL     1      29.590  69.763  -3.183  1.00  0.00    -0.264 OA
HETATM   16  N11 UNL     1      29.132  71.774  -4.249  1.00  0.00    -0.247 N 
ATOM     17  H11 UNL     1      28.564  72.207  -3.522  1.00  0.00     0.191 HD
BRANCH  13  18
HETATM   18  N5  UNL     1      31.091  69.170  -5.652  1.00  0.00    -0.319 N 
HETATM   19  C13 UNL     1      32.007  68.989  -6.715  1.00  0.00     0.257 C 
HETATM   20  O8  UNL     1      32.233  69.947  -7.503  1.00  0.00    -0.270 OA
ATOM     21  H5  UNL     1      30.933  68.375  -5.032  1.00  0.00     0.169 HD
BRANCH  19  22
HETATM   22  C14 UNL     1      32.685  67.714  -6.910  1.00  0.00     0.261 C 
BRANCH  22  23
HETATM   23  O9  UNL     1      31.753  66.656  -7.010  1.00  0.00    -0.380 OA
ATOM     24  H9  UNL     1      32.195  65.825  -7.139  1.00  0.00     0.211 HD
ENDBRANCH  22  23
BRANCH  22  25
HETATM   25  C15 UNL     1      33.443  67.676  -8.186  1.00  0.00     0.064 A 
HETATM   26  C16 UNL     1      32.883  67.512  -9.426  1.00  0.00     0.118 A 
HETATM   27  N6  UNL     1      33.664  67.497 -10.550  1.00  0.00    -0.348 N 
HETATM   28  C17 UNL     1      34.995  67.639 -10.508  1.00  0.00     0.153 A 
ATOM     29  H6  UNL     1      33.213  67.374 -11.457  1.00  0.00     0.167 HD
HETATM   30  N7  UNL     1      35.769  67.626 -11.607  1.00  0.00    -0.174 N 
HETATM   31  C20 UNL     1      35.566  67.803  -9.266  1.00  0.00     0.147 A 
HETATM   32  C18 UNL     1      37.118  67.768 -11.553  1.00  0.00     0.680 A 
ATOM     33  H7  UNL     1      35.324  67.504 -12.517  1.00  0.00     0.186 HD
HETATM   34  N9  UNL     1      37.692  67.930 -10.346  1.00  0.00    -0.154 N 
HETATM   35  C19 UNL     1      36.941  67.948  -9.231  1.00  0.00     0.290 A 
ATOM     36  H9  UNL     1      38.704  68.040 -10.277  1.00  0.00     0.187 HD
HETATM   37  O10 UNL     1      37.472  68.099  -8.101  1.00  0.00    -0.265 OA
HETATM   38  N10 UNL     1      34.808  67.819  -8.162  1.00  0.00    -0.348 N 
ATOM     39  H10 UNL     1      35.268  67.942  -7.259  1.00  0.00     0.166 HD
BRANCH  32  40
HETATM   40  N8  UNL     1      37.830  67.750 -12.637  1.00  0.00    -0.234 N 
ATOM     41  H82 UNL     1      37.408  67.928 -13.548  1.00  0.00     0.174 HD
ATOM     42  H81 UNL     1      38.830  67.555 -12.599  1.00  0.00     0.174 HD
ENDBRANCH  32  40
ENDBRANCH  22  25
ENDBRANCH  19  22
ENDBRANCH  13  18
ENDBRANCH   8  11
ENDBRANCH   6   8
ENDBRANCH   5   6
ENDBRANCH   3   5
BRANCH   4  43
HETATM   43  O1  UNL     1      26.664  76.040  -2.499  1.00  0.00    -0.328 OA
BRANCH  43  44
HETATM   44  C4  UNL     1      26.963  75.106  -1.510  1.00  0.00     0.295 C 
HETATM   45  O2  UNL     1      28.320  75.066  -1.294  1.00  0.00    -0.356 OA
HETATM   46  C5  UNL     1      28.775  73.983  -0.588  1.00  0.00     0.205 C 
HETATM   47  C6  UNL     1      27.738  73.254   0.206  1.00  0.00     0.183 C 
HETATM   48  O3  UNL     1      27.183  74.004   1.262  1.00  0.00    -0.294 OA
HETATM   49  C8  UNL     1      26.601  72.811  -0.655  1.00  0.00     0.152 C 
HETATM   50  C7  UNL     1      25.847  73.610   1.403  1.00  0.00     0.361 C 
HETATM   51  O4  UNL     1      25.152  73.912   2.403  1.00  0.00    -0.238 OA
HETATM   52  N2  UNL     1      25.453  72.847   0.262  1.00  0.00    -0.327 N 
ATOM     53  H2  UNL     1      24.544  72.409   0.112  1.00  0.00     0.165 HD
HETATM   54  C9  UNL     1      26.370  73.747  -1.807  1.00  0.00     0.199 C 
BRANCH  54  55
HETATM   55  O5  UNL     1      26.755  73.225  -3.019  1.00  0.00    -0.388 OA
ATOM     56  H5  UNL     1      27.690  73.274  -3.180  1.00  0.00     0.210 HD
ENDBRANCH  54  55
ENDBRANCH  43  44
ENDBRANCH   4  43
TORSDOF 12
ENDMDL
MODEL 2
REMARK VINA RESULT: -10.353970344      2.745     13.186
REMARK  12 active torsions:
REMARK  status: ('A' for Active; 'I' for Inactive)
REMARK    1  A    between atoms: C2_3  and  C10_19 
REMARK    2  A    between atoms: C3_4  and  O1_5 
REMARK    3  A    between atoms: O1_5  and  C4_6 
REMARK    4  A    between atoms: C9_16  and  O5_17 
REMARK    5  A    between atoms: C10_19  and  N3_20 
REMARK    6  A    between atoms: N3_20  and  S1_22 
REMARK    7  A    between atoms: S1_22  and  N4_25 
REMARK    8  A    between atoms: C12_27  and  N5_28 
REMARK       I    between atoms: N5_28  and  C13_30 
REMARK    9  A    between atoms: C13_30  and  C14_32 
REMARK   10  A    between atoms: C14_32  and  O9_33 
REMARK   11  A    between atoms: C14_32  and  C15_35 
REMARK   12  A    between atoms: C18_42  and  N8_43 
ROOT
HETATM    1  N1  UNL     1      32.636  67.371  -5.478  1.00  0.00    -0.192 NA
HETATM    2  C1  UNL     1      33.044  67.620  -6.539  1.00  0.00     0.098 C 
HETATM    3  C2  UNL     1      33.574  67.922  -7.850  1.00  0.00     0.062 C 
HETATM    4  C3  UNL     1      34.829  67.696  -8.167  1.00  0.00     0.158 C 
ENDROOT
BRANCH   3   5
HETATM    5  C10 UNL     1      32.683  68.507  -8.895  1.00  0.00     0.185 C 
BRANCH   5   6
HETATM    6  N3  UNL     1      31.334  68.547  -8.412  1.00  0.00    -0.296 N 
ATOM      7  H3  UNL     1      30.726  67.743  -8.252  1.00  0.00     0.174 HD
BRANCH   6   8
HETATM    8  S1  UNL     1      30.922  70.208  -8.147  1.00  0.00     0.339 S 
HETATM    9  O6  UNL     1      29.736  70.527  -9.010  1.00  0.00    -0.181 OA
HETATM   10  O7  UNL     1      32.111  71.051  -8.515  1.00  0.00    -0.181 OA
BRANCH   8  11
HETATM   11  N4  UNL     1      30.516  70.403  -6.491  1.00  0.00    -0.170 N 
HETATM   12  C11 UNL     1      30.450  71.619  -5.882  1.00  0.00     0.166 A 
HETATM   13  C12 UNL     1      30.100  71.367  -4.580  1.00  0.00     0.123 A 
HETATM   14  C21 UNL     1      29.961  69.983  -4.427  1.00  0.00     0.289 A 
HETATM   15  O11 UNL     1      29.648  69.337  -3.381  1.00  0.00    -0.264 OA
HETATM   16  N11 UNL     1      30.227  69.453  -5.626  1.00  0.00    -0.247 N 
ATOM     17  H11 UNL     1      30.209  68.456  -5.840  1.00  0.00     0.191 HD
BRANCH  13  18
HETATM   18  N5  UNL     1      29.893  72.274  -3.501  1.00  0.00    -0.319 N 
HETATM   19  C13 UNL     1      28.676  72.929  -3.198  1.00  0.00     0.257 C 
HETATM   20  O8  UNL     1      27.665  72.717  -3.921  1.00  0.00    -0.270 OA
ATOM     21  H5  UNL     1      30.690  72.467  -2.895  1.00  0.00     0.169 HD
BRANCH  19  22
HETATM   22  C14 UNL     1      28.580  73.845  -2.068  1.00  0.00     0.261 C 
BRANCH  22  23
HETATM   23  O9  UNL     1      28.507  75.186  -2.510  1.00  0.00    -0.380 OA
ATOM     24  H9  UNL     1      29.327  75.640  -2.355  1.00  0.00     0.211 HD
ENDBRANCH  22  23
BRANCH  22  25
HETATM   25  C15 UNL     1      27.337  73.634  -1.284  1.00  0.00     0.064 A 
HETATM   26  C16 UNL     1      27.295  73.227   0.024  1.00  0.00     0.118 A 
HETATM   27  N6  UNL     1      26.098  73.067   0.668  1.00  0.00    -0.348 N 
HETATM   28  C17 UNL     1      24.919  73.294   0.072  1.00  0.00     0.153 A 
ATOM     29  H6  UNL     1      26.103  72.763   1.642  1.00  0.00     0.167 HD
HETATM   30  N7  UNL     1      23.740  73.140   0.698  1.00  0.00    -0.174 N 
HETATM   31  C20 UNL     1      24.954  73.703  -1.242  1.00  0.00     0.147 A 
HETATM   32  C18 UNL     1      22.552  73.371   0.084  1.00  0.00     0.680 A 
ATOM     33  H7  UNL     1      23.739  72.837   1.672  1.00  0.00     0.186 HD
HETATM   34  N9  UNL     1      22.567  73.772  -1.201  1.00  0.00    -0.154 N 
HETATM   35  C19 UNL     1      23.733  73.934  -1.849  1.00  0.00     0.290 A 
ATOM     36  H9  UNL     1      21.687  73.953  -1.686  1.00  0.00     0.187 HD
HETATM   37  O10 UNL     1      23.754  74.308  -3.050  1.00  0.00    -0.265 OA
HETATM   38  N10 UNL     1      26.121  73.861  -1.879  1.00  0.00    -0.348 N 
ATOM     39  H10 UNL     1      26.105  74.165  -2.853  1.00  0.00     0.166 HD
BRANCH  32  40
HETATM   40  N8  UNL     1      21.434  73.210   0.723  1.00  0.00    -0.234 N 
ATOM     41  H82 UNL     1      21.362  73.415   1.720  1.00  0.00     0.174 HD
ATOM     42  H81 UNL     1      20.601  72.873   0.239  1.00  0.00     0.174 HD
ENDBRANCH  32  40
ENDBRANCH  22  25
ENDBRANCH  19  22
ENDBRANCH  13  18
ENDBRANCH   8  11
ENDBRANCH   6   8
ENDBRANCH   5   6
ENDBRANCH   3   5
BRANCH   4  43
HETATM   43  O1  UNL     1      35.323  67.984  -9.412  1.00  0.00    -0.328 OA
BRANCH  43  44
HETATM   44  C4  UNL     1      35.821  67.075 -10.343  1.00  0.00     0.295 C 
HETATM   45  O2  UNL     1      36.309  65.962  -9.702  1.00  0.00    -0.356 OA
HETATM   46  C5  UNL     1      37.105  65.143 -10.462  1.00  0.00     0.205 C 
HETATM   47  C6  UNL     1      36.976  65.318 -11.941  1.00  0.00     0.183 C 
HETATM   48  O3  UNL     1      35.715  64.964 -12.460  1.00  0.00    -0.294 OA
HETATM   49  C8  UNL     1      37.230  66.732 -12.350  1.00  0.00     0.152 C 
HETATM   50  C7  UNL     1      35.450  65.811 -13.542  1.00  0.00     0.361 C 
HETATM   51  O4  UNL     1      34.525  65.596 -14.362  1.00  0.00    -0.238 OA
HETATM   52  N2  UNL     1      36.377  66.897 -13.535  1.00  0.00    -0.327 N 
ATOM     53  H2  UNL     1      36.435  67.648 -14.223  1.00  0.00     0.165 HD
HETATM   54  C9  UNL     1      36.824  67.708 -11.281  1.00  0.00     0.199 C 
BRANCH  54  55
HETATM   55  O5  UNL     1      37.892  68.292 -10.642  1.00  0.00    -0.388 OA
ATOM     56  H5  UNL     1      37.738  69.192 -10.379  1.00  0.00     0.210 HD
ENDBRANCH  54  55
ENDBRANCH  43  44
ENDBRANCH   4  43
TORSDOF 12
ENDMDL
MODEL 3
REMARK VINA RESULT: -10.294994456      2.694      5.333
REMARK  12 active torsions:
REMARK  status: ('A' for Active; 'I' for Inactive)
REMARK    1  A    between atoms: C2_3  and  C10_19 
REMARK    2  A    between atoms: C3_4  and  O1_5 
REMARK    3  A    between atoms: O1_5  and  C4_6 
REMARK    4  A    between atoms: C9_16  and  O5_17 
REMARK    5  A    between atoms: C10_19  and  N3_20 
REMARK    6  A    between atoms: N3_20  and  S1_22 
REMARK    7  A    between atoms: S1_22  and  N4_25 
REMARK    8  A    between atoms: C12_27  and  N5_28 
REMARK       I    between atoms: N5_28  and  C13_30 
REMARK    9  A    between atoms: C13_30  and  C14_32 
REMARK   10  A    between atoms: C14_32  and  O9_33 
REMARK   11  A    between atoms: C14_32  and  C15_35 
REMARK   12  A    between atoms: C18_42  and  N8_43 
ROOT
HETATM    1  N1  UNL     1      20.634  74.559   0.558  1.00  0.00    -0.192 NA
HETATM    2  C1  UNL     1      21.573  74.090   0.056  1.00  0.00     0.098 C 
HETATM    3  C2  UNL     1      22.753  73.509  -0.546  1.00  0.00     0.062 C 
HETATM    4  C3  UNL     1      23.837  73.247   0.151  1.00  0.00     0.158 C 
ENDROOT
BRANCH   3   5
HETATM    5  C10 UNL     1      22.761  73.186  -2.003  1.00  0.00     0.185 C 
BRANCH   5   6
HETATM    6  N3  UNL     1      22.552  74.383  -2.764  1.00  0.00    -0.296 N 
ATOM      7  H3  UNL     1      22.230  75.280  -2.401  1.00  0.00     0.174 HD
BRANCH   6   8
HETATM    8  S1  UNL     1      22.946  74.029  -4.412  1.00  0.00     0.339 S 
HETATM    9  O6  UNL     1      22.388  75.134  -5.262  1.00  0.00    -0.181 OA
HETATM   10  O7  UNL     1      22.335  72.702  -4.767  1.00  0.00    -0.181 OA
BRANCH   8  11
HETATM   11  N4  UNL     1      24.656  73.980  -4.557  1.00  0.00    -0.170 N 
HETATM   12  C11 UNL     1      25.408  72.939  -4.106  1.00  0.00     0.166 A 
HETATM   13  C12 UNL     1      26.708  73.263  -4.399  1.00  0.00     0.123 A 
HETATM   14  C21 UNL     1      26.714  74.511  -5.031  1.00  0.00     0.289 A 
HETATM   15  O11 UNL     1      27.710  75.167  -5.462  1.00  0.00    -0.264 OA
HETATM   16  N11 UNL     1      25.434  74.894  -5.097  1.00  0.00    -0.247 N 
ATOM     17  H11 UNL     1      25.107  75.769  -5.508  1.00  0.00     0.191 HD
BRANCH  13  18
HETATM   18  N5  UNL     1      27.907  72.534  -4.149  1.00  0.00    -0.319 N 
HETATM   19  C13 UNL     1      28.256  71.296  -4.738  1.00  0.00     0.257 C 
HETATM   20  O8  UNL     1      27.466  70.760  -5.561  1.00  0.00    -0.270 OA
ATOM     21  H5  UNL     1      28.570  72.940  -3.489  1.00  0.00     0.169 HD
BRANCH  19  22
HETATM   22  C14 UNL     1      29.511  70.635  -4.402  1.00  0.00     0.261 C 
BRANCH  22  23
HETATM   23  O9  UNL     1      29.279  69.333  -3.901  1.00  0.00    -0.380 OA
ATOM     24  H9  UNL     1      29.942  69.090  -3.267  1.00  0.00     0.211 HD
ENDBRANCH  22  23
BRANCH  22  25
HETATM   25  C15 UNL     1      30.373  70.435  -5.595  1.00  0.00     0.064 A 
HETATM   26  C16 UNL     1      30.488  71.320  -6.636  1.00  0.00     0.118 A 
HETATM   27  N6  UNL     1      31.316  71.052  -7.693  1.00  0.00    -0.348 N 
HETATM   28  C17 UNL     1      32.048  69.932  -7.772  1.00  0.00     0.153 A 
ATOM     29  H6  UNL     1      31.378  71.732  -8.450  1.00  0.00     0.167 HD
HETATM   30  N7  UNL     1      32.863  69.663  -8.806  1.00  0.00    -0.174 N 
HETATM   31  C20 UNL     1      31.937  69.039  -6.731  1.00  0.00     0.147 A 
HETATM   32  C18 UNL     1      33.600  68.525  -8.878  1.00  0.00     0.680 A 
ATOM     33  H7  UNL     1      32.931  70.340  -9.566  1.00  0.00     0.186 HD
HETATM   34  N9  UNL     1      33.503  67.640  -7.868  1.00  0.00    -0.154 N 
HETATM   35  C19 UNL     1      32.696  67.886  -6.822  1.00  0.00     0.290 A 
ATOM     36  H9  UNL     1      34.047  66.777  -7.896  1.00  0.00     0.187 HD
HETATM   37  O10 UNL     1      32.601  67.063  -5.875  1.00  0.00    -0.265 OA
HETATM   38  N10 UNL     1      31.129  69.294  -5.694  1.00  0.00    -0.348 N 
ATOM     39  H10 UNL     1      31.073  68.607  -4.942  1.00  0.00     0.166 HD
BRANCH  32  40
HETATM   40  N8  UNL     1      34.375  68.300  -9.893  1.00  0.00    -0.234 N 
ATOM     41  H82 UNL     1      34.454  68.974 -10.656  1.00  0.00     0.174 HD
ATOM     42  H81 UNL     1      34.924  67.442  -9.950  1.00  0.00     0.174 HD
ENDBRANCH  32  40
ENDBRANCH  22  25
ENDBRANCH  19  22
ENDBRANCH  13  18
ENDBRANCH   8  11
ENDBRANCH   6   8
ENDBRANCH   5   6
ENDBRANCH   3   5
BRANCH   4  43
HETATM   43  O1  UNL     1      24.950  72.695  -0.427  1.00  0.00    -0.328 OA
BRANCH  43  44
HETATM   44  C4  UNL     1      26.194  73.301  -0.587  1.00  0.00     0.295 C 
HETATM   45  O2  UNL     1      27.115  72.380  -1.026  1.00  0.00    -0.356 OA
HETATM   46  C5  UNL     1      28.428  72.759  -0.921  1.00  0.00     0.205 C 
HETATM   47  C6  UNL     1      28.660  74.228  -0.771  1.00  0.00     0.183 C 
HETATM   48  O3  UNL     1      28.286  74.993  -1.894  1.00  0.00    -0.294 OA
HETATM   49  C8  UNL     1      27.915  74.784   0.398  1.00  0.00     0.152 C 
HETATM   50  C7  UNL     1      27.829  76.231  -1.430  1.00  0.00     0.361 C 
HETATM   51  O4  UNL     1      27.653  77.217  -2.186  1.00  0.00    -0.238 OA
HETATM   52  N2  UNL     1      27.616  76.162  -0.019  1.00  0.00    -0.327 N 
ATOM     53  H2  UNL     1      27.313  76.925   0.585  1.00  0.00     0.165 HD
HETATM   54  C9  UNL     1      26.638  74.035   0.658  1.00  0.00     0.199 C 
BRANCH  54  55
HETATM   55  O5  UNL     1      26.689  73.246   1.782  1.00  0.00    -0.388 OA
ATOM     56  H5  UNL     1      27.281  72.506   1.706  1.00  0.00     0.210 HD
ENDBRANCH  54  55
ENDBRANCH  43  44
ENDBRANCH   4  43
TORSDOF 12
ENDMDL
MODEL 4
REMARK VINA RESULT: -10.230707862      1.766      2.241
REMARK  12 active torsions:
REMARK  status: ('A' for Active; 'I' for Inactive)
REMARK    1  A    between atoms: C2_3  and  C10_19 
REMARK    2  A    between atoms: C3_4  and  O1_5 
REMARK    3  A    between atoms: O1_5  and  C4_6 
REMARK    4  A    between atoms: C9_16  and  O5_17 
REMARK    5  A    between atoms: C10_19  and  N3_20 
REMARK    6  A    between atoms: N3_20  and  S1_22 
REMARK    7  A    between atoms: S1_22  and  N4_25 
REMARK    8  A    between atoms: C12_27  and  N5_28 
REMARK       I    between atoms: N5_28  and  C13_30 
REMARK    9  A    between atoms: C13_30  and  C14_32 
REMARK   10  A    between atoms: C14_32  and  O9_33 
REMARK   11  A    between atoms: C14_32  and  C15_35 
REMARK   12  A    between atoms: C18_42  and  N8_43 
ROOT
HETATM    1  N1  UNL     1      30.221  77.626  -7.008  1.00  0.00    -0.192 NA
HETATM    2  C1  UNL     1      29.354  77.195  -6.364  1.00  0.00     0.098 C 
HETATM    3  C2  UNL     1      28.280  76.677  -5.545  1.00  0.00     0.062 C 
HETATM    4  C3  UNL     1      27.948  77.225  -4.397  1.00  0.00     0.158 C 
ENDROOT
BRANCH   3   5
HETATM    5  C10 UNL     1      27.509  75.482  -6.000  1.00  0.00     0.185 C 
BRANCH   5   6
HETATM    6  N3  UNL     1      28.415  74.421  -6.331  1.00  0.00    -0.296 N 
ATOM      7  H3  UNL     1      29.405  74.520  -6.553  1.00  0.00     0.174 HD
BRANCH   6   8
HETATM    8  S1  UNL     1      27.520  72.939  -6.287  1.00  0.00     0.339 S 
HETATM    9  O6  UNL     1      27.069  72.636  -7.687  1.00  0.00    -0.181 OA
HETATM   10  O7  UNL     1      26.349  73.124  -5.362  1.00  0.00    -0.181 OA
BRANCH   8  11
HETATM   11  N4  UNL     1      28.563  71.699  -5.722  1.00  0.00    -0.170 N 
HETATM   12  C11 UNL     1      29.749  71.398  -6.319  1.00  0.00     0.166 A 
HETATM   13  C12 UNL     1      30.285  70.369  -5.588  1.00  0.00     0.123 A 
HETATM   14  C21 UNL     1      29.399  70.064  -4.549  1.00  0.00     0.289 A 
HETATM   15  O11 UNL     1      29.518  69.177  -3.651  1.00  0.00    -0.264 OA
HETATM   16  N11 UNL     1      28.370  70.909  -4.686  1.00  0.00    -0.247 N 
ATOM     17  H11 UNL     1      27.554  70.938  -4.075  1.00  0.00     0.191 HD
BRANCH  13  18
HETATM   18  N5  UNL     1      31.512  69.667  -5.769  1.00  0.00    -0.319 N 
HETATM   19  C13 UNL     1      31.706  68.552  -6.618  1.00  0.00     0.257 C 
HETATM   20  O8  UNL     1      30.734  68.114  -7.291  1.00  0.00    -0.270 OA
ATOM     21  H5  UNL     1      32.319  69.996  -5.240  1.00  0.00     0.169 HD
BRANCH  19  22
HETATM   22  C14 UNL     1      33.008  67.907  -6.720  1.00  0.00     0.261 C 
BRANCH  22  23
HETATM   23  O9  UNL     1      32.881  66.500  -6.663  1.00  0.00    -0.380 OA
ATOM     24  H9  UNL     1      32.917  66.120  -7.533  1.00  0.00     0.211 HD
ENDBRANCH  22  23
BRANCH  22  25
HETATM   25  C15 UNL     1      33.664  68.177  -8.026  1.00  0.00     0.064 A 
HETATM   26  C16 UNL     1      33.184  69.034  -8.981  1.00  0.00     0.118 A 
HETATM   27  N6  UNL     1      33.863  69.225 -10.154  1.00  0.00    -0.348 N 
HETATM   28  C17 UNL     1      35.014  68.599 -10.433  1.00  0.00     0.153 A 
ATOM     29  H6  UNL     1      33.477  69.870 -10.843  1.00  0.00     0.167 HD
HETATM   30  N7  UNL     1      35.687  68.781 -11.582  1.00  0.00    -0.174 N 
HETATM   31  C20 UNL     1      35.503  67.736  -9.478  1.00  0.00     0.147 A 
HETATM   32  C18 UNL     1      36.852  68.141 -11.856  1.00  0.00     0.680 A 
ATOM     33  H7  UNL     1      35.307  69.427 -12.275  1.00  0.00     0.186 HD
HETATM   34  N9  UNL     1      37.344  67.293 -10.933  1.00  0.00    -0.154 N 
HETATM   35  C19 UNL     1      36.691  67.094  -9.775  1.00  0.00     0.290 A 
ATOM     36  H9  UNL     1      38.219  66.800 -11.113  1.00  0.00     0.187 HD
HETATM   37  O10 UNL     1      37.145  66.303  -8.909  1.00  0.00    -0.265 OA
HETATM   38  N10 UNL     1      34.843  67.544  -8.329  1.00  0.00    -0.348 N 
ATOM     39  H10 UNL     1      35.237  66.896  -7.646  1.00  0.00     0.166 HD
BRANCH  32  40
HETATM   40  N8  UNL     1      37.472  68.344 -12.978  1.00  0.00    -0.234 N 
ATOM     41  H82 UNL     1      37.937  67.580 -13.469  1.00  0.00     0.174 HD
ATOM     42  H81 UNL     1      37.507  69.275 -13.392  1.00  0.00     0.174 HD
ENDBRANCH  32  40
ENDBRANCH  22  25
ENDBRANCH  19  22
ENDBRANCH  13  18
ENDBRANCH   8  11
ENDBRANCH   6   8
ENDBRANCH   5   6
ENDBRANCH   3   5
BRANCH   4  43
HETATM   43  O1  UNL     1      26.929  76.728  -3.628  1.00  0.00    -0.328 OA
BRANCH  43  44
HETATM   44  C4  UNL     1      26.978  75.608  -2.801  1.00  0.00     0.295 C 
HETATM   45  O2  UNL     1      25.726  75.051  -2.685  1.00  0.00    -0.356 OA
HETATM   46  C5  UNL     1      25.572  74.150  -1.663  1.00  0.00     0.205 C 
HETATM   47  C6  UNL     1      26.840  73.578  -1.116  1.00  0.00     0.183 C 
HETATM   48  O3  UNL     1      27.556  72.777  -2.028  1.00  0.00    -0.294 OA
HETATM   49  C8  UNL     1      27.773  74.651  -0.660  1.00  0.00     0.152 C 
HETATM   50  C7  UNL     1      28.919  72.941  -1.757  1.00  0.00     0.361 C 
HETATM   51  O4  UNL     1      29.801  72.185  -2.229  1.00  0.00    -0.238 OA
HETATM   52  N2  UNL     1      29.100  74.064  -0.893  1.00  0.00    -0.327 N 
ATOM     53  H2  UNL     1      29.985  74.396  -0.510  1.00  0.00     0.165 HD
HETATM   54  C9  UNL     1      27.618  75.911  -1.464  1.00  0.00     0.199 C 
BRANCH  54  55
HETATM   55  O5  UNL     1      27.005  76.928  -0.772  1.00  0.00    -0.388 OA
ATOM     56  H5  UNL     1      27.450  77.169   0.032  1.00  0.00     0.210 HD
ENDBRANCH  54  55
ENDBRANCH  43  44
ENDBRANCH   4  43
TORSDOF 12
ENDMDL
MODEL 5
REMARK VINA RESULT: -10.209798228      2.451      2.934
REMARK  12 active torsions:
REMARK  status: ('A' for Active; 'I' for Inactive)
REMARK    1  A    between atoms: C2_3  and  C10_19 
REMARK    2  A    between atoms: C3_4  and  O1_5 
REMARK    3  A    between atoms: O1_5  and  C4_6 
REMARK    4  A    between atoms: C9_16  and  O5_17 
REMARK    5  A    between atoms: C10_19  and  N3_20 
REMARK    6  A    between atoms: N3_20  and  S1_22 
REMARK    7  A    between atoms: S1_22  and  N4_25 
REMARK    8  A    between atoms: C12_27  and  N5_28 
REMARK       I    between atoms: N5_28  and  C13_30 
REMARK    9  A    between atoms: C13_30  and  C14_32 
REMARK   10  A    between atoms: C14_32  and  O9_33 
REMARK   11  A    between atoms: C14_32  and  C15_35 
REMARK   12  A    between atoms: C18_42  and  N8_43 
ROOT
HETATM    1  N1  UNL     1      31.079  74.498  -7.739  1.00  0.00    -0.192 NA
HETATM    2  C1  UNL     1      30.279  74.522  -6.895  1.00  0.00     0.098 C 
HETATM    3  C2  UNL     1      29.303  74.557  -5.828  1.00  0.00     0.062 C 
HETATM    4  C3  UNL     1      29.631  74.841  -4.588  1.00  0.00     0.158 C 
ENDROOT
BRANCH   3   5
HETATM    5  C10 UNL     1      27.869  74.266  -6.124  1.00  0.00     0.185 C 
BRANCH   5   6
HETATM    6  N3  UNL     1      27.781  73.253  -7.135  1.00  0.00    -0.296 N 
ATOM      7  H3  UNL     1      27.892  73.392  -8.140  1.00  0.00     0.174 HD
BRANCH   6   8
HETATM    8  S1  UNL     1      27.451  71.750  -6.341  1.00  0.00     0.339 S 
HETATM    9  O6  UNL     1      26.526  70.962  -7.223  1.00  0.00    -0.181 OA
HETATM   10  O7  UNL     1      26.818  72.050  -5.011  1.00  0.00    -0.181 OA
BRANCH   8  11
HETATM   11  N4  UNL     1      28.935  70.911  -6.144  1.00  0.00    -0.170 N 
HETATM   12  C11 UNL     1      29.906  70.887  -7.097  1.00  0.00     0.166 A 
HETATM   13  C12 UNL     1      30.922  70.126  -6.578  1.00  0.00     0.123 A 
HETATM   14  C21 UNL     1      30.539  69.700  -5.301  1.00  0.00     0.289 A 
HETATM   15  O11 UNL     1      31.190  68.979  -4.487  1.00  0.00    -0.264 OA
HETATM   16  N11 UNL     1      29.319  70.211  -5.096  1.00  0.00    -0.247 N 
ATOM     17  H11 UNL     1      28.766  70.078  -4.250  1.00  0.00     0.191 HD
BRANCH  13  18
HETATM   18  N5  UNL     1      32.179  69.773  -7.149  1.00  0.00    -0.319 N 
HETATM   19  C13 UNL     1      32.554  68.479  -7.579  1.00  0.00     0.257 C 
HETATM   20  O8  UNL     1      31.733  67.530  -7.465  1.00  0.00    -0.270 OA
ATOM     21  H5  UNL     1      32.867  70.519  -7.257  1.00  0.00     0.169 HD
BRANCH  19  22
HETATM   22  C14 UNL     1      33.874  68.232  -8.146  1.00  0.00     0.261 C 
BRANCH  22  23
HETATM   23  O9  UNL     1      34.484  67.111  -7.537  1.00  0.00    -0.380 OA
ATOM     24  H9  UNL     1      35.182  67.380  -6.953  1.00  0.00     0.211 HD
ENDBRANCH  22  23
BRANCH  22  25
HETATM   25  C15 UNL     1      33.805  67.890  -9.590  1.00  0.00     0.064 A 
HETATM   26  C16 UNL     1      33.094  68.591 -10.529  1.00  0.00     0.118 A 
HETATM   27  N6  UNL     1      33.097  68.203 -11.842  1.00  0.00    -0.348 N 
HETATM   28  C17 UNL     1      33.782  67.138 -12.279  1.00  0.00     0.153 A 
ATOM     29  H6  UNL     1      32.557  68.748 -12.513  1.00  0.00     0.167 HD
HETATM   30  N7  UNL     1      33.790  66.752 -13.566  1.00  0.00    -0.174 N 
HETATM   31  C20 UNL     1      34.499  66.429 -11.342  1.00  0.00     0.147 A 
HETATM   32  C18 UNL     1      34.486  65.670 -14.000  1.00  0.00     0.680 A 
ATOM     33  H7  UNL     1      33.253  67.293 -14.244  1.00  0.00     0.186 HD
HETATM   34  N9  UNL     1      35.194  64.965 -13.097  1.00  0.00    -0.154 N 
HETATM   35  C19 UNL     1      35.202  65.331 -11.803  1.00  0.00     0.290 A 
ATOM     36  H9  UNL     1      35.726  64.148 -13.396  1.00  0.00     0.187 HD
HETATM   37  O10 UNL     1      35.861  64.677 -10.954  1.00  0.00    -0.265 OA
HETATM   38  N10 UNL     1      34.500  66.802 -10.057  1.00  0.00    -0.348 N 
ATOM     39  H10 UNL     1      35.043  66.251  -9.392  1.00  0.00     0.166 HD
BRANCH  32  40
HETATM   40  N8  UNL     1      34.469  65.329 -15.251  1.00  0.00    -0.234 N 
ATOM     41  H82 UNL     1      33.854  65.797 -15.917  1.00  0.00     0.174 HD
ATOM     42  H81 UNL     1      35.072  64.582 -15.596  1.00  0.00     0.174 HD
ENDBRANCH  32  40
ENDBRANCH  22  25
ENDBRANCH  19  22
ENDBRANCH  13  18
ENDBRANCH   8  11
ENDBRANCH   6   8
ENDBRANCH   5   6
ENDBRANCH   3   5
BRANCH   4  43
HETATM   43  O1  UNL     1      28.700  74.873  -3.583  1.00  0.00    -0.328 OA
BRANCH  43  44
HETATM   44  C4  UNL     1      28.711  74.120  -2.411  1.00  0.00     0.295 C 
HETATM   45  O2  UNL     1      29.301  72.900  -2.639  1.00  0.00    -0.356 OA
HETATM   46  C5  UNL     1      29.095  71.953  -1.669  1.00  0.00     0.205 C 
HETATM   47  C6  UNL     1      28.655  72.480  -0.342  1.00  0.00     0.183 C 
HETATM   48  O3  UNL     1      29.615  73.277   0.313  1.00  0.00    -0.294 OA
HETATM   49  C8  UNL     1      27.417  73.306  -0.463  1.00  0.00     0.152 C 
HETATM   50  C7  UNL     1      28.927  74.256   1.039  1.00  0.00     0.361 C 
HETATM   51  O4  UNL     1      29.479  74.966   1.915  1.00  0.00    -0.238 OA
HETATM   52  N2  UNL     1      27.563  74.290   0.619  1.00  0.00    -0.327 N 
ATOM     53  H2  UNL     1      26.827  74.886   0.999  1.00  0.00     0.165 HD
HETATM   54  C9  UNL     1      27.337  74.007  -1.791  1.00  0.00     0.199 C 
BRANCH  54  55
HETATM   55  O5  UNL     1      26.388  73.474  -2.631  1.00  0.00    -0.388 OA
ATOM     56  H5  UNL     1      26.492  73.731  -3.540  1.00  0.00     0.210 HD
ENDBRANCH  54  55
ENDBRANCH  43  44
ENDBRANCH   4  43
TORSDOF 12
ENDMDL
