MODEL 1
REMARK VINA RESULT: -8.746370141      0.000      0.000
REMARK  12 active torsions:
REMARK  status: ('A' for Active; 'I' for Inactive)
REMARK    1  A    between atoms: N1_2  and  C2_5 
REMARK    2  A    between atoms: C4_9  and  C5_10 
REMARK    3  A    between atoms: C6_13  and  S1_14 
REMARK    4  A    between atoms: S1_14  and  S2_15 
REMARK    5  A    between atoms: S2_15  and  C7_16 
REMARK    6  A    between atoms: C9_21  and  N4_22 
REMARK    7  A    between atoms: C10_26  and  N5_27 
REMARK    8  A    between atoms: N5_27  and  C11_29 
REMARK    9  A    between atoms: C11_29  and  C12_33 
REMARK   10  A    between atoms: N8_37  and  C14_38 
REMARK   11  A    between atoms: C16_45  and  N11_46 
REMARK   12  A    between atoms: C18_52  and  C19_53 
ROOT
HETATM    1  C7  UNL     1      25.994  71.547  -6.368  1.00  0.00     0.282 C 
HETATM    2  N3  UNL     1      24.598  71.450  -6.772  1.00  0.00    -0.057 N 
ATOM      3  H31 UNL     1      23.978  71.051  -6.067  1.00  0.00     0.278 HD
ATOM      4  H32 UNL     1      24.410  70.745  -7.486  1.00  0.00     0.278 HD
HETATM    5  C8  UNL     1      24.270  72.823  -7.169  1.00  0.00     0.268 C 
HETATM    6  C9  UNL     1      24.821  73.593  -5.970  1.00  0.00     0.234 C 
HETATM    7  C10 UNL     1      26.164  72.912  -5.785  1.00  0.00     0.156 C 
ENDROOT
BRANCH   7   8
HETATM    8  N5  UNL     1      26.541  72.895  -4.380  1.00  0.00    -0.366 N 
ATOM      9  H5  UNL     1      25.965  72.430  -3.678  1.00  0.00     0.161 HD
BRANCH   8  10
HETATM   10  C11 UNL     1      27.744  73.554  -4.035  1.00  0.00     0.108 C 
HETATM   11  N6  UNL     1      28.697  72.827  -3.548  1.00  0.00    -0.385 N 
ATOM     12  H62 UNL     1      28.563  71.824  -3.427  1.00  0.00     0.157 HD
ATOM     13  H61 UNL     1      29.564  73.303  -3.299  1.00  0.00     0.157 HD
BRANCH  10  14
HETATM   14  C12 UNL     1      27.933  74.985  -4.208  1.00  0.00     0.042 A 
HETATM   15  C13 UNL     1      27.452  75.973  -3.399  1.00  0.00     0.124 A 
HETATM   16  N7  UNL     1      27.874  77.138  -3.940  1.00  0.00    -0.290 N 
HETATM   17  N8  UNL     1      28.577  76.930  -5.020  1.00  0.00    -0.096 N 
ATOM     18  H7  UNL     1      27.669  78.059  -3.554  1.00  0.00     0.187 HD
HETATM   19  C17 UNL     1      28.639  75.588  -5.224  1.00  0.00     0.151 A 
BRANCH  17  20
HETATM   20  C14 UNL     1      29.172  77.924  -5.836  1.00  0.00     0.721 A 
HETATM   21  N9  UNL     1      28.988  77.911  -7.183  1.00  0.00    -0.138 N 
HETATM   22  C15 UNL     1      29.550  78.852  -7.964  1.00  0.00     0.352 A 
ATOM     23  H9  UNL     1      28.417  77.179  -7.606  1.00  0.00     0.189 HD
HETATM   24  O4  UNL     1      29.374  78.834  -9.217  1.00  0.00    -0.246 OA
HETATM   25  N10 UNL     1      30.306  79.828  -7.429  1.00  0.00    -0.141 N 
HETATM   26  C16 UNL     1      30.497  79.856  -6.110  1.00  0.00     0.694 A 
ATOM     27  H10 UNL     1      30.728  80.539  -8.026  1.00  0.00     0.189 HD
HETATM   28  N12 UNL     1      29.931  78.909  -5.323  1.00  0.00    -0.020 N 
ATOM     29  H12 UNL     1      30.085  78.943  -4.315  1.00  0.00     0.203 HD
BRANCH  26  30
HETATM   30  N11 UNL     1      31.221  80.784  -5.556  1.00  0.00    -0.234 N 
ATOM     31 2H11 UNL     1      30.783  81.673  -5.314  1.00  0.00     0.174 HD
ATOM     32 1H11 UNL     1      32.211  80.635  -5.363  1.00  0.00     0.174 HD
ENDBRANCH  26  30
ENDBRANCH  17  20
ENDBRANCH  10  14
ENDBRANCH   8  10
ENDBRANCH   7   8
BRANCH   1  33
HETATM   33  S2  UNL     1      27.102  71.335  -7.782  1.00  0.00    -0.057 SA
BRANCH  33  34
HETATM   34  S1  UNL     1      29.045  72.139  -7.329  1.00  0.00    -0.056 SA
BRANCH  34  35
HETATM   35  C6  UNL     1      30.255  70.924  -7.824  1.00  0.00     0.046 C 
HETATM   36  C4  UNL     1      30.827  70.164  -6.948  1.00  0.00     0.131 C 
HETATM   37  N2  UNL     1      31.803  69.164  -7.323  1.00  0.00    -0.292 N 
HETATM   38  C3  UNL     1      32.275  67.856  -7.079  1.00  0.00     0.259 C 
HETATM   39  C20 UNL     1      32.786  69.427  -8.371  1.00  0.00     0.196 C 
HETATM   40  C2  UNL     1      33.155  67.965  -8.291  1.00  0.00     0.310 C 
HETATM   41  O1  UNL     1      32.088  66.928  -6.224  1.00  0.00    -0.271 OA
HETATM   42  S3  UNL     1      31.838  69.892  -9.847  1.00  0.00    -0.121 SA
HETATM   43  C18 UNL     1      30.546  70.981  -9.288  1.00  0.00     0.181 C 
BRANCH  36  44
HETATM   44  C5  UNL     1      30.568  70.280  -5.523  1.00  0.00     0.228 C 
HETATM   45  O2  UNL     1      30.090  69.303  -4.912  1.00  0.00    -0.643 OA
HETATM   46  O3  UNL     1      30.822  71.429  -4.780  1.00  0.00    -0.643 OA
ENDBRANCH  36  44
BRANCH  40  47
HETATM   47  N1  UNL     1      34.552  67.724  -7.968  1.00  0.00    -0.063 N 
HETATM   48  C1  UNL     1      35.294  67.410  -9.164  1.00  0.00     0.268 C 
ATOM     49  H12 UNL     1      34.660  67.003  -7.254  1.00  0.00     0.277 HD
ATOM     50  H11 UNL     1      34.965  68.504  -7.457  1.00  0.00     0.277 HD
ENDBRANCH  40  47
BRANCH  43  51
HETATM   51  C19 UNL     1      30.817  72.407  -9.603  1.00  0.00     0.250 C 
HETATM   52  N13 UNL     1      30.052  73.028 -10.627  1.00  0.00    -0.061 NA
HETATM   53  O5  UNL     1      31.687  73.096  -9.015  1.00  0.00    -0.275 OA
ENDBRANCH  43  51
ENDBRANCH  34  35
ENDBRANCH  33  34
ENDBRANCH   1  33
BRANCH   6  54
HETATM   54  N4  UNL     1      25.060  74.985  -6.302  1.00  0.00    -0.071 N 
ATOM     55  H43 UNL     1      24.191  75.470  -6.528  1.00  0.00     0.274 HD
ATOM     56  H42 UNL     1      25.333  75.524  -5.481  1.00  0.00     0.274 HD
ATOM     57  H41 UNL     1      25.744  75.075  -7.054  1.00  0.00     0.274 HD
ENDBRANCH   6  54
TORSDOF 12
ENDMDL
MODEL 2
REMARK VINA RESULT: -8.695590157      2.105      3.228
REMARK  12 active torsions:
REMARK  status: ('A' for Active; 'I' for Inactive)
REMARK    1  A    between atoms: N1_2  and  C2_5 
REMARK    2  A    between atoms: C4_9  and  C5_10 
REMARK    3  A    between atoms: C6_13  and  S1_14 
REMARK    4  A    between atoms: S1_14  and  S2_15 
REMARK    5  A    between atoms: S2_15  and  C7_16 
REMARK    6  A    between atoms: C9_21  and  N4_22 
REMARK    7  A    between atoms: C10_26  and  N5_27 
REMARK    8  A    between atoms: N5_27  and  C11_29 
REMARK    9  A    between atoms: C11_29  and  C12_33 
REMARK   10  A    between atoms: N8_37  and  C14_38 
REMARK   11  A    between atoms: C16_45  and  N11_46 
REMARK   12  A    between atoms: C18_52  and  C19_53 
ROOT
HETATM    1  C7  UNL     1      28.123  70.851  -7.313  1.00  0.00     0.282 C 
HETATM    2  N3  UNL     1      26.776  70.423  -7.664  1.00  0.00    -0.057 N 
ATOM      3  H31 UNL     1      26.348  69.778  -7.000  1.00  0.00     0.278 HD
ATOM      4  H32 UNL     1      26.725  69.793  -8.466  1.00  0.00     0.278 HD
HETATM    5  C8  UNL     1      26.058  71.691  -7.836  1.00  0.00     0.268 C 
HETATM    6  C9  UNL     1      26.481  72.418  -6.561  1.00  0.00     0.234 C 
HETATM    7  C10 UNL     1      27.969  72.120  -6.540  1.00  0.00     0.156 C 
ENDROOT
BRANCH   7   8
HETATM    8  N5  UNL     1      28.453  72.024  -5.173  1.00  0.00    -0.366 N 
ATOM      9  H5  UNL     1      28.116  71.301  -4.536  1.00  0.00     0.161 HD
BRANCH   8  10
HETATM   10  C11 UNL     1      29.414  72.980  -4.768  1.00  0.00     0.108 C 
HETATM   11  N6  UNL     1      30.538  72.532  -4.312  1.00  0.00    -0.385 N 
ATOM     12  H62 UNL     1      30.703  71.527  -4.256  1.00  0.00     0.157 HD
ATOM     13  H61 UNL     1      31.231  73.222  -4.020  1.00  0.00     0.157 HD
BRANCH  10  14
HETATM   14  C12 UNL     1      29.178  74.413  -4.847  1.00  0.00     0.042 A 
HETATM   15  C13 UNL     1      28.407  75.159  -4.002  1.00  0.00     0.124 A 
HETATM   16  N7  UNL     1      28.481  76.430  -4.455  1.00  0.00    -0.290 N 
HETATM   17  N8  UNL     1      29.240  76.512  -5.514  1.00  0.00    -0.096 N 
ATOM     18  H7  UNL     1      28.005  77.223  -4.024  1.00  0.00     0.187 HD
HETATM   19  C17 UNL     1      29.698  75.264  -5.795  1.00  0.00     0.151 A 
BRANCH  17  20
HETATM   20  C14 UNL     1      29.535  77.691  -6.243  1.00  0.00     0.721 A 
HETATM   21  N9  UNL     1      29.125  77.824  -7.533  1.00  0.00    -0.138 N 
HETATM   22  C15 UNL     1      29.402  78.939  -8.232  1.00  0.00     0.352 A 
ATOM     23  H9  UNL     1      28.602  77.068  -7.976  1.00  0.00     0.189 HD
HETATM   24  O4  UNL     1      29.017  79.057  -9.432  1.00  0.00    -0.246 OA
HETATM   25  N10 UNL     1      30.089  79.950  -7.669  1.00  0.00    -0.141 N 
HETATM   26  C16 UNL     1      30.499  79.837  -6.406  1.00  0.00     0.694 A 
ATOM     27  H10 UNL     1      30.295  80.795  -8.205  1.00  0.00     0.189 HD
HETATM   28  N12 UNL     1      30.220  78.713  -5.702  1.00  0.00    -0.020 N 
ATOM     29  H12 UNL     1      30.539  78.640  -4.736  1.00  0.00     0.203 HD
BRANCH  26  30
HETATM   30  N11 UNL     1      31.165  80.793  -5.828  1.00  0.00    -0.234 N 
ATOM     31 2H11 UNL     1      30.926  81.761  -6.042  1.00  0.00     0.174 HD
ATOM     32 1H11 UNL     1      31.918  80.587  -5.171  1.00  0.00     0.174 HD
ENDBRANCH  26  30
ENDBRANCH  17  20
ENDBRANCH  10  14
ENDBRANCH   8  10
ENDBRANCH   7   8
BRANCH   1  33
HETATM   33  S2  UNL     1      29.125  71.143  -8.791  1.00  0.00    -0.057 SA
BRANCH  33  34
HETATM   34  S1  UNL     1      31.144  71.632  -8.235  1.00  0.00    -0.056 SA
BRANCH  34  35
HETATM   35  C6  UNL     1      32.177  70.255  -8.709  1.00  0.00     0.046 C 
HETATM   36  C4  UNL     1      32.486  70.056  -9.948  1.00  0.00     0.131 C 
HETATM   37  N2  UNL     1      33.330  68.954 -10.358  1.00  0.00    -0.292 N 
HETATM   38  C3  UNL     1      34.367  68.550 -11.227  1.00  0.00     0.259 C 
HETATM   39  C20 UNL     1      33.215  67.643  -9.727  1.00  0.00     0.196 C 
HETATM   40  C2  UNL     1      34.468  67.254 -10.475  1.00  0.00     0.310 C 
HETATM   41  O1  UNL     1      34.996  69.021 -12.233  1.00  0.00    -0.271 OA
HETATM   42  S3  UNL     1      33.446  67.916  -7.949  1.00  0.00    -0.121 SA
HETATM   43  C18 UNL     1      32.526  69.386  -7.546  1.00  0.00     0.181 C 
BRANCH  36  44
HETATM   44  C5  UNL     1      31.982  70.891 -11.025  1.00  0.00     0.228 C 
HETATM   45  O2  UNL     1      30.981  70.514 -11.667  1.00  0.00    -0.643 OA
HETATM   46  O3  UNL     1      32.552  72.106 -11.397  1.00  0.00    -0.643 OA
ENDBRANCH  36  44
BRANCH  40  47
HETATM   47  N1  UNL     1      34.302  66.106 -11.353  1.00  0.00    -0.063 N 
HETATM   48  C1  UNL     1      35.477  65.271 -11.309  1.00  0.00     0.268 C 
ATOM     49  H12 UNL     1      34.069  66.385 -12.306  1.00  0.00     0.277 HD
ATOM     50  H11 UNL     1      33.454  65.582 -11.138  1.00  0.00     0.277 HD
ENDBRANCH  40  47
BRANCH  43  51
HETATM   51  C19 UNL     1      31.249  69.094  -6.845  1.00  0.00     0.250 C 
HETATM   52  N13 UNL     1      30.985  69.762  -5.619  1.00  0.00    -0.061 NA
HETATM   53  O5  UNL     1      30.389  68.287  -7.276  1.00  0.00    -0.275 OA
ENDBRANCH  43  51
ENDBRANCH  34  35
ENDBRANCH  33  34
ENDBRANCH   1  33
BRANCH   6  54
HETATM   54  N4  UNL     1      26.308  73.853  -6.691  1.00  0.00    -0.071 N 
ATOM     55  H43 UNL     1      26.454  74.162  -7.653  1.00  0.00     0.274 HD
ATOM     56  H42 UNL     1      25.330  74.123  -6.586  1.00  0.00     0.274 HD
ATOM     57  H41 UNL     1      26.908  74.359  -6.040  1.00  0.00     0.274 HD
ENDBRANCH   6  54
TORSDOF 12
ENDMDL
MODEL 3
REMARK VINA RESULT: -8.682894616      3.023      5.119
REMARK  12 active torsions:
REMARK  status: ('A' for Active; 'I' for Inactive)
REMARK    1  A    between atoms: N1_2  and  C2_5 
REMARK    2  A    between atoms: C4_9  and  C5_10 
REMARK    3  A    between atoms: C6_13  and  S1_14 
REMARK    4  A    between atoms: S1_14  and  S2_15 
REMARK    5  A    between atoms: S2_15  and  C7_16 
REMARK    6  A    between atoms: C9_21  and  N4_22 
REMARK    7  A    between atoms: C10_26  and  N5_27 
REMARK    8  A    between atoms: N5_27  and  C11_29 
REMARK    9  A    between atoms: C11_29  and  C12_33 
REMARK   10  A    between atoms: N8_37  and  C14_38 
REMARK   11  A    between atoms: C16_45  and  N11_46 
REMARK   12  A    between atoms: C18_52  and  C19_53 
ROOT
HETATM    1  C7  UNL     1      30.684  71.277  -7.816  1.00  0.00     0.282 C 
HETATM    2  N3  UNL     1      31.789  70.330  -7.874  1.00  0.00    -0.057 N 
ATOM      3  H31 UNL     1      32.708  70.738  -7.705  1.00  0.00     0.278 HD
ATOM      4  H32 UNL     1      32.001  69.981  -8.809  1.00  0.00     0.278 HD
HETATM    5  C8  UNL     1      31.392  69.297  -6.911  1.00  0.00     0.268 C 
HETATM    6  C9  UNL     1      31.000  70.170  -5.720  1.00  0.00     0.234 C 
HETATM    7  C10 UNL     1      30.180  71.246  -6.410  1.00  0.00     0.156 C 
ENDROOT
BRANCH   7   8
HETATM    8  N5  UNL     1      30.319  72.518  -5.720  1.00  0.00    -0.366 N 
ATOM      9  H5  UNL     1      31.233  72.945  -5.566  1.00  0.00     0.161 HD
BRANCH   8  10
HETATM   10  C11 UNL     1      29.127  73.133  -5.272  1.00  0.00     0.108 C 
HETATM   11  N6  UNL     1      28.377  72.454  -4.466  1.00  0.00    -0.385 N 
ATOM     12  H62 UNL     1      28.655  71.515  -4.179  1.00  0.00     0.157 HD
ATOM     13  H61 UNL     1      27.517  72.898  -4.144  1.00  0.00     0.157 HD
BRANCH  10  14
HETATM   14  C12 UNL     1      28.732  74.471  -5.682  1.00  0.00     0.042 A 
HETATM   15  C13 UNL     1      27.466  74.982  -5.683  1.00  0.00     0.124 A 
HETATM   16  N7  UNL     1      27.575  76.250  -6.136  1.00  0.00    -0.290 N 
HETATM   17  N8  UNL     1      28.816  76.549  -6.412  1.00  0.00    -0.096 N 
ATOM     18  H7  UNL     1      26.790  76.892  -6.248  1.00  0.00     0.187 HD
HETATM   19  C17 UNL     1      29.577  75.456  -6.141  1.00  0.00     0.151 A 
BRANCH  17  20
HETATM   20  C14 UNL     1      29.289  77.790  -6.906  1.00  0.00     0.721 A 
HETATM   21  N9  UNL     1      28.828  78.281  -8.088  1.00  0.00    -0.138 N 
HETATM   22  C15 UNL     1      29.272  79.458  -8.564  1.00  0.00     0.352 A 
ATOM     23  H9  UNL     1      28.137  77.751  -8.619  1.00  0.00     0.189 HD
HETATM   24  O4  UNL     1      28.838  79.910  -9.664  1.00  0.00    -0.246 OA
HETATM   25  N10 UNL     1      30.182  80.177  -7.881  1.00  0.00    -0.141 N 
HETATM   26  C16 UNL     1      30.645  79.711  -6.721  1.00  0.00     0.694 A 
ATOM     27  H10 UNL     1      30.514  81.070  -8.247  1.00  0.00     0.189 HD
HETATM   28  N12 UNL     1      30.197  78.524  -6.241  1.00  0.00    -0.020 N 
ATOM     29  H12 UNL     1      30.560  78.180  -5.352  1.00  0.00     0.203 HD
BRANCH  26  30
HETATM   30  N11 UNL     1      31.524  80.377  -6.033  1.00  0.00    -0.234 N 
ATOM     31 2H11 UNL     1      31.201  81.025  -5.315  1.00  0.00     0.174 HD
ATOM     32 1H11 UNL     1      32.523  80.260  -6.201  1.00  0.00     0.174 HD
ENDBRANCH  26  30
ENDBRANCH  17  20
ENDBRANCH  10  14
ENDBRANCH   8  10
ENDBRANCH   7   8
BRANCH   1  33
HETATM   33  S2  UNL     1      29.361  70.812  -8.959  1.00  0.00    -0.057 SA
BRANCH  33  34
HETATM   34  S1  UNL     1      29.066  72.359 -10.423  1.00  0.00    -0.056 SA
BRANCH  34  35
HETATM   35  C6  UNL     1      30.399  72.237 -11.605  1.00  0.00     0.046 C 
HETATM   36  C4  UNL     1      31.349  73.114 -11.624  1.00  0.00     0.131 C 
HETATM   37  N2  UNL     1      32.446  73.033 -12.564  1.00  0.00    -0.292 N 
HETATM   38  C3  UNL     1      33.836  73.209 -12.742  1.00  0.00     0.259 C 
HETATM   39  C20 UNL     1      32.225  72.608 -13.944  1.00  0.00     0.196 C 
HETATM   40  C2  UNL     1      33.727  72.564 -14.094  1.00  0.00     0.310 C 
HETATM   41  O1  UNL     1      34.818  73.695 -12.089  1.00  0.00    -0.271 OA
HETATM   42  S3  UNL     1      31.424  70.983 -13.849  1.00  0.00    -0.121 SA
HETATM   43  C18 UNL     1      30.209  71.100 -12.553  1.00  0.00     0.181 C 
BRANCH  36  44
HETATM   44  C5  UNL     1      31.370  74.265 -10.738  1.00  0.00     0.228 C 
HETATM   45  O2  UNL     1      30.958  75.364 -11.160  1.00  0.00    -0.643 OA
HETATM   46  O3  UNL     1      31.829  74.223  -9.424  1.00  0.00    -0.643 OA
ENDBRANCH  36  44
BRANCH  40  47
HETATM   47  N1  UNL     1      34.242  73.427 -15.146  1.00  0.00    -0.063 N 
HETATM   48  C1  UNL     1      35.148  72.692 -15.994  1.00  0.00     0.268 C 
ATOM     49  H12 UNL     1      34.673  74.271 -14.770  1.00  0.00     0.277 HD
ATOM     50  H11 UNL     1      33.492  73.866 -15.680  1.00  0.00     0.277 HD
ENDBRANCH  40  47
BRANCH  43  51
HETATM   51  C19 UNL     1      28.822  71.217 -13.073  1.00  0.00     0.250 C 
HETATM   52  N13 UNL     1      28.507  72.320 -13.911  1.00  0.00    -0.061 NA
HETATM   53  O5  UNL     1      27.910  70.394 -12.812  1.00  0.00    -0.275 OA
ENDBRANCH  43  51
ENDBRANCH  34  35
ENDBRANCH  33  34
ENDBRANCH   1  33
BRANCH   6  54
HETATM   54  N4  UNL     1      30.131  69.454  -4.806  1.00  0.00    -0.071 N 
ATOM     55  H43 UNL     1      30.663  68.988  -4.071  1.00  0.00     0.274 HD
ATOM     56  H42 UNL     1      29.589  70.095  -4.226  1.00  0.00     0.274 HD
ATOM     57  H41 UNL     1      29.528  68.799  -5.304  1.00  0.00     0.274 HD
ENDBRANCH   6  54
TORSDOF 12
ENDMDL
MODEL 4
REMARK VINA RESULT: -8.568612618      1.419      1.627
REMARK  12 active torsions:
REMARK  status: ('A' for Active; 'I' for Inactive)
REMARK    1  A    between atoms: N1_2  and  C2_5 
REMARK    2  A    between atoms: C4_9  and  C5_10 
REMARK    3  A    between atoms: C6_13  and  S1_14 
REMARK    4  A    between atoms: S1_14  and  S2_15 
REMARK    5  A    between atoms: S2_15  and  C7_16 
REMARK    6  A    between atoms: C9_21  and  N4_22 
REMARK    7  A    between atoms: C10_26  and  N5_27 
REMARK    8  A    between atoms: N5_27  and  C11_29 
REMARK    9  A    between atoms: C11_29  and  C12_33 
REMARK   10  A    between atoms: N8_37  and  C14_38 
REMARK   11  A    between atoms: C16_45  and  N11_46 
REMARK   12  A    between atoms: C18_52  and  C19_53 
ROOT
HETATM    1  C7  UNL     1      26.748  71.198  -6.923  1.00  0.00     0.282 C 
HETATM    2  N3  UNL     1      25.344  70.860  -7.113  1.00  0.00    -0.057 N 
ATOM      3  H31 UNL     1      24.939  70.288  -6.371  1.00  0.00     0.278 HD
ATOM      4  H32 UNL     1      25.164  70.195  -7.866  1.00  0.00     0.278 HD
HETATM    5  C8  UNL     1      24.708  72.170  -7.290  1.00  0.00     0.268 C 
HETATM    6  C9  UNL     1      25.312  72.929  -6.110  1.00  0.00     0.234 C 
HETATM    7  C10 UNL     1      26.769  72.514  -6.218  1.00  0.00     0.156 C 
ENDROOT
BRANCH   7   8
HETATM    8  N5  UNL     1      27.382  72.453  -4.901  1.00  0.00    -0.366 N 
ATOM      9  H5  UNL     1      26.999  71.867  -4.159  1.00  0.00     0.161 HD
BRANCH   8  10
HETATM   10  C11 UNL     1      28.538  73.244  -4.699  1.00  0.00     0.108 C 
HETATM   11  N6  UNL     1      29.635  72.624  -4.407  1.00  0.00    -0.385 N 
ATOM     12  H62 UNL     1      29.643  71.607  -4.331  1.00  0.00     0.157 HD
ATOM     13  H61 UNL     1      30.468  73.195  -4.261  1.00  0.00     0.157 HD
BRANCH  10  14
HETATM   14  C12 UNL     1      28.525  74.694  -4.807  1.00  0.00     0.042 A 
HETATM   15  C13 UNL     1      27.890  75.567  -3.972  1.00  0.00     0.124 A 
HETATM   16  N7  UNL     1      28.154  76.802  -4.452  1.00  0.00    -0.290 N 
HETATM   17  N8  UNL     1      28.904  76.744  -5.519  1.00  0.00    -0.096 N 
ATOM     18  H7  UNL     1      27.811  77.668  -4.034  1.00  0.00     0.187 HD
HETATM   19  C17 UNL     1      29.160  75.436  -5.777  1.00  0.00     0.151 A 
BRANCH  17  20
HETATM   20  C14 UNL     1      29.369  77.849  -6.276  1.00  0.00     0.721 A 
HETATM   21  N9  UNL     1      28.908  78.063  -7.537  1.00  0.00    -0.138 N 
HETATM   22  C15 UNL     1      29.345  79.109  -8.261  1.00  0.00     0.352 A 
ATOM     23  H9  UNL     1      28.222  77.423  -7.938  1.00  0.00     0.189 HD
HETATM   24  O4  UNL     1      28.911  79.302  -9.435  1.00  0.00    -0.246 OA
HETATM   25  N10 UNL     1      30.248  79.968  -7.754  1.00  0.00    -0.141 N 
HETATM   26  C16 UNL     1      30.711  79.773  -6.519  1.00  0.00     0.694 A 
ATOM     27  H10 UNL     1      30.575  80.760  -8.308  1.00  0.00     0.189 HD
HETATM   28  N12 UNL     1      30.270  78.719  -5.788  1.00  0.00    -0.020 N 
ATOM     29  H12 UNL     1      30.632  78.583  -4.845  1.00  0.00     0.203 HD
BRANCH  26  30
HETATM   30  N11 UNL     1      31.583  80.582  -5.994  1.00  0.00    -0.234 N 
ATOM     31 2H11 UNL     1      32.003  81.303  -6.580  1.00  0.00     0.174 HD
ATOM     32 1H11 UNL     1      31.851  80.503  -5.012  1.00  0.00     0.174 HD
ENDBRANCH  26  30
ENDBRANCH  17  20
ENDBRANCH  10  14
ENDBRANCH   8  10
ENDBRANCH   7   8
BRANCH   1  33
HETATM   33  S2  UNL     1      27.611  71.330  -8.508  1.00  0.00    -0.057 SA
BRANCH  33  34
HETATM   34  S1  UNL     1      29.461  72.397  -8.259  1.00  0.00    -0.056 SA
BRANCH  34  35
HETATM   35  C6  UNL     1      30.715  71.513  -9.171  1.00  0.00     0.046 C 
HETATM   36  C4  UNL     1      31.228  70.423  -8.703  1.00  0.00     0.131 C 
HETATM   37  N2  UNL     1      32.239  69.681  -9.427  1.00  0.00    -0.292 N 
HETATM   38  C3  UNL     1      32.704  68.395  -9.777  1.00  0.00     0.259 C 
HETATM   39  C20 UNL     1      33.293  70.370 -10.167  1.00  0.00     0.196 C 
HETATM   40  C2  UNL     1      33.668  69.025 -10.740  1.00  0.00     0.310 C 
HETATM   41  O1  UNL     1      32.463  67.183  -9.457  1.00  0.00    -0.271 OA
HETATM   42  S3  UNL     1      32.450  71.482 -11.327  1.00  0.00    -0.121 SA
HETATM   43  C18 UNL     1      31.111  72.227 -10.421  1.00  0.00     0.181 C 
BRANCH  36  44
HETATM   44  C5  UNL     1      30.866  69.880  -7.405  1.00  0.00     0.228 C 
HETATM   45  O2  UNL     1      31.044  70.576  -6.385  1.00  0.00    -0.643 OA
HETATM   46  O3  UNL     1      30.322  68.612  -7.219  1.00  0.00    -0.643 OA
ENDBRANCH  36  44
BRANCH  40  47
HETATM   47  N1  UNL     1      35.041  68.627 -10.468  1.00  0.00    -0.063 N 
HETATM   48  C1  UNL     1      35.725  68.322 -11.701  1.00  0.00     0.268 C 
ATOM     49  H12 UNL     1      35.090  67.854  -9.805  1.00  0.00     0.277 HD
ATOM     50  H11 UNL     1      35.539  69.328  -9.919  1.00  0.00     0.277 HD
ENDBRANCH  40  47
BRANCH  43  51
HETATM   51  C19 UNL     1      31.391  73.632 -10.029  1.00  0.00     0.250 C 
HETATM   52  N13 UNL     1      31.146  74.659 -10.980  1.00  0.00    -0.061 NA
HETATM   53  O5  UNL     1      31.833  73.964  -8.901  1.00  0.00    -0.275 OA
ENDBRANCH  43  51
ENDBRANCH  34  35
ENDBRANCH  33  34
ENDBRANCH   1  33
BRANCH   6  54
HETATM   54  N4  UNL     1      25.233  74.364  -6.310  1.00  0.00    -0.071 N 
ATOM     55  H43 UNL     1      25.265  74.867  -5.423  1.00  0.00     0.274 HD
ATOM     56  H42 UNL     1      26.087  74.731  -6.730  1.00  0.00     0.274 HD
ATOM     57  H41 UNL     1      24.409  74.617  -6.856  1.00  0.00     0.274 HD
ENDBRANCH   6  54
TORSDOF 12
ENDMDL
MODEL 5
REMARK VINA RESULT: -8.564414881      3.414      9.393
REMARK  12 active torsions:
REMARK  status: ('A' for Active; 'I' for Inactive)
REMARK    1  A    between atoms: N1_2  and  C2_5 
REMARK    2  A    between atoms: C4_9  and  C5_10 
REMARK    3  A    between atoms: C6_13  and  S1_14 
REMARK    4  A    between atoms: S1_14  and  S2_15 
REMARK    5  A    between atoms: S2_15  and  C7_16 
REMARK    6  A    between atoms: C9_21  and  N4_22 
REMARK    7  A    between atoms: C10_26  and  N5_27 
REMARK    8  A    between atoms: N5_27  and  C11_29 
REMARK    9  A    between atoms: C11_29  and  C12_33 
REMARK   10  A    between atoms: N8_37  and  C14_38 
REMARK   11  A    between atoms: C16_45  and  N11_46 
REMARK   12  A    between atoms: C18_52  and  C19_53 
ROOT
HETATM    1  C7  UNL     1      30.757  72.342  -7.385  1.00  0.00     0.282 C 
HETATM    2  N3  UNL     1      31.319  72.734  -8.670  1.00  0.00    -0.057 N 
ATOM      3  H31 UNL     1      31.883  72.016  -9.125  1.00  0.00     0.278 HD
ATOM      4  H32 UNL     1      32.064  73.430  -8.614  1.00  0.00     0.278 HD
HETATM    5  C8  UNL     1      30.140  73.160  -9.432  1.00  0.00     0.268 C 
HETATM    6  C9  UNL     1      29.204  71.983  -9.167  1.00  0.00     0.234 C 
HETATM    7  C10 UNL     1      29.399  71.792  -7.674  1.00  0.00     0.156 C 
ENDROOT
BRANCH   7   8
HETATM    8  N5  UNL     1      29.256  70.390  -7.315  1.00  0.00    -0.366 N 
ATOM      9  H5  UNL     1      28.341  69.941  -7.265  1.00  0.00     0.161 HD
BRANCH   8  10
HETATM   10  C11 UNL     1      30.448  69.679  -7.038  1.00  0.00     0.108 C 
HETATM   11  N6  UNL     1      30.751  69.496  -5.793  1.00  0.00    -0.385 N 
ATOM     12  H62 UNL     1      30.142  69.858  -5.060  1.00  0.00     0.157 HD
ATOM     13  H61 UNL     1      31.610  68.983  -5.594  1.00  0.00     0.157 HD
BRANCH  10  14
HETATM   14  C12 UNL     1      31.316  69.163  -8.084  1.00  0.00     0.042 A 
HETATM   15  C13 UNL     1      31.115  69.261  -9.430  1.00  0.00     0.124 A 
HETATM   16  N7  UNL     1      32.169  68.648 -10.011  1.00  0.00    -0.290 N 
HETATM   17  N8  UNL     1      32.998  68.183  -9.115  1.00  0.00    -0.096 N 
ATOM     18  H7  UNL     1      32.301  68.559 -11.018  1.00  0.00     0.187 HD
HETATM   19  C17 UNL     1      32.499  68.486  -7.889  1.00  0.00     0.151 A 
BRANCH  17  20
HETATM   20  C14 UNL     1      34.205  67.486  -9.373  1.00  0.00     0.721 A 
HETATM   21  N9  UNL     1      34.266  66.557 -10.364  1.00  0.00    -0.138 N 
HETATM   22  C15 UNL     1      35.408  65.891 -10.614  1.00  0.00     0.352 A 
ATOM     23  H9  UNL     1      33.436  66.363 -10.924  1.00  0.00     0.189 HD
HETATM   24  O4  UNL     1      35.458  65.028 -11.539  1.00  0.00    -0.246 OA
HETATM   25  N10 UNL     1      36.516  66.131  -9.890  1.00  0.00    -0.141 N 
HETATM   26  C16 UNL     1      36.475  67.038  -8.915  1.00  0.00     0.694 A 
ATOM     27  H10 UNL     1      37.380  65.623 -10.086  1.00  0.00     0.189 HD
HETATM   28  N12 UNL     1      35.324  67.709  -8.662  1.00  0.00    -0.020 N 
ATOM     29  H12 UNL     1      35.307  68.401  -7.913  1.00  0.00     0.203 HD
BRANCH  26  30
HETATM   30  N11 UNL     1      37.526  67.297  -8.193  1.00  0.00    -0.234 N 
ATOM     31 2H11 UNL     1      37.988  66.533  -7.702  1.00  0.00     0.174 HD
ATOM     32 1H11 UNL     1      37.889  68.247  -8.114  1.00  0.00     0.174 HD
ENDBRANCH  26  30
ENDBRANCH  17  20
ENDBRANCH  10  14
ENDBRANCH   8  10
ENDBRANCH   7   8
BRANCH   1  33
HETATM   33  S2  UNL     1      30.626  73.759  -6.267  1.00  0.00    -0.057 SA
BRANCH  33  34
HETATM   34  S1  UNL     1      28.566  74.334  -6.035  1.00  0.00    -0.056 SA
BRANCH  34  35
HETATM   35  C6  UNL     1      28.202  74.325  -4.288  1.00  0.00     0.046 C 
HETATM   36  C4  UNL     1      28.069  73.211  -3.646  1.00  0.00     0.131 C 
HETATM   37  N2  UNL     1      27.784  73.175  -2.227  1.00  0.00    -0.292 N 
HETATM   38  C3  UNL     1      28.056  72.520  -1.006  1.00  0.00     0.259 C 
HETATM   39  C20 UNL     1      26.866  74.136  -1.619  1.00  0.00     0.196 C 
HETATM   40  C2  UNL     1      27.315  73.605  -0.279  1.00  0.00     0.310 C 
HETATM   41  O1  UNL     1      28.657  71.466  -0.613  1.00  0.00    -0.271 OA
HETATM   42  S3  UNL     1      27.506  75.780  -2.039  1.00  0.00    -0.121 SA
HETATM   43  C18 UNL     1      28.003  75.702  -3.747  1.00  0.00     0.181 C 
BRANCH  36  44
HETATM   44  C5  UNL     1      28.152  71.916  -4.298  1.00  0.00     0.228 C 
HETATM   45  O2  UNL     1      29.171  71.216  -4.130  1.00  0.00    -0.643 OA
HETATM   46  O3  UNL     1      27.152  71.393  -5.113  1.00  0.00    -0.643 OA
ENDBRANCH  36  44
BRANCH  40  47
HETATM   47  N1  UNL     1      26.238  73.070   0.538  1.00  0.00    -0.063 N 
HETATM   48  C1  UNL     1      26.068  73.870   1.726  1.00  0.00     0.268 C 
ATOM     49  H12 UNL     1      26.380  72.085   0.760  1.00  0.00     0.277 HD
ATOM     50  H11 UNL     1      25.369  72.981   0.011  1.00  0.00     0.277 HD
ENDBRANCH  40  47
BRANCH  43  51
HETATM   51  C19 UNL     1      27.041  76.374  -4.658  1.00  0.00     0.250 C 
HETATM   52  N13 UNL     1      25.758  75.790  -4.833  1.00  0.00    -0.061 NA
HETATM   53  O5  UNL     1      27.299  77.431  -5.285  1.00  0.00    -0.275 OA
ENDBRANCH  43  51
ENDBRANCH  34  35
ENDBRANCH  33  34
ENDBRANCH   1  33
BRANCH   6  54
HETATM   54  N4  UNL     1      27.819  72.349  -9.400  1.00  0.00    -0.071 N 
ATOM     55  H43 UNL     1      27.699  72.804 -10.306  1.00  0.00     0.274 HD
ATOM     56  H42 UNL     1      27.236  71.527  -9.559  1.00  0.00     0.274 HD
ATOM     57  H41 UNL     1      27.455  72.925  -8.641  1.00  0.00     0.274 HD
ENDBRANCH   6  54
TORSDOF 12
ENDMDL
