MODEL 1
REMARK VINA RESULT: -9.641542186      0.000      0.000
REMARK  17 active torsions:
REMARK  status: ('A' for Active; 'I' for Inactive)
REMARK    1  A    between atoms: N1_1  and  C1_4 
REMARK    2  A    between atoms: C2_7  and  C3_8 
REMARK    3  A    between atoms: C3_8  and  O1_9 
REMARK    4  A    between atoms: C3_8  and  C4_11 
REMARK    5  A    between atoms: C4_11  and  N3_12 
REMARK    6  A    between atoms: C4_11  and  N10_42 
REMARK    7  A    between atoms: N3_12  and  N4_14 
REMARK    8  A    between atoms: N4_14  and  N5_16 
REMARK    9  A    between atoms: N6_19  and  N7_20 
REMARK   10  A    between atoms: C7_22  and  C8_23 
REMARK   11  A    between atoms: C9_24  and  O2_25 
REMARK   12  A    between atoms: C13_36  and  C14_37 
REMARK   13  A    between atoms: C14_37  and  O5_38 
REMARK   14  A    between atoms: C14_37  and  O6_40 
REMARK   15  A    between atoms: C16_44  and  S1_45 
REMARK   16  A    between atoms: S1_45  and  N11_46 
REMARK   17  A    between atoms: C19_53  and  O9_54 
ROOT
HETATM    1  N3  UNL     1      26.830  75.015  -6.031  1.00  0.00    -0.272 N 
ATOM      2  H3  UNL     1      26.212  75.412  -6.738  1.00  0.00     0.190 HD
ENDROOT
BRANCH   1   3
HETATM    3  C4  UNL     1      26.825  75.598  -4.872  1.00  0.00     0.165 C 
BRANCH   3   4
HETATM    4  C3  UNL     1      27.201  76.940  -4.726  1.00  0.00     0.139 C 
BRANCH   4   5
HETATM    5  C2  UNL     1      28.235  77.744  -5.415  1.00  0.00     0.078 A 
HETATM    6  N2  UNL     1      29.016  78.569  -4.723  1.00  0.00    -0.334 N 
HETATM    7  C1  UNL     1      29.926  79.277  -5.375  1.00  0.00     0.142 A 
ATOM      8  H2  UNL     1      28.916  78.654  -3.711  1.00  0.00     0.168 HD
HETATM    9  S2  UNL     1      29.735  78.826  -6.985  1.00  0.00    -0.064 SA
HETATM   10  C20 UNL     1      28.438  77.696  -6.757  1.00  0.00     0.085 A 
BRANCH   7  11
HETATM   11  N1  UNL     1      30.784  80.139  -4.855  1.00  0.00    -0.380 N 
ATOM     12  H12 UNL     1      31.755  80.309  -5.117  1.00  0.00     0.158 HD
ATOM     13  H11 UNL     1      30.611  80.790  -4.088  1.00  0.00     0.158 HD
ENDBRANCH   7  11
ENDBRANCH   4   5
BRANCH   4  14
HETATM   14  O1  UNL     1      26.536  77.631  -3.825  1.00  0.00    -0.355 OA
ATOM     15  H1  UNL     1      25.696  77.938  -4.143  1.00  0.00     0.218 HD
ENDBRANCH   4  14
ENDBRANCH   3   4
BRANCH   3  16
HETATM   16  N10 UNL     1      26.383  74.686  -3.839  1.00  0.00    -0.284 N 
HETATM   17  C15 UNL     1      27.184  74.317  -2.820  1.00  0.00     0.126 A 
HETATM   18  C16 UNL     1      26.815  73.507  -1.780  1.00  0.00     0.095 A 
HETATM   19  C17 UNL     1      25.522  73.031  -1.777  1.00  0.00     0.031 A 
HETATM   20  C18 UNL     1      24.673  73.395  -2.815  1.00  0.00     0.058 A 
HETATM   21  C19 UNL     1      25.113  74.216  -3.831  1.00  0.00     0.147 A 
BRANCH  18  22
HETATM   22  S1  UNL     1      27.911  73.067  -0.486  1.00  0.00     0.258 S 
HETATM   23  O7  UNL     1      28.473  71.697  -0.669  1.00  0.00    -0.201 OA
HETATM   24  O8  UNL     1      29.029  74.058  -0.434  1.00  0.00    -0.201 OA
BRANCH  22  25
HETATM   25  N11 UNL     1      27.073  73.182   1.046  1.00  0.00    -0.324 N 
ATOM     26 2H11 UNL     1      26.618  74.025   1.394  1.00  0.00     0.169 HD
ATOM     27 1H11 UNL     1      27.115  72.280   1.522  1.00  0.00     0.169 HD
ENDBRANCH  22  25
ENDBRANCH  18  22
BRANCH  21  28
HETATM   28  O9  UNL     1      24.246  74.564  -4.856  1.00  0.00    -0.346 OA
ATOM     29  H9  UNL     1      23.408  74.960  -4.648  1.00  0.00     0.219 HD
ENDBRANCH  21  28
ENDBRANCH   3  16
ENDBRANCH   1   3
BRANCH   1  30
HETATM   30  N4  UNL     1      27.558  73.946  -6.411  1.00  0.00    -0.260 N 
ATOM     31  H4  UNL     1      27.221  73.313  -7.136  1.00  0.00     0.202 HD
BRANCH  30  32
HETATM   32  N5  UNL     1      28.815  73.724  -5.771  1.00  0.00    -0.204 NA
HETATM   33  C5  UNL     1      28.831  72.409  -5.243  1.00  0.00     0.137 C 
HETATM   34  C6  UNL     1      30.099  71.638  -5.420  1.00  0.00     0.158 C 
HETATM   35  N6  UNL     1      30.623  71.742  -6.759  1.00  0.00    -0.325 N 
HETATM   36  C12 UNL     1      30.429  72.969  -7.491  1.00  0.00     0.169 C 
HETATM   37  C13 UNL     1      29.871  74.073  -6.666  1.00  0.00     0.155 C 
BRANCH  35  38
HETATM   38  N7  UNL     1      31.292  70.662  -7.304  1.00  0.00    -0.313 N 
HETATM   39  C7  UNL     1      31.525  70.518  -8.556  1.00  0.00     0.128 C 
ATOM     40  H7  UNL     1      31.621  69.934  -6.670  1.00  0.00     0.185 HD
BRANCH  39  41
HETATM   41  C8  UNL     1      32.232  69.371  -9.102  1.00  0.00     0.100 A 
HETATM   42  C9  UNL     1      32.008  68.087  -8.622  1.00  0.00     0.161 A 
HETATM   43  N8  UNL     1      32.677  67.065  -9.150  1.00  0.00    -0.288 N 
HETATM   44  C10 UNL     1      33.578  67.211 -10.145  1.00  0.00     0.329 A 
ATOM     45  H8  UNL     1      32.501  66.128  -8.787  1.00  0.00     0.172 HD
HETATM   46  O3  UNL     1      34.193  66.197 -10.615  1.00  0.00    -0.247 OA
HETATM   47  N9  UNL     1      33.815  68.443 -10.627  1.00  0.00    -0.275 N 
HETATM   48  C11 UNL     1      33.159  69.498 -10.120  1.00  0.00     0.265 A 
ATOM     49  H9  UNL     1      34.492  68.575 -11.378  1.00  0.00     0.173 HD
HETATM   50  O4  UNL     1      33.376  70.654 -10.569  1.00  0.00    -0.267 OA
BRANCH  42  51
HETATM   51  O2  UNL     1      31.087  67.889  -7.599  1.00  0.00    -0.345 OA
ATOM     52  H2  UNL     1      30.987  67.023  -7.221  1.00  0.00     0.219 HD
ENDBRANCH  42  51
ENDBRANCH  39  41
ENDBRANCH  35  38
BRANCH  37  53
HETATM   53  C14 UNL     1      30.936  74.850  -5.913  1.00  0.00     0.275 C 
BRANCH  53  54
HETATM   54  O5  UNL     1      30.339  75.589  -4.882  1.00  0.00    -0.370 OA
ATOM     55  H5  UNL     1      30.801  76.412  -4.770  1.00  0.00     0.212 HD
ENDBRANCH  53  54
BRANCH  53  56
HETATM   56  O6  UNL     1      31.562  75.785  -6.742  1.00  0.00    -0.370 OA
ATOM     57  H6  UNL     1      32.341  75.421  -7.146  1.00  0.00     0.212 HD
ENDBRANCH  53  56
ENDBRANCH  37  53
ENDBRANCH  30  32
ENDBRANCH   1  30
TORSDOF 17
ENDMDL
MODEL 2
REMARK VINA RESULT: -9.494359452      0.416      1.294
REMARK  17 active torsions:
REMARK  status: ('A' for Active; 'I' for Inactive)
REMARK    1  A    between atoms: N1_1  and  C1_4 
REMARK    2  A    between atoms: C2_7  and  C3_8 
REMARK    3  A    between atoms: C3_8  and  O1_9 
REMARK    4  A    between atoms: C3_8  and  C4_11 
REMARK    5  A    between atoms: C4_11  and  N3_12 
REMARK    6  A    between atoms: C4_11  and  N10_42 
REMARK    7  A    between atoms: N3_12  and  N4_14 
REMARK    8  A    between atoms: N4_14  and  N5_16 
REMARK    9  A    between atoms: N6_19  and  N7_20 
REMARK   10  A    between atoms: C7_22  and  C8_23 
REMARK   11  A    between atoms: C9_24  and  O2_25 
REMARK   12  A    between atoms: C13_36  and  C14_37 
REMARK   13  A    between atoms: C14_37  and  O5_38 
REMARK   14  A    between atoms: C14_37  and  O6_40 
REMARK   15  A    between atoms: C16_44  and  S1_45 
REMARK   16  A    between atoms: S1_45  and  N11_46 
REMARK   17  A    between atoms: C19_53  and  O9_54 
ROOT
HETATM    1  N3  UNL     1      26.915  75.035  -5.903  1.00  0.00    -0.272 N 
ATOM      2  H3  UNL     1      26.456  75.528  -6.668  1.00  0.00     0.190 HD
ENDROOT
BRANCH   1   3
HETATM    3  C4  UNL     1      26.898  75.628  -4.749  1.00  0.00     0.165 C 
BRANCH   3   4
HETATM    4  C3  UNL     1      27.264  76.974  -4.611  1.00  0.00     0.139 C 
BRANCH   4   5
HETATM    5  C2  UNL     1      28.281  77.785  -5.317  1.00  0.00     0.078 A 
HETATM    6  N2  UNL     1      29.066  78.617  -4.638  1.00  0.00    -0.334 N 
HETATM    7  C1  UNL     1      29.961  79.332  -5.305  1.00  0.00     0.142 A 
ATOM      8  H2  UNL     1      28.981  78.703  -3.625  1.00  0.00     0.168 HD
HETATM    9  S2  UNL     1      29.748  78.877  -6.911  1.00  0.00    -0.064 SA
HETATM   10  C20 UNL     1      28.464  77.736  -6.662  1.00  0.00     0.085 A 
BRANCH   7  11
HETATM   11  N1  UNL     1      30.819  80.201  -4.800  1.00  0.00    -0.380 N 
ATOM     12  H12 UNL     1      31.175  80.265  -3.846  1.00  0.00     0.158 HD
ATOM     13  H11 UNL     1      31.276  80.969  -5.293  1.00  0.00     0.158 HD
ENDBRANCH   7  11
ENDBRANCH   4   5
BRANCH   4  14
HETATM   14  O1  UNL     1      26.607  77.661  -3.702  1.00  0.00    -0.355 OA
ATOM     15  H1  UNL     1      27.002  78.507  -3.524  1.00  0.00     0.218 HD
ENDBRANCH   4  14
ENDBRANCH   3   4
BRANCH   3  16
HETATM   16  N10 UNL     1      26.454  74.722  -3.711  1.00  0.00    -0.284 N 
HETATM   17  C15 UNL     1      27.266  74.327  -2.711  1.00  0.00     0.126 A 
HETATM   18  C16 UNL     1      26.899  73.521  -1.667  1.00  0.00     0.095 A 
HETATM   19  C17 UNL     1      25.595  73.078  -1.640  1.00  0.00     0.031 A 
HETATM   20  C18 UNL     1      24.735  73.469  -2.658  1.00  0.00     0.058 A 
HETATM   21  C19 UNL     1      25.174  74.284  -3.678  1.00  0.00     0.147 A 
BRANCH  18  22
HETATM   22  S1  UNL     1      28.010  73.047  -0.398  1.00  0.00     0.258 S 
HETATM   23  O7  UNL     1      28.560  71.677  -0.617  1.00  0.00    -0.201 OA
HETATM   24  O8  UNL     1      29.136  74.030  -0.341  1.00  0.00    -0.201 OA
BRANCH  22  25
HETATM   25  N11 UNL     1      27.194  73.135   1.147  1.00  0.00    -0.324 N 
ATOM     26 2H11 UNL     1      26.386  72.571   1.407  1.00  0.00     0.169 HD
ATOM     27 1H11 UNL     1      27.655  73.832   1.733  1.00  0.00     0.169 HD
ENDBRANCH  22  25
ENDBRANCH  18  22
BRANCH  21  28
HETATM   28  O9  UNL     1      24.295  74.659  -4.684  1.00  0.00    -0.346 OA
ATOM     29  H9  UNL     1      24.009  74.016  -5.322  1.00  0.00     0.219 HD
ENDBRANCH  21  28
ENDBRANCH   3  16
ENDBRANCH   1   3
BRANCH   1  30
HETATM   30  N4  UNL     1      27.470  73.845  -6.208  1.00  0.00    -0.260 N 
ATOM     31  H4  UNL     1      26.950  73.145  -6.737  1.00  0.00     0.202 HD
BRANCH  30  32
HETATM   32  N5  UNL     1      28.805  73.591  -5.772  1.00  0.00    -0.204 NA
HETATM   33  C5  UNL     1      28.930  72.214  -5.462  1.00  0.00     0.137 C 
HETATM   34  C6  UNL     1      30.186  71.543  -5.913  1.00  0.00     0.158 C 
HETATM   35  N6  UNL     1      30.528  71.874  -7.274  1.00  0.00    -0.325 N 
HETATM   36  C12 UNL     1      30.203  73.186  -7.776  1.00  0.00     0.169 C 
HETATM   37  C13 UNL     1      29.725  74.124  -6.726  1.00  0.00     0.155 C 
BRANCH  35  38
HETATM   38  N7  UNL     1      31.152  70.923  -8.060  1.00  0.00    -0.313 N 
HETATM   39  C7  UNL     1      31.853  69.955  -7.598  1.00  0.00     0.128 C 
ATOM     40  H7  UNL     1      31.047  70.996  -9.072  1.00  0.00     0.185 HD
BRANCH  39  41
HETATM   41  C8  UNL     1      32.499  68.970  -8.449  1.00  0.00     0.100 A 
HETATM   42  C9  UNL     1      33.141  69.336  -9.624  1.00  0.00     0.161 A 
HETATM   43  N8  UNL     1      33.719  68.401 -10.374  1.00  0.00    -0.288 N 
HETATM   44  C10 UNL     1      33.714  67.091 -10.049  1.00  0.00     0.329 A 
ATOM     45  H8  UNL     1      34.187  68.688 -11.234  1.00  0.00     0.172 HD
HETATM   46  O3  UNL     1      34.282  66.235 -10.805  1.00  0.00    -0.247 OA
HETATM   47  N9  UNL     1      33.098  66.708  -8.918  1.00  0.00    -0.275 N 
HETATM   48  C11 UNL     1      32.504  67.622  -8.135  1.00  0.00     0.265 A 
ATOM     49  H9  UNL     1      33.083  65.723  -8.654  1.00  0.00     0.173 HD
HETATM   50  O4  UNL     1      31.928  67.269  -7.073  1.00  0.00    -0.267 OA
BRANCH  42  51
HETATM   51  O2  UNL     1      33.172  70.676  -9.998  1.00  0.00    -0.345 OA
ATOM     52  H2  UNL     1      33.592  70.925 -10.814  1.00  0.00     0.219 HD
ENDBRANCH  42  51
ENDBRANCH  39  41
ENDBRANCH  35  38
BRANCH  37  53
HETATM   53  C14 UNL     1      30.855  74.830  -5.999  1.00  0.00     0.275 C 
BRANCH  53  54
HETATM   54  O5  UNL     1      30.339  75.549  -4.911  1.00  0.00    -0.370 OA
ATOM     55  H5  UNL     1      30.795  75.297  -4.117  1.00  0.00     0.212 HD
ENDBRANCH  53  54
BRANCH  53  56
HETATM   56  O6  UNL     1      31.476  75.774  -6.823  1.00  0.00    -0.370 OA
ATOM     57  H6  UNL     1      31.077  76.631  -6.727  1.00  0.00     0.212 HD
ENDBRANCH  53  56
ENDBRANCH  37  53
ENDBRANCH  30  32
ENDBRANCH   1  30
TORSDOF 17
ENDMDL
MODEL 3
REMARK VINA RESULT: -9.235538355      2.469      3.738
REMARK  17 active torsions:
REMARK  status: ('A' for Active; 'I' for Inactive)
REMARK    1  A    between atoms: N1_1  and  C1_4 
REMARK    2  A    between atoms: C2_7  and  C3_8 
REMARK    3  A    between atoms: C3_8  and  O1_9 
REMARK    4  A    between atoms: C3_8  and  C4_11 
REMARK    5  A    between atoms: C4_11  and  N3_12 
REMARK    6  A    between atoms: C4_11  and  N10_42 
REMARK    7  A    between atoms: N3_12  and  N4_14 
REMARK    8  A    between atoms: N4_14  and  N5_16 
REMARK    9  A    between atoms: N6_19  and  N7_20 
REMARK   10  A    between atoms: C7_22  and  C8_23 
REMARK   11  A    between atoms: C9_24  and  O2_25 
REMARK   12  A    between atoms: C13_36  and  C14_37 
REMARK   13  A    between atoms: C14_37  and  O5_38 
REMARK   14  A    between atoms: C14_37  and  O6_40 
REMARK   15  A    between atoms: C16_44  and  S1_45 
REMARK   16  A    between atoms: S1_45  and  N11_46 
REMARK   17  A    between atoms: C19_53  and  O9_54 
ROOT
HETATM    1  N3  UNL     1      27.339  73.829  -2.330  1.00  0.00    -0.272 N 
ATOM      2  H3  UNL     1      27.727  73.855  -1.386  1.00  0.00     0.190 HD
ENDROOT
BRANCH   1   3
HETATM    3  C4  UNL     1      26.507  74.776  -2.633  1.00  0.00     0.165 C 
BRANCH   3   4
HETATM    4  C3  UNL     1      26.918  76.114  -2.719  1.00  0.00     0.139 C 
BRANCH   4   5
HETATM    5  C2  UNL     1      27.701  76.829  -3.752  1.00  0.00     0.078 A 
HETATM    6  N2  UNL     1      28.162  76.176  -4.815  1.00  0.00    -0.334 N 
HETATM    7  C1  UNL     1      28.865  76.848  -5.716  1.00  0.00     0.142 A 
ATOM      8  H2  UNL     1      27.980  75.180  -4.935  1.00  0.00     0.168 HD
HETATM    9  S2  UNL     1      28.914  78.422  -5.121  1.00  0.00    -0.064 SA
HETATM   10  C20 UNL     1      27.993  78.153  -3.675  1.00  0.00     0.085 A 
BRANCH   7  11
HETATM   11  N1  UNL     1      29.397  76.369  -6.828  1.00  0.00    -0.380 N 
ATOM     12  H12 UNL     1      29.751  75.430  -7.011  1.00  0.00     0.158 HD
ATOM     13  H11 UNL     1      29.544  76.871  -7.703  1.00  0.00     0.158 HD
ENDBRANCH   7  11
ENDBRANCH   4   5
BRANCH   4  14
HETATM   14  O1  UNL     1      26.561  76.893  -1.721  1.00  0.00    -0.355 OA
ATOM     15  H1  UNL     1      27.283  77.096  -1.137  1.00  0.00     0.218 HD
ENDBRANCH   4  14
ENDBRANCH   3   4
BRANCH   3  16
HETATM   16  N10 UNL     1      25.181  74.244  -2.860  1.00  0.00    -0.284 N 
HETATM   17  C15 UNL     1      24.657  74.132  -4.097  1.00  0.00     0.126 A 
HETATM   18  C16 UNL     1      23.436  73.586  -4.391  1.00  0.00     0.095 A 
HETATM   19  C17 UNL     1      22.685  73.114  -3.337  1.00  0.00     0.031 A 
HETATM   20  C18 UNL     1      23.200  73.215  -2.051  1.00  0.00     0.058 A 
HETATM   21  C19 UNL     1      24.438  73.778  -1.829  1.00  0.00     0.147 A 
BRANCH  18  22
HETATM   22  S1  UNL     1      22.817  73.474  -6.026  1.00  0.00     0.258 S 
HETATM   23  O7  UNL     1      22.716  72.059  -6.491  1.00  0.00    -0.201 OA
HETATM   24  O8  UNL     1      21.466  74.112  -6.082  1.00  0.00    -0.201 OA
BRANCH  22  25
HETATM   25  N11 UNL     1      23.847  74.394  -7.099  1.00  0.00    -0.324 N 
ATOM     26 2H11 UNL     1      24.668  74.020  -7.574  1.00  0.00     0.169 HD
ATOM     27 1H11 UNL     1      23.495  75.349  -7.168  1.00  0.00     0.169 HD
ENDBRANCH  22  25
ENDBRANCH  18  22
BRANCH  21  28
HETATM   28  O9  UNL     1      24.929  73.868  -0.535  1.00  0.00    -0.346 OA
ATOM     29  H9  UNL     1      24.446  73.470   0.179  1.00  0.00     0.219 HD
ENDBRANCH  21  28
ENDBRANCH   3  16
ENDBRANCH   1   3
BRANCH   1  30
HETATM   30  N4  UNL     1      27.752  72.814  -3.115  1.00  0.00    -0.260 N 
ATOM     31  H4  UNL     1      27.777  71.857  -2.764  1.00  0.00     0.202 HD
BRANCH  30  32
HETATM   32  N5  UNL     1      28.154  73.115  -4.451  1.00  0.00    -0.204 NA
HETATM   33  C5  UNL     1      29.537  73.426  -4.452  1.00  0.00     0.137 C 
HETATM   34  C6  UNL     1      30.344  72.856  -5.573  1.00  0.00     0.158 C 
HETATM   35  N6  UNL     1      30.053  71.465  -5.808  1.00  0.00    -0.325 N 
HETATM   36  C12 UNL     1      28.712  70.984  -5.583  1.00  0.00     0.169 C 
HETATM   37  C13 UNL     1      27.728  72.067  -5.322  1.00  0.00     0.155 C 
BRANCH  35  38
HETATM   38  N7  UNL     1      31.067  70.630  -6.239  1.00  0.00    -0.313 N 
HETATM   39  C7  UNL     1      31.264  70.310  -7.465  1.00  0.00     0.128 C 
ATOM     40  H7  UNL     1      31.699  70.244  -5.537  1.00  0.00     0.185 HD
BRANCH  39  41
HETATM   41  C8  UNL     1      32.339  69.428  -7.889  1.00  0.00     0.100 A 
HETATM   42  C9  UNL     1      32.676  68.295  -7.161  1.00  0.00     0.161 A 
HETATM   43  N8  UNL     1      33.668  67.516  -7.586  1.00  0.00    -0.288 N 
HETATM   44  C10 UNL     1      34.378  67.773  -8.704  1.00  0.00     0.329 A 
ATOM     45  H8  UNL     1      33.903  66.686  -7.040  1.00  0.00     0.172 HD
HETATM   46  O3  UNL     1      35.321  66.993  -9.066  1.00  0.00    -0.247 OA
HETATM   47  N9  UNL     1      34.074  68.864  -9.427  1.00  0.00    -0.275 N 
HETATM   48  C11 UNL     1      33.080  69.674  -9.031  1.00  0.00     0.265 A 
ATOM     49  H9  UNL     1      34.598  69.076 -10.275  1.00  0.00     0.173 HD
HETATM   50  O4  UNL     1      32.790  70.697  -9.705  1.00  0.00    -0.267 OA
BRANCH  42  51
HETATM   51  O2  UNL     1      31.970  67.990  -6.002  1.00  0.00    -0.345 OA
ATOM     52  H2  UNL     1      32.444  67.718  -5.224  1.00  0.00     0.219 HD
ENDBRANCH  42  51
ENDBRANCH  39  41
ENDBRANCH  35  38
BRANCH  37  53
HETATM   53  C14 UNL     1      27.153  72.667  -6.592  1.00  0.00     0.275 C 
BRANCH  53  54
HETATM   54  O5  UNL     1      27.031  74.057  -6.444  1.00  0.00    -0.370 OA
ATOM     55  H5  UNL     1      27.759  74.388  -5.931  1.00  0.00     0.212 HD
ENDBRANCH  53  54
BRANCH  53  56
HETATM   56  O6  UNL     1      25.860  72.194  -6.837  1.00  0.00    -0.370 OA
ATOM     57  H6  UNL     1      25.682  71.406  -6.337  1.00  0.00     0.212 HD
ENDBRANCH  53  56
ENDBRANCH  37  53
ENDBRANCH  30  32
ENDBRANCH   1  30
TORSDOF 17
ENDMDL
MODEL 4
REMARK VINA RESULT: -9.222276704      4.301     10.726
REMARK  17 active torsions:
REMARK  status: ('A' for Active; 'I' for Inactive)
REMARK    1  A    between atoms: N1_1  and  C1_4 
REMARK    2  A    between atoms: C2_7  and  C3_8 
REMARK    3  A    between atoms: C3_8  and  O1_9 
REMARK    4  A    between atoms: C3_8  and  C4_11 
REMARK    5  A    between atoms: C4_11  and  N3_12 
REMARK    6  A    between atoms: C4_11  and  N10_42 
REMARK    7  A    between atoms: N3_12  and  N4_14 
REMARK    8  A    between atoms: N4_14  and  N5_16 
REMARK    9  A    between atoms: N6_19  and  N7_20 
REMARK   10  A    between atoms: C7_22  and  C8_23 
REMARK   11  A    between atoms: C9_24  and  O2_25 
REMARK   12  A    between atoms: C13_36  and  C14_37 
REMARK   13  A    between atoms: C14_37  and  O5_38 
REMARK   14  A    between atoms: C14_37  and  O6_40 
REMARK   15  A    between atoms: C16_44  and  S1_45 
REMARK   16  A    between atoms: S1_45  and  N11_46 
REMARK   17  A    between atoms: C19_53  and  O9_54 
ROOT
HETATM    1  N3  UNL     1      26.438  74.309  -4.092  1.00  0.00    -0.272 N 
ATOM      2  H3  UNL     1      26.162  73.736  -4.889  1.00  0.00     0.190 HD
ENDROOT
BRANCH   1   3
HETATM    3  C4  UNL     1      27.689  74.645  -4.033  1.00  0.00     0.165 C 
BRANCH   3   4
HETATM    4  C3  UNL     1      28.085  75.987  -3.959  1.00  0.00     0.139 C 
BRANCH   4   5
HETATM    5  C2  UNL     1      28.568  76.920  -5.002  1.00  0.00     0.078 A 
HETATM    6  N2  UNL     1      29.332  77.958  -4.672  1.00  0.00    -0.334 N 
HETATM    7  C1  UNL     1      29.741  78.775  -5.633  1.00  0.00     0.142 A 
ATOM      8  H2  UNL     1      29.599  78.121  -3.702  1.00  0.00     0.168 HD
HETATM    9  S2  UNL     1      29.077  78.135  -7.040  1.00  0.00    -0.064 SA
HETATM   10  C20 UNL     1      28.263  76.782  -6.318  1.00  0.00     0.085 A 
BRANCH   7  11
HETATM   11  N1  UNL     1      30.502  79.848  -5.492  1.00  0.00    -0.380 N 
ATOM     12  H12 UNL     1      31.279  80.158  -6.074  1.00  0.00     0.158 HD
ATOM     13  H11 UNL     1      30.434  80.556  -4.761  1.00  0.00     0.158 HD
ENDBRANCH   7  11
ENDBRANCH   4   5
BRANCH   4  14
HETATM   14  O1  UNL     1      28.028  76.542  -2.768  1.00  0.00    -0.355 OA
ATOM     15  H1  UNL     1      27.352  77.207  -2.704  1.00  0.00     0.218 HD
ENDBRANCH   4  14
ENDBRANCH   3   4
BRANCH   3  16
HETATM   16  N10 UNL     1      28.538  73.473  -4.043  1.00  0.00    -0.284 N 
HETATM   17  C15 UNL     1      28.950  72.898  -5.190  1.00  0.00     0.126 A 
HETATM   18  C16 UNL     1      29.797  71.826  -5.276  1.00  0.00     0.095 A 
HETATM   19  C17 UNL     1      30.265  71.294  -4.095  1.00  0.00     0.031 A 
HETATM   20  C18 UNL     1      29.858  71.867  -2.897  1.00  0.00     0.058 A 
HETATM   21  C19 UNL     1      29.002  72.946  -2.886  1.00  0.00     0.147 A 
BRANCH  18  22
HETATM   22  S1  UNL     1      30.291  71.128  -6.806  1.00  0.00     0.258 S 
HETATM   23  O7  UNL     1      31.041  72.104  -7.651  1.00  0.00    -0.201 OA
HETATM   24  O8  UNL     1      31.153  69.935  -6.544  1.00  0.00    -0.201 OA
BRANCH  22  25
HETATM   25  N11 UNL     1      28.879  70.545  -7.658  1.00  0.00    -0.324 N 
ATOM     26 2H11 UNL     1      27.932  70.896  -7.516  1.00  0.00     0.169 HD
ATOM     27 1H11 UNL     1      29.157  69.810  -8.308  1.00  0.00     0.169 HD
ENDBRANCH  22  25
ENDBRANCH  18  22
BRANCH  21  28
HETATM   28  O9  UNL     1      28.609  73.499  -1.675  1.00  0.00    -0.346 OA
ATOM     29  H9  UNL     1      28.011  73.022  -1.113  1.00  0.00     0.219 HD
ENDBRANCH  21  28
ENDBRANCH   3  16
ENDBRANCH   1   3
BRANCH   1  30
HETATM   30  N4  UNL     1      25.458  74.628  -3.222  1.00  0.00    -0.260 N 
ATOM     31  H4  UNL     1      25.308  75.595  -2.934  1.00  0.00     0.202 HD
BRANCH  30  32
HETATM   32  N5  UNL     1      24.636  73.577  -2.716  1.00  0.00    -0.204 NA
HETATM   33  C5  UNL     1      25.105  73.210  -1.430  1.00  0.00     0.137 C 
HETATM   34  C6  UNL     1      24.062  72.955  -0.391  1.00  0.00     0.158 C 
HETATM   35  N6  UNL     1      23.040  73.971  -0.377  1.00  0.00    -0.325 N 
HETATM   36  C12 UNL     1      22.667  74.602  -1.619  1.00  0.00     0.169 C 
HETATM   37  C13 UNL     1      23.264  73.956  -2.818  1.00  0.00     0.155 C 
BRANCH  35  38
HETATM   38  N7  UNL     1      22.451  74.315   0.825  1.00  0.00    -0.313 N 
HETATM   39  C7  UNL     1      22.963  74.070   1.974  1.00  0.00     0.128 C 
ATOM     40  H7  UNL     1      21.551  74.794   0.796  1.00  0.00     0.185 HD
BRANCH  39  41
HETATM   41  C8  UNL     1      22.320  74.443   3.223  1.00  0.00     0.100 A 
HETATM   42  C9  UNL     1      22.917  75.329   4.109  1.00  0.00     0.161 A 
HETATM   43  N8  UNL     1      22.293  75.643   5.242  1.00  0.00    -0.288 N 
HETATM   44  C10 UNL     1      21.089  75.137   5.582  1.00  0.00     0.329 A 
ATOM     45  H8  UNL     1      22.745  76.296   5.882  1.00  0.00     0.172 HD
HETATM   46  O3  UNL     1      20.534  75.471   6.682  1.00  0.00    -0.247 OA
HETATM   47  N9  UNL     1      20.488  74.276   4.743  1.00  0.00    -0.275 N 
HETATM   48  C11 UNL     1      21.087  73.935   3.591  1.00  0.00     0.265 A 
ATOM     49  H9  UNL     1      19.578  73.882   4.982  1.00  0.00     0.173 HD
HETATM   50  O4  UNL     1      20.528  73.130   2.801  1.00  0.00    -0.267 OA
BRANCH  42  51
HETATM   51  O2  UNL     1      24.158  75.877   3.799  1.00  0.00    -0.345 OA
ATOM     52  H2  UNL     1      24.288  76.293   2.955  1.00  0.00     0.219 HD
ENDBRANCH  42  51
ENDBRANCH  39  41
ENDBRANCH  35  38
BRANCH  37  53
HETATM   53  C14 UNL     1      22.450  72.782  -3.328  1.00  0.00     0.275 C 
BRANCH  53  54
HETATM   54  O5  UNL     1      22.925  72.391  -4.588  1.00  0.00    -0.370 OA
ATOM     55  H5  UNL     1      23.391  71.566  -4.512  1.00  0.00     0.212 HD
ENDBRANCH  53  54
BRANCH  53  56
HETATM   56  O6  UNL     1      21.111  73.136  -3.517  1.00  0.00    -0.370 OA
ATOM     57  H6  UNL     1      20.548  72.370  -3.518  1.00  0.00     0.212 HD
ENDBRANCH  53  56
ENDBRANCH  37  53
ENDBRANCH  30  32
ENDBRANCH   1  30
TORSDOF 17
ENDMDL
MODEL 5
REMARK VINA RESULT: -9.190242430      4.410      8.759
REMARK  17 active torsions:
REMARK  status: ('A' for Active; 'I' for Inactive)
REMARK    1  A    between atoms: N1_1  and  C1_4 
REMARK    2  A    between atoms: C2_7  and  C3_8 
REMARK    3  A    between atoms: C3_8  and  O1_9 
REMARK    4  A    between atoms: C3_8  and  C4_11 
REMARK    5  A    between atoms: C4_11  and  N3_12 
REMARK    6  A    between atoms: C4_11  and  N10_42 
REMARK    7  A    between atoms: N3_12  and  N4_14 
REMARK    8  A    between atoms: N4_14  and  N5_16 
REMARK    9  A    between atoms: N6_19  and  N7_20 
REMARK   10  A    between atoms: C7_22  and  C8_23 
REMARK   11  A    between atoms: C9_24  and  O2_25 
REMARK   12  A    between atoms: C13_36  and  C14_37 
REMARK   13  A    between atoms: C14_37  and  O5_38 
REMARK   14  A    between atoms: C14_37  and  O6_40 
REMARK   15  A    between atoms: C16_44  and  S1_45 
REMARK   16  A    between atoms: S1_45  and  N11_46 
REMARK   17  A    between atoms: C19_53  and  O9_54 
ROOT
HETATM    1  N3  UNL     1      27.514  73.282  -5.467  1.00  0.00    -0.272 N 
ATOM      2  H3  UNL     1      27.455  72.339  -5.082  1.00  0.00     0.190 HD
ENDROOT
BRANCH   1   3
HETATM    3  C4  UNL     1      28.410  74.059  -4.943  1.00  0.00     0.165 C 
BRANCH   3   4
HETATM    4  C3  UNL     1      28.946  75.143  -5.653  1.00  0.00     0.139 C 
BRANCH   4   5
HETATM    5  C2  UNL     1      28.974  76.591  -5.347  1.00  0.00     0.078 A 
HETATM    6  N2  UNL     1      29.855  77.386  -5.947  1.00  0.00    -0.334 N 
HETATM    7  C1  UNL     1      29.856  78.676  -5.644  1.00  0.00     0.142 A 
ATOM      8  H2  UNL     1      30.516  77.012  -6.628  1.00  0.00     0.168 HD
HETATM    9  S2  UNL     1      28.627  78.840  -4.505  1.00  0.00    -0.064 SA
HETATM   10  C20 UNL     1      28.134  77.176  -4.455  1.00  0.00     0.085 A 
BRANCH   7  11
HETATM   11  N1  UNL     1      30.652  79.609  -6.139  1.00  0.00    -0.380 N 
ATOM     12  H12 UNL     1      30.623  80.050  -7.058  1.00  0.00     0.158 HD
ATOM     13  H11 UNL     1      31.445  80.049  -5.671  1.00  0.00     0.158 HD
ENDBRANCH   7  11
ENDBRANCH   4   5
BRANCH   4  14
HETATM   14  O1  UNL     1      29.531  74.853  -6.795  1.00  0.00    -0.355 OA
ATOM     15  H1  UNL     1      30.332  75.344  -6.933  1.00  0.00     0.218 HD
ENDBRANCH   4  14
ENDBRANCH   3   4
BRANCH   3  16
HETATM   16  N10 UNL     1      28.726  73.645  -3.593  1.00  0.00    -0.284 N 
HETATM   17  C15 UNL     1      28.343  74.361  -2.517  1.00  0.00     0.126 A 
HETATM   18  C16 UNL     1      28.555  74.000  -1.213  1.00  0.00     0.095 A 
HETATM   19  C17 UNL     1      29.214  72.812  -0.985  1.00  0.00     0.031 A 
HETATM   20  C18 UNL     1      29.620  72.053  -2.075  1.00  0.00     0.058 A 
HETATM   21  C19 UNL     1      29.372  72.478  -3.362  1.00  0.00     0.147 A 
BRANCH  18  22
HETATM   22  S1  UNL     1      28.029  74.982   0.139  1.00  0.00     0.258 S 
HETATM   23  O7  UNL     1      26.899  74.352   0.883  1.00  0.00    -0.201 OA
HETATM   24  O8  UNL     1      29.180  75.190   1.070  1.00  0.00    -0.201 OA
BRANCH  22  25
HETATM   25  N11 UNL     1      27.566  76.566  -0.442  1.00  0.00    -0.324 N 
ATOM     26 2H11 UNL     1      27.041  76.737  -1.298  1.00  0.00     0.169 HD
ATOM     27 1H11 UNL     1      27.904  77.276   0.209  1.00  0.00     0.169 HD
ENDBRANCH  22  25
ENDBRANCH  18  22
BRANCH  21  28
HETATM   28  O9  UNL     1      29.789  71.702  -4.434  1.00  0.00    -0.346 OA
ATOM     29  H9  UNL     1      30.239  72.111  -5.163  1.00  0.00     0.219 HD
ENDBRANCH  21  28
ENDBRANCH   3  16
ENDBRANCH   1   3
BRANCH   1  30
HETATM   30  N4  UNL     1      26.650  73.574  -6.460  1.00  0.00    -0.260 N 
ATOM     31  H4  UNL     1      26.986  73.898  -7.367  1.00  0.00     0.202 HD
BRANCH  30  32
HETATM   32  N5  UNL     1      25.254  73.419  -6.208  1.00  0.00    -0.204 NA
HETATM   33  C5  UNL     1      25.074  72.375  -5.267  1.00  0.00     0.137 C 
HETATM   34  C6  UNL     1      24.058  72.613  -4.198  1.00  0.00     0.158 C 
HETATM   35  N6  UNL     1      24.177  73.923  -3.608  1.00  0.00    -0.325 N 
HETATM   36  C12 UNL     1      24.611  75.023  -4.434  1.00  0.00     0.169 C 
HETATM   37  C13 UNL     1      24.687  74.688  -5.881  1.00  0.00     0.155 C 
BRANCH  35  38
HETATM   38  N7  UNL     1      23.876  74.087  -2.269  1.00  0.00    -0.313 N 
HETATM   39  C7  UNL     1      22.927  73.474  -1.665  1.00  0.00     0.128 C 
ATOM     40  H7  UNL     1      24.446  74.737  -1.728  1.00  0.00     0.185 HD
BRANCH  39  41
HETATM   41  C8  UNL     1      22.633  73.667  -0.254  1.00  0.00     0.100 A 
HETATM   42  C9  UNL     1      23.544  73.310   0.731  1.00  0.00     0.161 A 
HETATM   43  N8  UNL     1      23.234  73.504   2.011  1.00  0.00    -0.288 N 
HETATM   44  C10 UNL     1      22.061  74.037   2.410  1.00  0.00     0.329 A 
ATOM     45  H8  UNL     1      23.915  73.237   2.722  1.00  0.00     0.172 HD
HETATM   46  O3  UNL     1      21.814  74.200   3.652  1.00  0.00    -0.247 OA
HETATM   47  N9  UNL     1      21.160  74.391   1.478  1.00  0.00    -0.275 N 
HETATM   48  C11 UNL     1      21.437  74.211   0.177  1.00  0.00     0.265 A 
ATOM     49  H9  UNL     1      20.267  74.795   1.759  1.00  0.00     0.173 HD
HETATM   50  O4  UNL     1      20.597  74.541  -0.701  1.00  0.00    -0.267 OA
BRANCH  42  51
HETATM   51  O2  UNL     1      24.768  72.758   0.365  1.00  0.00    -0.345 OA
ATOM     52  H2  UNL     1      25.451  72.661   1.018  1.00  0.00     0.219 HD
ENDBRANCH  42  51
ENDBRANCH  39  41
ENDBRANCH  35  38
BRANCH  37  53
HETATM   53  C14 UNL     1      23.360  74.850  -6.599  1.00  0.00     0.275 C 
BRANCH  53  54
HETATM   54  O5  UNL     1      23.587  75.276  -7.916  1.00  0.00    -0.370 OA
ATOM     55  H5  UNL     1      23.512  76.222  -7.962  1.00  0.00     0.212 HD
ENDBRANCH  53  54
BRANCH  53  56
HETATM   56  O6  UNL     1      22.579  75.844  -6.004  1.00  0.00    -0.370 OA
ATOM     57  H6  UNL     1      23.034  76.677  -5.987  1.00  0.00     0.212 HD
ENDBRANCH  53  56
ENDBRANCH  37  53
ENDBRANCH  30  32
ENDBRANCH   1  30
TORSDOF 17
ENDMDL
