MODEL 1
REMARK VINA RESULT: -8.067901172      0.000      0.000
REMARK  3 active torsions:
REMARK  status: ('A' for Active; 'I' for Inactive)
REMARK    1  A    between atoms: C4_7  and  C5_8 
REMARK    2  A    between atoms: C5_8  and  N2_9 
REMARK    3  A    between atoms: N2_9  and  C6_11 
ROOT
HETATM    1  N2  UNL     1      28.088  -4.897  60.668  1.00  0.00    -0.410 N 
ATOM      2  H2  UNL     1      27.455  -4.183  60.307  1.00  0.00     0.154 HD
ENDROOT
BRANCH   1   3
HETATM    3  C5  UNL     1      27.957  -6.270  60.323  1.00  0.00     0.153 C 
BRANCH   3   4
HETATM    4  C4  UNL     1      27.364  -6.473  58.945  1.00  0.00     0.197 C 
HETATM    5  C3  UNL     1      28.318  -7.272  58.103  1.00  0.00     0.107 A 
HETATM    6  C2  UNL     1      27.824  -8.058  57.055  1.00  0.00     0.045 A 
HETATM    7  O1  UNL     1      29.598  -7.439  58.095  1.00  0.00    -0.305 OA
HETATM    8  N1  UNL     1      28.889  -8.636  56.504  1.00  0.00    -0.348 N 
HETATM    9  C17 UNL     1      26.384  -8.126  56.749  1.00  0.00     0.086 C 
HETATM   10  C1  UNL     1      29.998  -8.250  57.154  1.00  0.00     0.233 A 
ATOM     11  H1  UNL     1      28.865  -9.275  55.710  1.00  0.00     0.167 HD
HETATM   12  C16 UNL     1      25.654  -7.202  57.697  1.00  0.00     0.175 C 
HETATM   13  O2  UNL     1      26.188  -7.226  58.978  1.00  0.00    -0.377 OA
ENDBRANCH   3   4
ENDBRANCH   1   3
BRANCH   1  14
HETATM   14  C6  UNL     1      29.157  -4.583  61.547  1.00  0.00     0.026 C 
HETATM   15  C7  UNL     1      30.476  -5.043  60.964  1.00  0.00     0.035 C 
HETATM   16  C8  UNL     1      31.641  -4.639  61.843  1.00  0.00    -0.012 C 
HETATM   17  C9  UNL     1      31.432  -5.252  63.215  1.00  0.00     0.009 C 
HETATM   18  C13 UNL     1      31.743  -3.154  61.963  1.00  0.00     0.009 C 
HETATM   19  C10 UNL     1      30.170  -4.657  63.781  1.00  0.00    -0.012 C 
HETATM   20  C11 UNL     1      30.227  -3.161  63.874  1.00  0.00     0.009 C 
HETATM   21  C15 UNL     1      29.017  -5.146  62.929  1.00  0.00     0.035 C 
HETATM   22  C12 UNL     1      30.413  -2.614  62.480  1.00  0.00    -0.012 C 
HETATM   23  C14 UNL     1      29.254  -3.055  61.642  1.00  0.00     0.035 C 
ENDBRANCH   1  14
TORSDOF 3
ENDMDL
MODEL 2
REMARK VINA RESULT: -8.039569341      0.059      1.607
REMARK  3 active torsions:
REMARK  status: ('A' for Active; 'I' for Inactive)
REMARK    1  A    between atoms: C4_7  and  C5_8 
REMARK    2  A    between atoms: C5_8  and  N2_9 
REMARK    3  A    between atoms: N2_9  and  C6_11 
ROOT
HETATM    1  N2  UNL     1      28.096  -4.893  60.677  1.00  0.00    -0.410 N 
ATOM      2  H2  UNL     1      27.382  -4.216  60.407  1.00  0.00     0.154 HD
ENDROOT
BRANCH   1   3
HETATM    3  C5  UNL     1      28.019  -6.264  60.304  1.00  0.00     0.153 C 
BRANCH   3   4
HETATM    4  C4  UNL     1      27.396  -6.466  58.940  1.00  0.00     0.197 C 
HETATM    5  C3  UNL     1      28.323  -7.280  58.082  1.00  0.00     0.107 A 
HETATM    6  C2  UNL     1      27.799  -8.064  57.048  1.00  0.00     0.045 A 
HETATM    7  O1  UNL     1      29.601  -7.462  58.049  1.00  0.00    -0.305 OA
HETATM    8  N1  UNL     1      28.845  -8.657  56.478  1.00  0.00    -0.348 N 
HETATM    9  C17 UNL     1      26.352  -8.116  56.772  1.00  0.00     0.086 C 
HETATM   10  C1  UNL     1      29.972  -8.281  57.103  1.00  0.00     0.233 A 
ATOM     11  H1  UNL     1      28.798  -9.299  55.687  1.00  0.00     0.167 HD
HETATM   12  C16 UNL     1      25.653  -7.179  57.730  1.00  0.00     0.175 C 
HETATM   13  O2  UNL     1      26.212  -7.204  59.000  1.00  0.00    -0.377 OA
ENDBRANCH   3   4
ENDBRANCH   1   3
BRANCH   1  14
HETATM   14  C6  UNL     1      29.229  -4.528  61.449  1.00  0.00     0.026 C 
HETATM   15  C7  UNL     1      29.293  -3.025  61.619  1.00  0.00     0.035 C 
HETATM   16  C8  UNL     1      30.444  -2.619  62.515  1.00  0.00    -0.012 C 
HETATM   17  C9  UNL     1      31.730  -3.132  61.896  1.00  0.00     0.009 C 
HETATM   18  C13 UNL     1      30.286  -3.178  63.890  1.00  0.00     0.009 C 
HETATM   19  C10 UNL     1      31.644  -4.635  61.872  1.00  0.00    -0.012 C 
HETATM   20  C11 UNL     1      31.442  -5.224  63.237  1.00  0.00     0.009 C 
HETATM   21  C15 UNL     1      30.539  -5.011  60.906  1.00  0.00     0.035 C 
HETATM   22  C12 UNL     1      30.142  -4.694  63.787  1.00  0.00    -0.012 C 
HETATM   23  C14 UNL     1      29.038  -5.098  62.861  1.00  0.00     0.035 C 
ENDBRANCH   1  14
TORSDOF 3
ENDMDL
MODEL 3
REMARK VINA RESULT: -7.988112387      0.105      1.587
REMARK  3 active torsions:
REMARK  status: ('A' for Active; 'I' for Inactive)
REMARK    1  A    between atoms: C4_7  and  C5_8 
REMARK    2  A    between atoms: C5_8  and  N2_9 
REMARK    3  A    between atoms: N2_9  and  C6_11 
ROOT
HETATM    1  N2  UNL     1      28.094  -4.826  60.696  1.00  0.00    -0.410 N 
ATOM      2  H2  UNL     1      27.391  -4.161  60.372  1.00  0.00     0.154 HD
ENDROOT
BRANCH   1   3
HETATM    3  C5  UNL     1      28.064  -6.199  60.328  1.00  0.00     0.153 C 
BRANCH   3   4
HETATM    4  C4  UNL     1      27.436  -6.428  58.969  1.00  0.00     0.197 C 
HETATM    5  C3  UNL     1      28.370  -7.243  58.119  1.00  0.00     0.107 A 
HETATM    6  C2  UNL     1      27.850  -8.048  57.099  1.00  0.00     0.045 A 
HETATM    7  O1  UNL     1      29.649  -7.411  58.083  1.00  0.00    -0.305 OA
HETATM    8  N1  UNL     1      28.900  -8.637  56.533  1.00  0.00    -0.348 N 
HETATM    9  C17 UNL     1      26.403  -8.121  56.830  1.00  0.00     0.086 C 
HETATM   10  C1  UNL     1      30.026  -8.239  57.147  1.00  0.00     0.233 A 
ATOM     11  H1  UNL     1      28.857  -9.291  55.751  1.00  0.00     0.167 HD
HETATM   12  C16 UNL     1      25.696  -7.179  57.778  1.00  0.00     0.175 C 
HETATM   13  O2  UNL     1      26.262  -7.179  59.046  1.00  0.00    -0.377 OA
ENDBRANCH   3   4
ENDBRANCH   1   3
BRANCH   1  14
HETATM   14  C6  UNL     1      29.166  -4.440  61.542  1.00  0.00     0.026 C 
HETATM   15  C7  UNL     1      29.055  -5.126  62.886  1.00  0.00     0.035 C 
HETATM   16  C8  UNL     1      30.236  -4.798  63.775  1.00  0.00    -0.012 C 
HETATM   17  C9  UNL     1      30.287  -3.294  63.958  1.00  0.00     0.009 C 
HETATM   18  C13 UNL     1      31.517  -5.279  63.176  1.00  0.00     0.009 C 
HETATM   19  C10 UNL     1      30.521  -2.688  62.599  1.00  0.00    -0.012 C 
HETATM   20  C11 UNL     1      31.781  -3.185  61.954  1.00  0.00     0.009 C 
HETATM   21  C15 UNL     1      29.289  -2.962  61.762  1.00  0.00     0.035 C 
HETATM   22  C12 UNL     1      31.658  -4.678  61.780  1.00  0.00    -0.012 C 
HETATM   23  C14 UNL     1      30.468  -4.957  60.918  1.00  0.00     0.035 C 
ENDBRANCH   1  14
TORSDOF 3
ENDMDL
MODEL 4
REMARK VINA RESULT: -7.913635644      3.797      6.947
REMARK  3 active torsions:
REMARK  status: ('A' for Active; 'I' for Inactive)
REMARK    1  A    between atoms: C4_7  and  C5_8 
REMARK    2  A    between atoms: C5_8  and  N2_9 
REMARK    3  A    between atoms: N2_9  and  C6_11 
ROOT
HETATM    1  N2  UNL     1      31.673  -4.203  62.712  1.00  0.00    -0.410 N 
ATOM      2  H2  UNL     1      32.364  -4.352  63.448  1.00  0.00     0.154 HD
ENDROOT
BRANCH   1   3
HETATM    3  C5  UNL     1      31.540  -2.958  62.039  1.00  0.00     0.153 C 
BRANCH   3   4
HETATM    4  C4  UNL     1      32.860  -2.234  61.878  1.00  0.00     0.197 C 
HETATM    5  C3  UNL     1      32.826  -1.407  60.624  1.00  0.00     0.107 A 
HETATM    6  C2  UNL     1      33.623  -0.260  60.531  1.00  0.00     0.045 A 
HETATM    7  O1  UNL     1      32.193  -1.487  59.503  1.00  0.00    -0.305 OA
HETATM    8  N1  UNL     1      33.382   0.250  59.327  1.00  0.00    -0.348 N 
HETATM    9  C17 UNL     1      34.502   0.165  61.636  1.00  0.00     0.086 C 
HETATM   10  C1  UNL     1      32.487  -0.516  58.683  1.00  0.00     0.233 A 
ATOM     11  H1  UNL     1      33.811   1.096  58.950  1.00  0.00     0.167 HD
HETATM   12  C16 UNL     1      34.392  -0.853  62.748  1.00  0.00     0.175 C 
HETATM   13  O2  UNL     1      33.096  -1.324  62.910  1.00  0.00    -0.377 OA
ENDBRANCH   3   4
ENDBRANCH   1   3
BRANCH   1  14
HETATM   14  C6  UNL     1      30.783  -5.227  62.294  1.00  0.00     0.026 C 
HETATM   15  C7  UNL     1      29.428  -5.050  62.946  1.00  0.00     0.035 C 
HETATM   16  C8  UNL     1      28.436  -6.079  62.446  1.00  0.00    -0.012 C 
HETATM   17  C9  UNL     1      28.989  -7.457  62.752  1.00  0.00     0.009 C 
HETATM   18  C13 UNL     1      28.204  -5.941  60.977  1.00  0.00     0.009 C 
HETATM   19  C10 UNL     1      30.270  -7.606  61.976  1.00  0.00    -0.012 C 
HETATM   20  C11 UNL     1      30.075  -7.430  60.499  1.00  0.00     0.009 C 
HETATM   21  C15 UNL     1      31.267  -6.622  62.553  1.00  0.00     0.035 C 
HETATM   22  C12 UNL     1      29.547  -6.038  60.260  1.00  0.00    -0.012 C 
HETATM   23  C14 UNL     1      30.546  -5.057  60.788  1.00  0.00     0.035 C 
ENDBRANCH   1  14
TORSDOF 3
ENDMDL
MODEL 5
REMARK VINA RESULT: -7.872994635      3.792      6.957
REMARK  3 active torsions:
REMARK  status: ('A' for Active; 'I' for Inactive)
REMARK    1  A    between atoms: C4_7  and  C5_8 
REMARK    2  A    between atoms: C5_8  and  N2_9 
REMARK    3  A    between atoms: N2_9  and  C6_11 
ROOT
HETATM    1  N2  UNL     1      31.718  -4.257  62.591  1.00  0.00    -0.410 N 
ATOM      2  H2  UNL     1      32.440  -4.468  63.280  1.00  0.00     0.154 HD
ENDROOT
BRANCH   1   3
HETATM    3  C5  UNL     1      31.561  -2.958  62.033  1.00  0.00     0.153 C 
BRANCH   3   4
HETATM    4  C4  UNL     1      32.876  -2.223  61.881  1.00  0.00     0.197 C 
HETATM    5  C3  UNL     1      32.841  -1.390  60.631  1.00  0.00     0.107 A 
HETATM    6  C2  UNL     1      33.628  -0.236  60.547  1.00  0.00     0.045 A 
HETATM    7  O1  UNL     1      32.212  -1.470  59.506  1.00  0.00    -0.305 OA
HETATM    8  N1  UNL     1      33.388   0.278  59.343  1.00  0.00    -0.348 N 
HETATM    9  C17 UNL     1      34.499   0.191  61.656  1.00  0.00     0.086 C 
HETATM   10  C1  UNL     1      32.502  -0.493  58.692  1.00  0.00     0.233 A 
ATOM     11  H1  UNL     1      33.812   1.129  58.972  1.00  0.00     0.167 HD
HETATM   12  C16 UNL     1      34.392  -0.833  62.763  1.00  0.00     0.175 C 
HETATM   13  O2  UNL     1      33.100  -1.315  62.918  1.00  0.00    -0.377 OA
ENDBRANCH   3   4
ENDBRANCH   1   3
BRANCH   1  14
HETATM   14  C6  UNL     1      30.806  -5.240  62.126  1.00  0.00     0.026 C 
HETATM   15  C7  UNL     1      31.301  -6.628  62.473  1.00  0.00     0.035 C 
HETATM   16  C8  UNL     1      30.301  -7.690  62.066  1.00  0.00    -0.012 C 
HETATM   17  C9  UNL     1      30.069  -7.573  60.572  1.00  0.00     0.009 C 
HETATM   18  C13 UNL     1      29.007  -7.524  62.793  1.00  0.00     0.009 C 
HETATM   19  C10 UNL     1      29.464  -6.218  60.319  1.00  0.00    -0.012 C 
HETATM   20  C11 UNL     1      28.184  -6.006  61.071  1.00  0.00     0.009 C 
HETATM   21  C15 UNL     1      30.517  -5.182  60.657  1.00  0.00     0.035 C 
HETATM   22  C12 UNL     1      28.485  -6.112  62.545  1.00  0.00    -0.012 C 
HETATM   23  C14 UNL     1      29.492  -5.063  62.897  1.00  0.00     0.035 C 
ENDBRANCH   1  14
TORSDOF 3
ENDMDL
