MODEL 1
REMARK VINA RESULT: -8.501713358      0.000      0.000
REMARK  4 active torsions:
REMARK  status: ('A' for Active; 'I' for Inactive)
REMARK    1  A    between atoms: C4_4  and  C5_5 
REMARK    2  A    between atoms: C6_6  and  C7_7 
REMARK    3  A    between atoms: C10_12  and  C11_13 
REMARK    4  A    between atoms: C14_20  and  C15_21 
ROOT
HETATM    1  C1  UNL     1     -71.009 -45.483 -74.178  1.00  0.00     0.026 C 
HETATM    2  C2  UNL     1     -70.818 -45.802 -72.919  1.00  0.00    -0.016 A 
HETATM    3  C3  UNL     1     -69.812 -45.227 -72.148  1.00  0.00     0.052 A 
HETATM    4  C4  UNL     1     -69.845 -45.748 -70.877  1.00  0.00     0.088 A 
HETATM    5  N1  UNL     1     -70.847 -46.626 -70.858  1.00  0.00    -0.349 N 
ATOM      6  H1  UNL     1     -71.120 -47.180 -70.046  1.00  0.00     0.167 HD
HETATM    7  C10 UNL     1     -71.461 -46.681 -72.089  1.00  0.00     0.044 A 
ENDROOT
BRANCH   7   8
HETATM    8  C11 UNL     1     -72.472 -47.456 -72.329  1.00  0.00     0.051 C 
HETATM    9  C12 UNL     1     -72.650 -48.468 -73.347  1.00  0.00     0.035 A 
HETATM   10  S1  UNL     1     -73.241 -48.284 -74.965  1.00  0.00    -0.027 SA
HETATM   11  C14 UNL     1     -72.431 -49.817 -73.301  1.00  0.00     0.029 A 
HETATM   12  C13 UNL     1     -73.161 -49.915 -75.445  1.00  0.00     0.289 A 
HETATM   13  O1  UNL     1     -73.471 -50.450 -76.569  1.00  0.00    -0.260 OA
HETATM   14  N2  UNL     1     -72.691 -50.529 -74.357  1.00  0.00    -0.320 N 
ATOM     15  H2  UNL     1     -72.538 -51.538 -74.355  1.00  0.00     0.169 HD
BRANCH  11  16
HETATM   16  C15 UNL     1     -71.905 -50.431 -72.017  1.00  0.00     0.054 C 
HETATM   17  C16 UNL     1     -72.471 -51.834 -71.915  1.00  0.00     0.011 C 
ENDBRANCH  11  16
ENDBRANCH   7   8
BRANCH   4  18
HETATM   18  C5  UNL     1     -68.967 -45.417 -69.767  1.00  0.00    -0.048 C 
HETATM   19  C6  UNL     1     -68.224 -45.135 -68.866  1.00  0.00    -0.096 C 
BRANCH  19  20
HETATM   20  C7  UNL     1     -67.301 -44.793 -67.780  1.00  0.00     0.057 C 
HETATM   21  C8  UNL     1     -66.173 -43.895 -68.278  1.00  0.00     0.023 C 
HETATM   22  C9  UNL     1     -68.090 -43.971 -66.778  1.00  0.00     0.023 C 
ENDBRANCH  19  20
ENDBRANCH   4  18
TORSDOF 4
ENDMDL
MODEL 2
REMARK VINA RESULT: -8.499705295      0.701      1.036
REMARK  4 active torsions:
REMARK  status: ('A' for Active; 'I' for Inactive)
REMARK    1  A    between atoms: C4_4  and  C5_5 
REMARK    2  A    between atoms: C6_6  and  C7_7 
REMARK    3  A    between atoms: C10_12  and  C11_13 
REMARK    4  A    between atoms: C14_20  and  C15_21 
ROOT
HETATM    1  C1  UNL     1     -70.575 -46.659 -74.533  1.00  0.00     0.026 C 
HETATM    2  C2  UNL     1     -70.671 -46.570 -73.227  1.00  0.00    -0.016 A 
HETATM    3  C3  UNL     1     -69.781 -45.820 -72.463  1.00  0.00     0.052 A 
HETATM    4  C4  UNL     1     -70.118 -45.911 -71.134  1.00  0.00     0.088 A 
HETATM    5  N1  UNL     1     -71.192 -46.698 -71.072  1.00  0.00    -0.349 N 
ATOM      6  H1  UNL     1     -71.676 -46.954 -70.213  1.00  0.00     0.167 HD
HETATM    7  C10 UNL     1     -71.554 -47.115 -72.333  1.00  0.00     0.044 A 
ENDROOT
BRANCH   7   8
HETATM    8  C11 UNL     1     -72.575 -47.885 -72.546  1.00  0.00     0.051 C 
HETATM    9  C12 UNL     1     -72.749 -48.961 -73.498  1.00  0.00     0.035 A 
HETATM   10  S1  UNL     1     -73.298 -48.876 -75.138  1.00  0.00    -0.027 SA
HETATM   11  C14 UNL     1     -72.558 -50.308 -73.356  1.00  0.00     0.029 A 
HETATM   12  C13 UNL     1     -73.240 -50.537 -75.506  1.00  0.00     0.289 A 
HETATM   13  O1  UNL     1     -73.534 -51.142 -76.598  1.00  0.00    -0.260 OA
HETATM   14  N2  UNL     1     -72.807 -51.085 -74.367  1.00  0.00    -0.320 N 
ATOM     15  H2  UNL     1     -72.675 -52.093 -74.293  1.00  0.00     0.169 HD
BRANCH  11  16
HETATM   16  C15 UNL     1     -72.075 -50.842 -72.020  1.00  0.00     0.054 C 
HETATM   17  C16 UNL     1     -72.473 -52.304 -71.941  1.00  0.00     0.011 C 
ENDBRANCH  11  16
ENDBRANCH   7   8
BRANCH   4  18
HETATM   18  C5  UNL     1     -69.446 -45.280 -70.011  1.00  0.00    -0.048 C 
HETATM   19  C6  UNL     1     -68.871 -44.774 -69.084  1.00  0.00    -0.096 C 
BRANCH  19  20
HETATM   20  C7  UNL     1     -68.159 -44.177 -67.951  1.00  0.00     0.057 C 
HETATM   21  C8  UNL     1     -68.473 -44.913 -66.653  1.00  0.00     0.023 C 
HETATM   22  C9  UNL     1     -66.678 -44.381 -68.210  1.00  0.00     0.023 C 
ENDBRANCH  19  20
ENDBRANCH   4  18
TORSDOF 4
ENDMDL
MODEL 3
REMARK VINA RESULT: -8.459551871      2.038      2.660
REMARK  4 active torsions:
REMARK  status: ('A' for Active; 'I' for Inactive)
REMARK    1  A    between atoms: C4_4  and  C5_5 
REMARK    2  A    between atoms: C6_6  and  C7_7 
REMARK    3  A    between atoms: C10_12  and  C11_13 
REMARK    4  A    between atoms: C14_20  and  C15_21 
ROOT
HETATM    1  C1  UNL     1     -70.584 -45.312 -74.118  1.00  0.00     0.026 C 
HETATM    2  C2  UNL     1     -70.172 -45.712 -72.938  1.00  0.00    -0.016 A 
HETATM    3  C3  UNL     1     -69.909 -44.823 -71.899  1.00  0.00     0.052 A 
HETATM    4  C4  UNL     1     -69.492 -45.516 -70.789  1.00  0.00     0.088 A 
HETATM    5  N1  UNL     1     -69.496 -46.805 -71.128  1.00  0.00    -0.349 N 
ATOM      6  H1  UNL     1     -69.232 -47.571 -70.508  1.00  0.00     0.167 HD
HETATM    7  C10 UNL     1     -69.908 -46.957 -72.432  1.00  0.00     0.044 A 
ENDROOT
BRANCH   7   8
HETATM    8  C11 UNL     1     -70.005 -48.117 -73.002  1.00  0.00     0.051 C 
HETATM    9  C12 UNL     1     -70.820 -49.261 -72.655  1.00  0.00     0.035 A 
HETATM   10  S1  UNL     1     -70.460 -50.555 -71.562  1.00  0.00    -0.027 SA
HETATM   11  C14 UNL     1     -72.056 -49.636 -73.105  1.00  0.00     0.029 A 
HETATM   12  C13 UNL     1     -71.891 -51.455 -71.762  1.00  0.00     0.289 A 
HETATM   13  O1  UNL     1     -72.245 -52.557 -71.210  1.00  0.00    -0.260 OA
HETATM   14  N2  UNL     1     -72.580 -50.735 -72.651  1.00  0.00    -0.320 N 
ATOM     15  H2  UNL     1     -73.500 -51.042 -72.967  1.00  0.00     0.169 HD
BRANCH  11  16
HETATM   16  C15 UNL     1     -72.761 -48.761 -74.125  1.00  0.00     0.054 C 
HETATM   17  C16 UNL     1     -73.518 -47.689 -73.365  1.00  0.00     0.011 C 
ENDBRANCH  11  16
ENDBRANCH   7   8
BRANCH   4  18
HETATM   18  C5  UNL     1     -69.118 -44.966 -69.497  1.00  0.00    -0.048 C 
HETATM   19  C6  UNL     1     -68.785 -44.517 -68.433  1.00  0.00    -0.096 C 
BRANCH  19  20
HETATM   20  C7  UNL     1     -68.361 -43.983 -67.135  1.00  0.00     0.057 C 
HETATM   21  C8  UNL     1     -68.360 -45.069 -66.066  1.00  0.00     0.023 C 
HETATM   22  C9  UNL     1     -66.918 -43.540 -67.296  1.00  0.00     0.023 C 
ENDBRANCH  19  20
ENDBRANCH   4  18
TORSDOF 4
ENDMDL
MODEL 4
REMARK VINA RESULT: -7.971884076      3.433      5.585
REMARK  4 active torsions:
REMARK  status: ('A' for Active; 'I' for Inactive)
REMARK    1  A    between atoms: C4_4  and  C5_5 
REMARK    2  A    between atoms: C6_6  and  C7_7 
REMARK    3  A    between atoms: C10_12  and  C11_13 
REMARK    4  A    between atoms: C14_20  and  C15_21 
ROOT
HETATM    1  C1  UNL     1     -73.059 -51.814 -74.637  1.00  0.00     0.026 C 
HETATM    2  C2  UNL     1     -72.651 -50.930 -73.757  1.00  0.00    -0.016 A 
HETATM    3  C3  UNL     1     -72.338 -49.619 -74.107  1.00  0.00     0.052 A 
HETATM    4  C4  UNL     1     -71.939 -48.923 -72.991  1.00  0.00     0.088 A 
HETATM    5  N1  UNL     1     -72.004 -49.779 -71.972  1.00  0.00    -0.349 N 
ATOM      6  H1  UNL     1     -71.767 -49.553 -71.006  1.00  0.00     0.167 HD
HETATM    7  C10 UNL     1     -72.436 -51.011 -72.407  1.00  0.00     0.044 A 
ENDROOT
BRANCH   7   8
HETATM    8  C11 UNL     1     -72.591 -52.018 -71.605  1.00  0.00     0.051 C 
HETATM    9  C12 UNL     1     -71.903 -53.290 -71.562  1.00  0.00     0.035 A 
HETATM   10  S1  UNL     1     -72.275 -54.751 -72.416  1.00  0.00    -0.027 SA
HETATM   11  C14 UNL     1     -70.815 -53.683 -70.832  1.00  0.00     0.029 A 
HETATM   12  C13 UNL     1     -71.032 -55.729 -71.785  1.00  0.00     0.289 A 
HETATM   13  O1  UNL     1     -70.758 -56.958 -72.030  1.00  0.00    -0.260 OA
HETATM   14  N2  UNL     1     -70.390 -54.905 -70.953  1.00  0.00    -0.320 N 
ATOM     15  H2  UNL     1     -69.581 -55.230 -70.422  1.00  0.00     0.169 HD
BRANCH  11  16
HETATM   16  C15 UNL     1     -70.156 -52.682 -69.902  1.00  0.00     0.054 C 
HETATM   17  C16 UNL     1     -69.076 -51.966 -70.691  1.00  0.00     0.011 C 
ENDBRANCH  11  16
ENDBRANCH   7   8
BRANCH   4  18
HETATM   18  C5  UNL     1     -71.527 -47.531 -72.923  1.00  0.00    -0.048 C 
HETATM   19  C6  UNL     1     -71.166 -46.387 -72.855  1.00  0.00    -0.096 C 
BRANCH  19  20
HETATM   20  C7  UNL     1     -70.712 -44.997 -72.754  1.00  0.00     0.057 C 
HETATM   21  C8  UNL     1     -69.856 -44.785 -71.510  1.00  0.00     0.023 C 
HETATM   22  C9  UNL     1     -69.805 -44.746 -73.945  1.00  0.00     0.023 C 
ENDBRANCH  19  20
ENDBRANCH   4  18
TORSDOF 4
ENDMDL
MODEL 5
REMARK VINA RESULT: -7.597757092      3.764      8.574
REMARK  4 active torsions:
REMARK  status: ('A' for Active; 'I' for Inactive)
REMARK    1  A    between atoms: C4_4  and  C5_5 
REMARK    2  A    between atoms: C6_6  and  C7_7 
REMARK    3  A    between atoms: C10_12  and  C11_13 
REMARK    4  A    between atoms: C14_20  and  C15_21 
ROOT
HETATM    1  C1  UNL     1     -75.796 -47.404 -75.026  1.00  0.00     0.026 C 
HETATM    2  C2  UNL     1     -74.795 -48.109 -75.500  1.00  0.00    -0.016 A 
HETATM    3  C3  UNL     1     -74.864 -48.775 -76.721  1.00  0.00     0.052 A 
HETATM    4  C4  UNL     1     -73.682 -49.430 -76.960  1.00  0.00     0.088 A 
HETATM    5  N1  UNL     1     -72.895 -49.179 -75.915  1.00  0.00    -0.349 N 
ATOM      6  H1  UNL     1     -71.945 -49.533 -75.803  1.00  0.00     0.167 HD
HETATM    7  C10 UNL     1     -73.546 -48.375 -75.007  1.00  0.00     0.044 A 
ENDROOT
BRANCH   7   8
HETATM    8  C11 UNL     1     -72.992 -47.979 -73.904  1.00  0.00     0.051 C 
HETATM    9  C12 UNL     1     -71.736 -48.368 -73.299  1.00  0.00     0.035 A 
HETATM   10  S1  UNL     1     -71.416 -49.686 -72.222  1.00  0.00    -0.027 SA
HETATM   11  C14 UNL     1     -70.497 -47.798 -73.389  1.00  0.00     0.029 A 
HETATM   12  C13 UNL     1     -69.754 -49.410 -71.978  1.00  0.00     0.289 A 
HETATM   13  O1  UNL     1     -68.915 -50.063 -71.260  1.00  0.00    -0.260 OA
HETATM   14  N2  UNL     1     -69.514 -48.328 -72.724  1.00  0.00    -0.320 N 
ATOM     15  H2  UNL     1     -68.578 -47.926 -72.770  1.00  0.00     0.169 HD
BRANCH  11  16
HETATM   16  C15 UNL     1     -70.320 -46.562 -74.252  1.00  0.00     0.054 C 
HETATM   17  C16 UNL     1     -70.072 -45.387 -73.325  1.00  0.00     0.011 C 
ENDBRANCH  11  16
ENDBRANCH   7   8
BRANCH   4  18
HETATM   18  C5  UNL     1     -73.343 -50.240 -78.119  1.00  0.00    -0.048 C 
HETATM   19  C6  UNL     1     -73.045 -50.892 -79.084  1.00  0.00    -0.096 C 
BRANCH  19  20
HETATM   20  C7  UNL     1     -72.674 -51.669 -80.270  1.00  0.00     0.057 C 
HETATM   21  C8  UNL     1     -73.770 -51.614 -81.330  1.00  0.00     0.023 C 
HETATM   22  C9  UNL     1     -71.460 -50.988 -80.875  1.00  0.00     0.023 C 
ENDBRANCH  19  20
ENDBRANCH   4  18
TORSDOF 4
ENDMDL
