MODEL 1
REMARK VINA RESULT: -7.060851101      0.000      0.000
REMARK  5 active torsions:
REMARK  status: ('A' for Active; 'I' for Inactive)
REMARK    1  A    between atoms: C3_3  and  C4_4 
REMARK    2  A    between atoms: C4_4  and  N1_5 
REMARK    3  A    between atoms: N1_5  and  C6_7 
REMARK    4  A    between atoms: C6_7  and  N2_9 
REMARK       I    between atoms: C7_11  and  N3_12 
REMARK       I    between atoms: C7_11  and  N4_17 
REMARK       I    between atoms: N3_12  and  C8_14 
REMARK    5  A    between atoms: N4_17  and  C10_19 
ROOT
HETATM    1  C1  UNL     1     -69.860 -44.768 -71.290  1.00  0.00     0.012 C 
HETATM    2  C2  UNL     1     -70.166 -44.965 -72.442  1.00  0.00    -0.116 C 
HETATM    3  C3  UNL     1     -70.547 -45.217 -73.834  1.00  0.00     0.113 C 
ENDROOT
BRANCH   3   4
HETATM    4  C4  UNL     1     -69.966 -46.554 -74.237  1.00  0.00     0.136 C 
BRANCH   4   5
HETATM    5  N1  UNL     1     -70.500 -47.637 -73.438  1.00  0.00    -0.361 N 
HETATM    6  C5  UNL     1     -69.645 -48.448 -72.595  1.00  0.00     0.152 C 
BRANCH   5   7
HETATM    7  C6  UNL     1     -71.881 -47.917 -73.471  1.00  0.00     0.188 C 
HETATM    8  S1  UNL     1     -72.757 -47.735 -72.114  1.00  0.00    -0.040 SA
BRANCH   7   9
HETATM    9  N2  UNL     1     -72.481 -48.345 -74.658  1.00  0.00    -0.166 N 
HETATM   10  C7  UNL     1     -72.823 -49.562 -74.942  1.00  0.00     0.683 C 
HETATM   11  N3  UNL     1     -72.614 -50.619 -74.043  1.00  0.00    -0.160 N 
HETATM   12  N4  UNL     1     -73.414 -49.791 -76.198  1.00  0.00    -0.218 N 
HETATM   13  C8  UNL     1     -72.969 -51.954 -74.303  1.00  0.00     0.231 C 
ATOM     14  H3  UNL     1     -72.177 -50.406 -73.146  1.00  0.00     0.187 HD
HETATM   15  C9  UNL     1     -72.725 -53.054 -73.311  1.00  0.00     0.118 C 
HETATM   16  O1  UNL     1     -73.508 -52.278 -75.382  1.00  0.00    -0.273 OA
ATOM     17  H4  UNL     1     -72.977 -50.460 -76.833  1.00  0.00     0.178 HD
ATOM     18  H2  UNL     1     -72.667 -47.634 -75.366  1.00  0.00     0.186 HD
BRANCH  12  19
HETATM   19  C10 UNL     1     -74.615 -49.114 -76.618  1.00  0.00     0.036 C 
HETATM   20  C11 UNL     1     -75.690 -50.158 -76.835  1.00  0.00     0.038 C 
HETATM   21  C12 UNL     1     -75.004 -48.093 -75.597  1.00  0.00     0.038 C 
HETATM   22  C13 UNL     1     -74.288 -48.419 -77.943  1.00  0.00     0.038 C 
ENDBRANCH  12  19
ENDBRANCH   7   9
ENDBRANCH   5   7
ENDBRANCH   4   5
ENDBRANCH   3   4
TORSDOF 5
ENDMDL
MODEL 2
REMARK VINA RESULT: -6.694062533      2.718      5.777
REMARK  5 active torsions:
REMARK  status: ('A' for Active; 'I' for Inactive)
REMARK    1  A    between atoms: C3_3  and  C4_4 
REMARK    2  A    between atoms: C4_4  and  N1_5 
REMARK    3  A    between atoms: N1_5  and  C6_7 
REMARK    4  A    between atoms: C6_7  and  N2_9 
REMARK       I    between atoms: C7_11  and  N3_12 
REMARK       I    between atoms: C7_11  and  N4_17 
REMARK       I    between atoms: N3_12  and  C8_14 
REMARK    5  A    between atoms: N4_17  and  C10_19 
ROOT
HETATM    1  C1  UNL     1     -75.672 -48.529 -76.696  1.00  0.00     0.012 C 
HETATM    2  C2  UNL     1     -74.795 -49.358 -76.645  1.00  0.00    -0.116 C 
HETATM    3  C3  UNL     1     -73.738 -50.370 -76.570  1.00  0.00     0.113 C 
ENDROOT
BRANCH   3   4
HETATM    4  C4  UNL     1     -72.959 -50.130 -75.296  1.00  0.00     0.136 C 
BRANCH   4   5
HETATM    5  N1  UNL     1     -72.903 -51.314 -74.467  1.00  0.00    -0.361 N 
HETATM    6  C5  UNL     1     -73.231 -52.623 -74.994  1.00  0.00     0.152 C 
BRANCH   5   7
HETATM    7  C6  UNL     1     -72.521 -51.206 -73.115  1.00  0.00     0.188 C 
HETATM    8  S1  UNL     1     -72.606 -52.520 -72.162  1.00  0.00    -0.040 SA
BRANCH   7   9
HETATM    9  N2  UNL     1     -72.076 -49.982 -72.608  1.00  0.00    -0.166 N 
HETATM   10  C7  UNL     1     -70.937 -49.768 -72.028  1.00  0.00     0.683 C 
HETATM   11  N3  UNL     1     -69.996 -50.793 -71.844  1.00  0.00    -0.160 N 
HETATM   12  N4  UNL     1     -70.675 -48.461 -71.581  1.00  0.00    -0.218 N 
HETATM   13  C8  UNL     1     -68.747 -50.611 -71.224  1.00  0.00     0.231 C 
ATOM     14  H3  UNL     1     -70.231 -51.727 -72.180  1.00  0.00     0.187 HD
HETATM   15  C9  UNL     1     -67.771 -51.737 -71.047  1.00  0.00     0.118 C 
HETATM   16  O1  UNL     1     -68.400 -49.491 -70.793  1.00  0.00    -0.273 OA
ATOM     17  H4  UNL     1     -70.464 -48.311 -70.594  1.00  0.00     0.178 HD
ATOM     18  H2  UNL     1     -72.705 -49.185 -72.702  1.00  0.00     0.186 HD
BRANCH  12  19
HETATM   19  C10 UNL     1     -70.694 -47.325 -72.469  1.00  0.00     0.036 C 
HETATM   20  C11 UNL     1     -70.010 -47.727 -73.758  1.00  0.00     0.038 C 
HETATM   21  C12 UNL     1     -72.104 -46.874 -72.683  1.00  0.00     0.038 C 
HETATM   22  C13 UNL     1     -69.897 -46.214 -71.780  1.00  0.00     0.038 C 
ENDBRANCH  12  19
ENDBRANCH   7   9
ENDBRANCH   5   7
ENDBRANCH   4   5
ENDBRANCH   3   4
TORSDOF 5
ENDMDL
MODEL 3
REMARK VINA RESULT: -6.280684801      2.892      6.098
REMARK  5 active torsions:
REMARK  status: ('A' for Active; 'I' for Inactive)
REMARK    1  A    between atoms: C3_3  and  C4_4 
REMARK    2  A    between atoms: C4_4  and  N1_5 
REMARK    3  A    between atoms: N1_5  and  C6_7 
REMARK    4  A    between atoms: C6_7  and  N2_9 
REMARK       I    between atoms: C7_11  and  N3_12 
REMARK       I    between atoms: C7_11  and  N4_17 
REMARK       I    between atoms: N3_12  and  C8_14 
REMARK    5  A    between atoms: N4_17  and  C10_19 
ROOT
HETATM    1  C1  UNL     1     -73.961 -55.031 -73.156  1.00  0.00     0.012 C 
HETATM    2  C2  UNL     1     -72.967 -54.655 -72.583  1.00  0.00    -0.116 C 
HETATM    3  C3  UNL     1     -71.768 -54.201 -71.872  1.00  0.00     0.113 C 
ENDROOT
BRANCH   3   4
HETATM    4  C4  UNL     1     -72.110 -52.906 -71.171  1.00  0.00     0.136 C 
BRANCH   4   5
HETATM    5  N1  UNL     1     -70.925 -52.160 -70.805  1.00  0.00    -0.361 N 
HETATM    6  C5  UNL     1     -70.081 -52.575 -69.702  1.00  0.00     0.152 C 
BRANCH   5   7
HETATM    7  C6  UNL     1     -70.572 -51.005 -71.530  1.00  0.00     0.188 C 
HETATM    8  S1  UNL     1     -69.026 -50.501 -71.510  1.00  0.00    -0.040 SA
BRANCH   7   9
HETATM    9  N2  UNL     1     -71.542 -50.307 -72.254  1.00  0.00    -0.166 N 
HETATM   10  C7  UNL     1     -71.678 -49.020 -72.300  1.00  0.00     0.683 C 
HETATM   11  N3  UNL     1     -70.823 -48.159 -71.593  1.00  0.00    -0.160 N 
HETATM   12  N4  UNL     1     -72.725 -48.508 -73.087  1.00  0.00    -0.218 N 
HETATM   13  C8  UNL     1     -70.927 -46.758 -71.613  1.00  0.00     0.231 C 
ATOM     14  H3  UNL     1     -70.081 -48.576 -71.031  1.00  0.00     0.187 HD
HETATM   15  C9  UNL     1     -69.991 -45.876 -70.840  1.00  0.00     0.118 C 
HETATM   16  O1  UNL     1     -71.814 -46.188 -72.283  1.00  0.00    -0.273 OA
ATOM     17  H4  UNL     1     -73.425 -47.910 -72.647  1.00  0.00     0.178 HD
ATOM     18  H2  UNL     1     -72.205 -50.863 -72.795  1.00  0.00     0.186 HD
BRANCH  12  19
HETATM   19  C10 UNL     1     -72.843 -48.798 -74.494  1.00  0.00     0.036 C 
HETATM   20  C11 UNL     1     -71.640 -48.207 -75.197  1.00  0.00     0.038 C 
HETATM   21  C12 UNL     1     -72.958 -50.275 -74.697  1.00  0.00     0.038 C 
HETATM   22  C13 UNL     1     -74.122 -48.110 -74.980  1.00  0.00     0.038 C 
ENDBRANCH  12  19
ENDBRANCH   7   9
ENDBRANCH   5   7
ENDBRANCH   4   5
ENDBRANCH   3   4
TORSDOF 5
ENDMDL
MODEL 4
REMARK VINA RESULT: -6.240907828      1.251      1.383
REMARK  5 active torsions:
REMARK  status: ('A' for Active; 'I' for Inactive)
REMARK    1  A    between atoms: C3_3  and  C4_4 
REMARK    2  A    between atoms: C4_4  and  N1_5 
REMARK    3  A    between atoms: N1_5  and  C6_7 
REMARK    4  A    between atoms: C6_7  and  N2_9 
REMARK       I    between atoms: C7_11  and  N3_12 
REMARK       I    between atoms: C7_11  and  N4_17 
REMARK       I    between atoms: N3_12  and  C8_14 
REMARK    5  A    between atoms: N4_17  and  C10_19 
ROOT
HETATM    1  C1  UNL     1     -69.576 -45.256 -70.405  1.00  0.00     0.012 C 
HETATM    2  C2  UNL     1     -69.856 -45.161 -71.576  1.00  0.00    -0.116 C 
HETATM    3  C3  UNL     1     -70.208 -45.033 -72.993  1.00  0.00     0.113 C 
ENDROOT
BRANCH   3   4
HETATM    4  C4  UNL     1     -71.650 -45.459 -73.151  1.00  0.00     0.136 C 
BRANCH   4   5
HETATM    5  N1  UNL     1     -71.790 -46.900 -73.149  1.00  0.00    -0.361 N 
HETATM    6  C5  UNL     1     -72.447 -47.594 -72.059  1.00  0.00     0.152 C 
BRANCH   5   7
HETATM    7  C6  UNL     1     -71.281 -47.655 -74.224  1.00  0.00     0.188 C 
HETATM    8  S1  UNL     1     -69.677 -47.899 -74.330  1.00  0.00    -0.040 SA
BRANCH   7   9
HETATM    9  N2  UNL     1     -72.149 -48.187 -75.180  1.00  0.00    -0.166 N 
HETATM   10  C7  UNL     1     -72.648 -49.382 -75.175  1.00  0.00     0.683 C 
HETATM   11  N3  UNL     1     -72.350 -50.304 -74.159  1.00  0.00    -0.160 N 
HETATM   12  N4  UNL     1     -73.504 -49.731 -76.235  1.00  0.00    -0.218 N 
HETATM   13  C8  UNL     1     -72.867 -51.610 -74.107  1.00  0.00     0.231 C 
ATOM     14  H3  UNL     1     -71.720 -50.009 -73.413  1.00  0.00     0.187 HD
HETATM   15  C9  UNL     1     -72.520 -52.564 -73.001  1.00  0.00     0.118 C 
HETATM   16  O1  UNL     1     -73.645 -52.030 -74.990  1.00  0.00    -0.273 OA
ATOM     17  H4  UNL     1     -73.269 -50.537 -76.813  1.00  0.00     0.178 HD
ATOM     18  H2  UNL     1     -72.415 -47.577 -75.955  1.00  0.00     0.186 HD
BRANCH  12  19
HETATM   19  C10 UNL     1     -74.703 -48.986 -76.532  1.00  0.00     0.036 C 
HETATM   20  C11 UNL     1     -75.823 -49.977 -76.769  1.00  0.00     0.038 C 
HETATM   21  C12 UNL     1     -75.000 -48.039 -75.414  1.00  0.00     0.038 C 
HETATM   22  C13 UNL     1     -74.424 -48.198 -77.815  1.00  0.00     0.038 C 
ENDBRANCH  12  19
ENDBRANCH   7   9
ENDBRANCH   5   7
ENDBRANCH   4   5
ENDBRANCH   3   4
TORSDOF 5
ENDMDL
MODEL 5
REMARK VINA RESULT: -6.041179259      1.127      2.260
REMARK  5 active torsions:
REMARK  status: ('A' for Active; 'I' for Inactive)
REMARK    1  A    between atoms: C3_3  and  C4_4 
REMARK    2  A    between atoms: C4_4  and  N1_5 
REMARK    3  A    between atoms: N1_5  and  C6_7 
REMARK    4  A    between atoms: C6_7  and  N2_9 
REMARK       I    between atoms: C7_11  and  N3_12 
REMARK       I    between atoms: C7_11  and  N4_17 
REMARK       I    between atoms: N3_12  and  C8_14 
REMARK    5  A    between atoms: N4_17  and  C10_19 
ROOT
HETATM    1  C1  UNL     1     -70.043 -50.796 -71.485  1.00  0.00     0.012 C 
HETATM    2  C2  UNL     1     -69.817 -49.653 -71.801  1.00  0.00    -0.116 C 
HETATM    3  C3  UNL     1     -69.559 -48.263 -72.189  1.00  0.00     0.113 C 
ENDROOT
BRANCH   3   4
HETATM    4  C4  UNL     1     -69.786 -48.151 -73.680  1.00  0.00     0.136 C 
BRANCH   4   5
HETATM    5  N1  UNL     1     -70.868 -47.242 -73.994  1.00  0.00    -0.361 N 
HETATM    6  C5  UNL     1     -70.637 -45.820 -74.160  1.00  0.00     0.152 C 
BRANCH   5   7
HETATM    7  C6  UNL     1     -72.178 -47.736 -74.145  1.00  0.00     0.188 C 
HETATM    8  S1  UNL     1     -73.267 -47.463 -72.969  1.00  0.00    -0.040 SA
BRANCH   7   9
HETATM    9  N2  UNL     1     -72.530 -48.450 -75.293  1.00  0.00    -0.166 N 
HETATM   10  C7  UNL     1     -72.756 -49.724 -75.358  1.00  0.00     0.683 C 
HETATM   11  N3  UNL     1     -72.664 -50.551 -74.228  1.00  0.00    -0.160 N 
HETATM   12  N4  UNL     1     -73.095 -50.258 -76.615  1.00  0.00    -0.218 N 
HETATM   13  C8  UNL     1     -72.902 -51.936 -74.246  1.00  0.00     0.231 C 
ATOM     14  H3  UNL     1     -72.410 -50.120 -73.338  1.00  0.00     0.187 HD
HETATM   15  C9  UNL     1     -72.791 -52.782 -73.011  1.00  0.00     0.118 C 
HETATM   16  O1  UNL     1     -73.218 -52.521 -75.303  1.00  0.00    -0.273 OA
ATOM     17  H4  UNL     1     -72.518 -51.003 -77.006  1.00  0.00     0.178 HD
ATOM     18  H2  UNL     1     -72.617 -47.919 -76.161  1.00  0.00     0.186 HD
BRANCH  12  19
HETATM   19  C10 UNL     1     -74.230 -49.788 -77.369  1.00  0.00     0.036 C 
HETATM   20  C11 UNL     1     -75.456 -50.536 -76.888  1.00  0.00     0.038 C 
HETATM   21  C12 UNL     1     -74.364 -48.306 -77.212  1.00  0.00     0.038 C 
HETATM   22  C13 UNL     1     -73.955 -50.127 -78.837  1.00  0.00     0.038 C 
ENDBRANCH  12  19
ENDBRANCH   7   9
ENDBRANCH   5   7
ENDBRANCH   4   5
ENDBRANCH   3   4
TORSDOF 5
ENDMDL
