MODEL 1
REMARK VINA RESULT: -7.409995853      0.000      0.000
REMARK  4 active torsions:
REMARK  status: ('A' for Active; 'I' for Inactive)
REMARK    1  A    between atoms: C2_2  and  N1_4 
REMARK       I    between atoms: N1_4  and  C4_6 
REMARK       I    between atoms: C4_6  and  N2_8 
REMARK    2  A    between atoms: N3_12  and  C8_13 
REMARK    3  A    between atoms: C8_13  and  N4_15 
REMARK    4  A    between atoms: N4_15  and  C9_17 
ROOT
HETATM    1  N1  UNL     1     -73.255 -48.902 -76.183  1.00  0.00    -0.339 N 
ATOM      2  H1  UNL     1     -72.324 -49.122 -76.538  1.00  0.00     0.164 HD
HETATM    3  C4  UNL     1     -73.391 -48.165 -74.982  1.00  0.00     0.318 C 
HETATM    4  O1  UNL     1     -74.576 -47.925 -74.594  1.00  0.00    -0.247 OA
HETATM    5  N2  UNL     1     -72.275 -47.703 -74.227  1.00  0.00    -0.333 N 
HETATM    6  C5  UNL     1     -71.033 -48.060 -74.806  1.00  0.00     0.129 C 
HETATM    7  C6  UNL     1     -69.799 -47.583 -74.127  1.00  0.00     0.040 C 
HETATM    8  C7  UNL     1     -69.658 -48.088 -72.711  1.00  0.00     0.127 C 
HETATM    9  N3  UNL     1     -70.494 -47.212 -71.909  1.00  0.00    -0.357 N 
HETATM   10  C12 UNL     1     -71.926 -47.433 -71.802  1.00  0.00     0.145 C 
HETATM   11  C13 UNL     1     -72.654 -46.975 -73.042  1.00  0.00     0.147 C 
ENDROOT
BRANCH   1  12
HETATM   12  C2  UNL     1     -74.419 -49.346 -76.908  1.00  0.00     0.078 C 
HETATM   13  C1  UNL     1     -74.609 -50.844 -76.759  1.00  0.00     0.032 C 
HETATM   14  C3  UNL     1     -74.310 -49.009 -78.391  1.00  0.00     0.032 C 
ENDBRANCH   1  12
BRANCH   9  15
HETATM   15  C8  UNL     1     -69.943 -46.121 -71.222  1.00  0.00     0.170 C 
HETATM   16  S1  UNL     1     -69.950 -44.655 -71.980  1.00  0.00    -0.041 SA
BRANCH  15  17
HETATM   17  N4  UNL     1     -69.371 -46.141 -69.929  1.00  0.00    -0.363 N 
ATOM     18  H4  UNL     1     -69.317 -47.032 -69.434  1.00  0.00     0.162 HD
BRANCH  17  19
HETATM   19  C9  UNL     1     -68.859 -44.955 -69.277  1.00  0.00     0.075 C 
HETATM   20  C10 UNL     1     -69.833 -44.442 -68.242  1.00  0.00     0.032 C 
HETATM   21  C11 UNL     1     -67.519 -45.212 -68.621  1.00  0.00     0.032 C 
ENDBRANCH  17  19
ENDBRANCH  15  17
ENDBRANCH   9  15
TORSDOF 4
ENDMDL
MODEL 2
REMARK VINA RESULT: -7.114296186      2.306      7.640
REMARK  4 active torsions:
REMARK  status: ('A' for Active; 'I' for Inactive)
REMARK    1  A    between atoms: C2_2  and  N1_4 
REMARK       I    between atoms: N1_4  and  C4_6 
REMARK       I    between atoms: C4_6  and  N2_8 
REMARK    2  A    between atoms: N3_12  and  C8_13 
REMARK    3  A    between atoms: C8_13  and  N4_15 
REMARK    4  A    between atoms: N4_15  and  C9_17 
ROOT
HETATM    1  N1  UNL     1     -70.046 -45.896 -70.245  1.00  0.00    -0.339 N 
ATOM      2  H1  UNL     1     -70.609 -46.565 -69.719  1.00  0.00     0.164 HD
HETATM    3  C4  UNL     1     -70.186 -45.816 -71.652  1.00  0.00     0.318 C 
HETATM    4  O1  UNL     1     -69.457 -44.963 -72.247  1.00  0.00    -0.247 OA
HETATM    5  N2  UNL     1     -71.088 -46.636 -72.388  1.00  0.00    -0.333 N 
HETATM    6  C5  UNL     1     -71.819 -47.528 -71.566  1.00  0.00     0.129 C 
HETATM    7  C6  UNL     1     -72.829 -48.396 -72.225  1.00  0.00     0.040 C 
HETATM    8  C7  UNL     1     -72.242 -49.318 -73.267  1.00  0.00     0.127 C 
HETATM    9  N3  UNL     1     -72.096 -48.502 -74.459  1.00  0.00    -0.357 N 
HETATM   10  C12 UNL     1     -70.945 -47.634 -74.637  1.00  0.00     0.145 C 
HETATM   11  C13 UNL     1     -71.060 -46.379 -73.806  1.00  0.00     0.147 C 
ENDROOT
BRANCH   1  12
HETATM   12  C2  UNL     1     -69.117 -45.042 -69.549  1.00  0.00     0.078 C 
HETATM   13  C1  UNL     1     -67.999 -45.856 -68.924  1.00  0.00     0.032 C 
HETATM   14  C3  UNL     1     -69.814 -44.241 -68.455  1.00  0.00     0.032 C 
ENDBRANCH   1  12
BRANCH   9  15
HETATM   15  C8  UNL     1     -73.069 -48.523 -75.469  1.00  0.00     0.170 C 
HETATM   16  S1  UNL     1     -74.463 -47.679 -75.208  1.00  0.00    -0.041 SA
BRANCH  15  17
HETATM   17  N4  UNL     1     -72.983 -49.199 -76.707  1.00  0.00    -0.363 N 
ATOM     18  H4  UNL     1     -72.228 -48.952 -77.347  1.00  0.00     0.162 HD
BRANCH  17  19
HETATM   19  C9  UNL     1     -73.919 -50.228 -77.108  1.00  0.00     0.075 C 
HETATM   20  C10 UNL     1     -73.665 -50.667 -78.531  1.00  0.00     0.032 C 
HETATM   21  C11 UNL     1     -73.853 -51.431 -76.192  1.00  0.00     0.032 C 
ENDBRANCH  17  19
ENDBRANCH  15  17
ENDBRANCH   9  15
TORSDOF 4
ENDMDL
MODEL 3
REMARK VINA RESULT: -6.295740986      2.475      7.568
REMARK  4 active torsions:
REMARK  status: ('A' for Active; 'I' for Inactive)
REMARK    1  A    between atoms: C2_2  and  N1_4 
REMARK       I    between atoms: N1_4  and  C4_6 
REMARK       I    between atoms: C4_6  and  N2_8 
REMARK    2  A    between atoms: N3_12  and  C8_13 
REMARK    3  A    between atoms: C8_13  and  N4_15 
REMARK    4  A    between atoms: N4_15  and  C9_17 
ROOT
HETATM    1  N1  UNL     1     -68.646 -45.746 -69.695  1.00  0.00    -0.339 N 
ATOM      2  H1  UNL     1     -68.232 -46.676 -69.633  1.00  0.00     0.164 HD
HETATM    3  C4  UNL     1     -69.654 -45.490 -70.655  1.00  0.00     0.318 C 
HETATM    4  O1  UNL     1     -70.128 -44.312 -70.681  1.00  0.00    -0.247 OA
HETATM    5  N2  UNL     1     -70.133 -46.482 -71.558  1.00  0.00    -0.333 N 
HETATM    6  C5  UNL     1     -69.495 -47.735 -71.389  1.00  0.00     0.129 C 
HETATM    7  C6  UNL     1     -69.955 -48.859 -72.246  1.00  0.00     0.040 C 
HETATM    8  C7  UNL     1     -69.781 -48.600 -73.723  1.00  0.00     0.127 C 
HETATM    9  N3  UNL     1     -70.920 -47.782 -74.103  1.00  0.00    -0.357 N 
HETATM   10  C12 UNL     1     -70.915 -46.345 -73.891  1.00  0.00     0.145 C 
HETATM   11  C13 UNL     1     -71.160 -45.995 -72.444  1.00  0.00     0.147 C 
ENDROOT
BRANCH   1  12
HETATM   12  C2  UNL     1     -68.197 -44.704 -68.805  1.00  0.00     0.078 C 
HETATM   13  C1  UNL     1     -66.727 -44.875 -68.471  1.00  0.00     0.032 C 
HETATM   14  C3  UNL     1     -68.999 -44.701 -67.509  1.00  0.00     0.032 C 
ENDBRANCH   1  12
BRANCH   9  15
HETATM   15  C8  UNL     1     -72.062 -48.360 -74.677  1.00  0.00     0.170 C 
HETATM   16  S1  UNL     1     -72.531 -49.843 -74.124  1.00  0.00    -0.041 SA
BRANCH  15  17
HETATM   17  N4  UNL     1     -72.867 -47.801 -75.695  1.00  0.00    -0.363 N 
ATOM     18  H4  UNL     1     -72.525 -46.977 -76.190  1.00  0.00     0.162 HD
BRANCH  17  19
HETATM   19  C9  UNL     1     -74.155 -48.346 -76.068  1.00  0.00     0.075 C 
HETATM   20  C10 UNL     1     -75.274 -47.633 -75.346  1.00  0.00     0.032 C 
HETATM   21  C11 UNL     1     -74.387 -48.262 -77.561  1.00  0.00     0.032 C 
ENDBRANCH  17  19
ENDBRANCH  15  17
ENDBRANCH   9  15
TORSDOF 4
ENDMDL
MODEL 4
REMARK VINA RESULT: -6.229628729      5.167      7.937
REMARK  4 active torsions:
REMARK  status: ('A' for Active; 'I' for Inactive)
REMARK    1  A    between atoms: C2_2  and  N1_4 
REMARK       I    between atoms: N1_4  and  C4_6 
REMARK       I    between atoms: C4_6  and  N2_8 
REMARK    2  A    between atoms: N3_12  and  C8_13 
REMARK    3  A    between atoms: C8_13  and  N4_15 
REMARK    4  A    between atoms: N4_15  and  C9_17 
ROOT
HETATM    1  N1  UNL     1     -70.552 -47.889 -72.426  1.00  0.00    -0.339 N 
ATOM      2  H1  UNL     1     -71.462 -47.958 -72.882  1.00  0.00     0.164 HD
HETATM    3  C4  UNL     1     -69.951 -49.050 -71.881  1.00  0.00     0.318 C 
HETATM    4  O1  UNL     1     -68.818 -48.896 -71.328  1.00  0.00    -0.247 OA
HETATM    5  N2  UNL     1     -70.561 -50.335 -71.936  1.00  0.00    -0.333 N 
HETATM    6  C5  UNL     1     -71.819 -50.321 -72.587  1.00  0.00     0.129 C 
HETATM    7  C6  UNL     1     -72.522 -51.621 -72.746  1.00  0.00     0.040 C 
HETATM    8  C7  UNL     1     -72.840 -52.298 -71.435  1.00  0.00     0.127 C 
HETATM    9  N3  UNL     1     -71.610 -52.960 -71.039  1.00  0.00    -0.357 N 
HETATM   10  C12 UNL     1     -70.552 -52.231 -70.360  1.00  0.00     0.145 C 
HETATM   11  C13 UNL     1     -69.767 -51.367 -71.317  1.00  0.00     0.147 C 
ENDROOT
BRANCH   1  12
HETATM   12  C2  UNL     1     -69.890 -46.612 -72.343  1.00  0.00     0.078 C 
HETATM   13  C1  UNL     1     -70.274 -45.886 -71.067  1.00  0.00     0.032 C 
HETATM   14  C3  UNL     1     -70.239 -45.729 -73.536  1.00  0.00     0.032 C 
ENDBRANCH   1  12
BRANCH   9  15
HETATM   15  C8  UNL     1     -71.403 -54.320 -71.310  1.00  0.00     0.170 C 
HETATM   16  S1  UNL     1     -69.962 -54.983 -70.854  1.00  0.00    -0.041 SA
BRANCH  15  17
HETATM   17  N4  UNL     1     -72.311 -55.199 -71.942  1.00  0.00    -0.363 N 
ATOM     18  H4  UNL     1     -72.879 -55.816 -71.361  1.00  0.00     0.162 HD
BRANCH  17  19
HETATM   19  C9  UNL     1     -72.472 -55.264 -73.380  1.00  0.00     0.075 C 
HETATM   20  C10 UNL     1     -71.833 -56.513 -73.940  1.00  0.00     0.032 C 
HETATM   21  C11 UNL     1     -73.930 -55.222 -73.782  1.00  0.00     0.032 C 
ENDBRANCH  17  19
ENDBRANCH  15  17
ENDBRANCH   9  15
TORSDOF 4
ENDMDL
MODEL 5
REMARK VINA RESULT: -6.217119910      2.339      7.689
REMARK  4 active torsions:
REMARK  status: ('A' for Active; 'I' for Inactive)
REMARK    1  A    between atoms: C2_2  and  N1_4 
REMARK       I    between atoms: N1_4  and  C4_6 
REMARK       I    between atoms: C4_6  and  N2_8 
REMARK    2  A    between atoms: N3_12  and  C8_13 
REMARK    3  A    between atoms: C8_13  and  N4_15 
REMARK    4  A    between atoms: N4_15  and  C9_17 
ROOT
HETATM    1  N1  UNL     1     -68.491 -45.864 -69.576  1.00  0.00    -0.339 N 
ATOM      2  H1  UNL     1     -68.123 -46.815 -69.604  1.00  0.00     0.164 HD
HETATM    3  C4  UNL     1     -69.529 -45.488 -70.462  1.00  0.00     0.318 C 
HETATM    4  O1  UNL     1     -69.943 -44.290 -70.375  1.00  0.00    -0.247 OA
HETATM    5  N2  UNL     1     -70.098 -46.383 -71.412  1.00  0.00    -0.333 N 
HETATM    6  C5  UNL     1     -69.518 -47.674 -71.369  1.00  0.00     0.129 C 
HETATM    7  C6  UNL     1     -70.073 -48.705 -72.285  1.00  0.00     0.040 C 
HETATM    8  C7  UNL     1     -69.955 -48.341 -73.745  1.00  0.00     0.127 C 
HETATM    9  N3  UNL     1     -71.067 -47.443 -74.005  1.00  0.00    -0.357 N 
HETATM   10  C12 UNL     1     -70.980 -46.029 -73.686  1.00  0.00     0.145 C 
HETATM   11  C13 UNL     1     -71.139 -45.780 -72.206  1.00  0.00     0.147 C 
ENDROOT
BRANCH   1  12
HETATM   12  C2  UNL     1     -67.950 -44.918 -68.633  1.00  0.00     0.078 C 
HETATM   13  C1  UNL     1     -66.462 -45.140 -68.438  1.00  0.00     0.032 C 
HETATM   14  C3  UNL     1     -68.644 -45.024 -67.280  1.00  0.00     0.032 C 
ENDBRANCH   1  12
BRANCH   9  15
HETATM   15  C8  UNL     1     -72.262 -47.920 -74.563  1.00  0.00     0.170 C 
HETATM   16  S1  UNL     1     -73.642 -47.759 -73.673  1.00  0.00    -0.041 SA
BRANCH  15  17
HETATM   17  N4  UNL     1     -72.414 -48.536 -75.827  1.00  0.00    -0.363 N 
ATOM     18  H4  UNL     1     -71.610 -48.568 -76.454  1.00  0.00     0.162 HD
BRANCH  17  19
HETATM   19  C9  UNL     1     -73.661 -49.122 -76.271  1.00  0.00     0.075 C 
HETATM   20  C10 UNL     1     -74.282 -48.301 -77.377  1.00  0.00     0.032 C 
HETATM   21  C11 UNL     1     -73.471 -50.545 -76.748  1.00  0.00     0.032 C 
ENDBRANCH  17  19
ENDBRANCH  15  17
ENDBRANCH   9  15
TORSDOF 4
ENDMDL
