MODEL 1
REMARK VINA RESULT: -7.572623249      0.000      0.000
REMARK  3 active torsions:
REMARK  status: ('A' for Active; 'I' for Inactive)
REMARK    1  A    between atoms: N2_12  and  S1_14 
REMARK    2  A    between atoms: S1_14  and  N3_17 
REMARK    3  A    between atoms: N3_17  and  C10_19 
ROOT
HETATM    1  C1  UNL     1     -73.556 -49.822 -76.562  1.00  0.00     0.103 C 
HETATM    2  C2  UNL     1     -73.227 -50.328 -75.498  1.00  0.00    -0.144 C 
HETATM    3  C3  UNL     1     -72.835 -50.916 -74.248  1.00  0.00     0.055 A 
HETATM    4  C4  UNL     1     -72.904 -52.305 -74.114  1.00  0.00    -0.039 A 
HETATM    5  C5  UNL     1     -73.378 -53.123 -75.260  1.00  0.00     0.050 C 
HETATM    6  C6  UNL     1     -72.532 -52.892 -72.921  1.00  0.00     0.033 A 
HETATM    7  C7  UNL     1     -72.105 -52.057 -71.910  1.00  0.00     0.007 A 
HETATM    8  C8  UNL     1     -71.691 -52.647 -70.597  1.00  0.00     0.068 C 
HETATM    9  N1  UNL     1     -72.041 -50.712 -72.048  1.00  0.00    -0.345 N 
ATOM     10  H1  UNL     1     -71.718 -50.139 -71.268  1.00  0.00     0.167 HD
HETATM   11  C9  UNL     1     -72.398 -50.124 -73.203  1.00  0.00     0.134 A 
HETATM   12  N2  UNL     1     -72.360 -48.872 -73.390  1.00  0.00    -0.252 N 
ATOM     13  H2  UNL     1     -72.655 -48.529 -74.304  1.00  0.00     0.182 HD
ENDROOT
BRANCH  12  14
HETATM   14  S1  UNL     1     -71.853 -47.697 -72.236  1.00  0.00     0.321 S 
HETATM   15  O1  UNL     1     -72.904 -47.702 -71.132  1.00  0.00    -0.182 OA
HETATM   16  O2  UNL     1     -70.587 -48.144 -71.645  1.00  0.00    -0.182 OA
BRANCH  14  17
HETATM   17  N3  UNL     1     -71.858 -46.183 -72.962  1.00  0.00    -0.294 N 
ATOM     18  H3  UNL     1     -72.731 -45.771 -73.293  1.00  0.00     0.174 HD
BRANCH  17  19
HETATM   19  C10 UNL     1     -70.641 -45.492 -73.107  1.00  0.00     0.031 C 
HETATM   20  C11 UNL     1     -69.768 -46.273 -74.098  1.00  0.00     0.038 C 
HETATM   21  C12 UNL     1     -69.827 -45.278 -71.882  1.00  0.00     0.038 C 
HETATM   22  C13 UNL     1     -70.916 -44.142 -73.742  1.00  0.00     0.038 C 
ENDBRANCH  17  19
ENDBRANCH  14  17
ENDBRANCH  12  14
TORSDOF 3
ENDMDL
MODEL 2
REMARK VINA RESULT: -7.494549850      1.458      3.361
REMARK  3 active torsions:
REMARK  status: ('A' for Active; 'I' for Inactive)
REMARK    1  A    between atoms: N2_12  and  S1_14 
REMARK    2  A    between atoms: S1_14  and  N3_17 
REMARK    3  A    between atoms: N3_17  and  C10_19 
ROOT
HETATM    1  C1  UNL     1     -71.791 -52.213 -70.785  1.00  0.00     0.103 C 
HETATM    2  C2  UNL     1     -72.168 -51.955 -71.920  1.00  0.00    -0.144 C 
HETATM    3  C3  UNL     1     -72.612 -51.644 -73.250  1.00  0.00     0.055 A 
HETATM    4  C4  UNL     1     -72.923 -52.701 -74.111  1.00  0.00    -0.039 A 
HETATM    5  C5  UNL     1     -72.784 -54.098 -73.628  1.00  0.00     0.050 C 
HETATM    6  C6  UNL     1     -73.353 -52.426 -75.394  1.00  0.00     0.033 A 
HETATM    7  C7  UNL     1     -73.452 -51.099 -75.759  1.00  0.00     0.007 A 
HETATM    8  C8  UNL     1     -73.914 -50.752 -77.141  1.00  0.00     0.068 C 
HETATM    9  N1  UNL     1     -73.149 -50.083 -74.918  1.00  0.00    -0.345 N 
ATOM     10  H1  UNL     1     -73.240 -49.118 -75.238  1.00  0.00     0.167 HD
HETATM   11  C9  UNL     1     -72.730 -50.333 -73.665  1.00  0.00     0.134 A 
HETATM   12  N2  UNL     1     -72.432 -49.423 -72.836  1.00  0.00    -0.252 N 
ATOM     13  H2  UNL     1     -72.123 -49.721 -71.911  1.00  0.00     0.182 HD
ENDROOT
BRANCH  12  14
HETATM   14  S1  UNL     1     -72.503 -47.727 -73.131  1.00  0.00     0.321 S 
HETATM   15  O1  UNL     1     -71.709 -47.484 -74.409  1.00  0.00    -0.182 OA
HETATM   16  O2  UNL     1     -73.898 -47.362 -73.399  1.00  0.00    -0.182 OA
BRANCH  14  17
HETATM   17  N3  UNL     1     -71.736 -46.922 -71.873  1.00  0.00    -0.294 N 
ATOM     18  H3  UNL     1     -72.243 -46.700 -71.016  1.00  0.00     0.174 HD
BRANCH  17  19
HETATM   19  C10 UNL     1     -70.385 -46.558 -72.019  1.00  0.00     0.031 C 
HETATM   20  C11 UNL     1     -69.929 -45.897 -70.711  1.00  0.00     0.038 C 
HETATM   21  C12 UNL     1     -70.045 -45.623 -73.122  1.00  0.00     0.038 C 
HETATM   22  C13 UNL     1     -69.553 -47.815 -72.183  1.00  0.00     0.038 C 
ENDBRANCH  17  19
ENDBRANCH  14  17
ENDBRANCH  12  14
TORSDOF 3
ENDMDL
MODEL 3
REMARK VINA RESULT: -7.298973729      0.806      1.419
REMARK  3 active torsions:
REMARK  status: ('A' for Active; 'I' for Inactive)
REMARK    1  A    between atoms: N2_12  and  S1_14 
REMARK    2  A    between atoms: S1_14  and  N3_17 
REMARK    3  A    between atoms: N3_17  and  C10_19 
ROOT
HETATM    1  C1  UNL     1     -73.660 -48.343 -76.990  1.00  0.00     0.103 C 
HETATM    2  C2  UNL     1     -73.409 -49.148 -76.104  1.00  0.00    -0.144 C 
HETATM    3  C3  UNL     1     -73.109 -50.088 -75.061  1.00  0.00     0.055 A 
HETATM    4  C4  UNL     1     -73.293 -51.450 -75.318  1.00  0.00    -0.039 A 
HETATM    5  C5  UNL     1     -73.790 -51.877 -76.651  1.00  0.00     0.050 C 
HETATM    6  C6  UNL     1     -73.011 -52.371 -74.330  1.00  0.00     0.033 A 
HETATM    7  C7  UNL     1     -72.554 -51.887 -73.122  1.00  0.00     0.007 A 
HETATM    8  C8  UNL     1     -72.234 -52.848 -72.020  1.00  0.00     0.068 C 
HETATM    9  N1  UNL     1     -72.378 -50.566 -72.882  1.00  0.00    -0.345 N 
ATOM     10  H1  UNL     1     -72.038 -50.260 -71.970  1.00  0.00     0.167 HD
HETATM   11  C9  UNL     1     -72.648 -49.655 -73.833  1.00  0.00     0.134 A 
HETATM   12  N2  UNL     1     -72.503 -48.408 -73.665  1.00  0.00    -0.252 N 
ATOM     13  H2  UNL     1     -72.738 -47.803 -74.451  1.00  0.00     0.182 HD
ENDROOT
BRANCH  12  14
HETATM   14  S1  UNL     1     -71.945 -47.644 -72.225  1.00  0.00     0.321 S 
HETATM   15  O1  UNL     1     -73.038 -47.847 -71.183  1.00  0.00    -0.182 OA
HETATM   16  O2  UNL     1     -70.749 -48.353 -71.758  1.00  0.00    -0.182 OA
BRANCH  14  17
HETATM   17  N3  UNL     1     -71.786 -45.997 -72.509  1.00  0.00    -0.294 N 
ATOM     18  H3  UNL     1     -72.567 -45.364 -72.334  1.00  0.00     0.174 HD
BRANCH  17  19
HETATM   19  C10 UNL     1     -70.561 -45.502 -72.992  1.00  0.00     0.031 C 
HETATM   20  C11 UNL     1     -70.826 -44.143 -73.654  1.00  0.00     0.038 C 
HETATM   21  C12 UNL     1     -69.831 -46.336 -73.983  1.00  0.00     0.038 C 
HETATM   22  C13 UNL     1     -69.640 -45.239 -71.817  1.00  0.00     0.038 C 
ENDBRANCH  17  19
ENDBRANCH  14  17
ENDBRANCH  12  14
TORSDOF 3
ENDMDL
MODEL 4
REMARK VINA RESULT: -7.074543105      3.955      5.680
REMARK  3 active torsions:
REMARK  status: ('A' for Active; 'I' for Inactive)
REMARK    1  A    between atoms: N2_12  and  S1_14 
REMARK    2  A    between atoms: S1_14  and  N3_17 
REMARK    3  A    between atoms: N3_17  and  C10_19 
ROOT
HETATM    1  C1  UNL     1     -70.909 -43.975 -73.469  1.00  0.00     0.103 C 
HETATM    2  C2  UNL     1     -70.563 -45.085 -73.090  1.00  0.00    -0.144 C 
HETATM    3  C3  UNL     1     -70.150 -46.385 -72.640  1.00  0.00     0.055 A 
HETATM    4  C4  UNL     1     -70.368 -47.481 -73.481  1.00  0.00    -0.039 A 
HETATM    5  C5  UNL     1     -71.016 -47.266 -74.801  1.00  0.00     0.050 C 
HETATM    6  C6  UNL     1     -69.979 -48.740 -73.069  1.00  0.00     0.033 A 
HETATM    7  C7  UNL     1     -69.386 -48.847 -71.829  1.00  0.00     0.007 A 
HETATM    8  C8  UNL     1     -68.947 -50.192 -71.340  1.00  0.00     0.068 C 
HETATM    9  N1  UNL     1     -69.178 -47.780 -71.022  1.00  0.00    -0.345 N 
ATOM     10  H1  UNL     1     -68.734 -47.914 -70.113  1.00  0.00     0.167 HD
HETATM   11  C9  UNL     1     -69.550 -46.547 -71.407  1.00  0.00     0.134 A 
HETATM   12  N2  UNL     1     -69.381 -45.513 -70.694  1.00  0.00    -0.252 N 
ATOM     13  H2  UNL     1     -69.701 -44.626 -71.080  1.00  0.00     0.182 HD
ENDROOT
BRANCH  12  14
HETATM   14  S1  UNL     1     -68.659 -45.475 -69.131  1.00  0.00     0.321 S 
HETATM   15  O1  UNL     1     -69.761 -45.063 -68.162  1.00  0.00    -0.182 OA
HETATM   16  O2  UNL     1     -68.245 -46.837 -68.778  1.00  0.00    -0.182 OA
BRANCH  14  17
HETATM   17  N3  UNL     1     -67.469 -44.291 -69.109  1.00  0.00    -0.294 N 
ATOM     18  H3  UNL     1     -67.363 -43.650 -69.895  1.00  0.00     0.174 HD
BRANCH  17  19
HETATM   19  C10 UNL     1     -66.619 -44.198 -67.991  1.00  0.00     0.031 C 
HETATM   20  C11 UNL     1     -65.440 -45.156 -68.211  1.00  0.00     0.038 C 
HETATM   21  C12 UNL     1     -67.201 -44.521 -66.662  1.00  0.00     0.038 C 
HETATM   22  C13 UNL     1     -66.036 -42.800 -67.932  1.00  0.00     0.038 C 
ENDBRANCH  17  19
ENDBRANCH  14  17
ENDBRANCH  12  14
TORSDOF 3
ENDMDL
MODEL 5
REMARK VINA RESULT: -6.791417129      2.306      3.920
REMARK  3 active torsions:
REMARK  status: ('A' for Active; 'I' for Inactive)
REMARK    1  A    between atoms: N2_12  and  S1_14 
REMARK    2  A    between atoms: S1_14  and  N3_17 
REMARK    3  A    between atoms: N3_17  and  C10_19 
ROOT
HETATM    1  C1  UNL     1     -67.174 -51.133 -70.022  1.00  0.00     0.103 C 
HETATM    2  C2  UNL     1     -68.272 -51.474 -70.440  1.00  0.00    -0.144 C 
HETATM    3  C3  UNL     1     -69.564 -51.866 -70.929  1.00  0.00     0.055 A 
HETATM    4  C4  UNL     1     -69.962 -53.196 -70.767  1.00  0.00    -0.039 A 
HETATM    5  C5  UNL     1     -69.043 -54.154 -70.100  1.00  0.00     0.050 C 
HETATM    6  C6  UNL     1     -71.200 -53.595 -71.230  1.00  0.00     0.033 A 
HETATM    7  C7  UNL     1     -71.988 -52.641 -71.838  1.00  0.00     0.007 A 
HETATM    8  C8  UNL     1     -73.339 -53.026 -72.355  1.00  0.00     0.068 C 
HETATM    9  N1  UNL     1     -71.594 -51.354 -71.990  1.00  0.00    -0.345 N 
ATOM     10  H1  UNL     1     -72.216 -50.687 -72.447  1.00  0.00     0.167 HD
HETATM   11  C9  UNL     1     -70.393 -50.948 -71.544  1.00  0.00     0.134 A 
HETATM   12  N2  UNL     1     -69.972 -49.759 -71.660  1.00  0.00    -0.252 N 
ATOM     13  H2  UNL     1     -69.043 -49.557 -71.289  1.00  0.00     0.182 HD
ENDROOT
BRANCH  12  14
HETATM   14  S1  UNL     1     -70.828 -48.454 -72.388  1.00  0.00     0.321 S 
HETATM   15  O1  UNL     1     -71.355 -48.979 -73.718  1.00  0.00    -0.182 OA
HETATM   16  O2  UNL     1     -71.986 -48.133 -71.547  1.00  0.00    -0.182 OA
BRANCH  14  17
HETATM   17  N3  UNL     1     -69.751 -47.205 -72.704  1.00  0.00    -0.294 N 
ATOM     18  H3  UNL     1     -68.766 -47.402 -72.879  1.00  0.00     0.174 HD
BRANCH  17  19
HETATM   19  C10 UNL     1     -70.228 -45.881 -72.723  1.00  0.00     0.031 C 
HETATM   20  C11 UNL     1     -69.884 -45.234 -71.374  1.00  0.00     0.038 C 
HETATM   21  C12 UNL     1     -71.685 -45.684 -72.943  1.00  0.00     0.038 C 
HETATM   22  C13 UNL     1     -69.474 -45.102 -73.783  1.00  0.00     0.038 C 
ENDBRANCH  17  19
ENDBRANCH  14  17
ENDBRANCH  12  14
TORSDOF 3
ENDMDL
