MODEL 1
REMARK VINA RESULT: -6.645870018      0.000      0.000
REMARK  4 active torsions:
REMARK  status: ('A' for Active; 'I' for Inactive)
REMARK    1  A    between atoms: C2_2  and  C4_4 
REMARK    2  A    between atoms: C4_4  and  O1_5 
REMARK    3  A    between atoms: O1_5  and  O2_6 
REMARK    4  A    between atoms: O2_6  and  C5_7 
ROOT
HETATM    1  C5  UNL     1      31.657  -1.441  70.427  1.00  0.00     0.136 C 
HETATM    2  C6  UNL     1      30.670  -2.357  71.065  1.00  0.00     0.071 C 
HETATM    3  C7  UNL     1      30.295  -1.997  72.460  1.00  0.00     0.172 C 
HETATM    4  O3  UNL     1      30.201  -0.649  72.698  1.00  0.00    -0.377 OA
HETATM    5  C8  UNL     1      31.457  -0.046  72.528  1.00  0.00     0.101 C 
HETATM    6  C9  UNL     1      32.415  -0.681  73.496  1.00  0.00     0.050 C 
HETATM    7  C10 UNL     1      31.285   1.428  72.860  1.00  0.00     0.055 C 
HETATM    8  C11 UNL     1      31.343   1.671  74.349  1.00  0.00     0.016 C 
HETATM    9  C12 UNL     1      32.310   2.296  72.121  1.00  0.00     0.189 C 
HETATM   10  C13 UNL     1      31.686   2.634  70.784  1.00  0.00     0.005 C 
HETATM   11  C14 UNL     1      30.988   1.800  70.015  1.00  0.00    -0.020 C 
HETATM   12  C15 UNL     1      30.661   0.372  70.278  1.00  0.00     0.055 C 
HETATM   13  C16 UNL     1      31.019  -0.646  69.274  1.00  0.00     0.056 C 
HETATM   14  C17 UNL     1      31.850  -0.149  71.112  1.00  0.00     0.168 C 
HETATM   15  O4  UNL     1      32.987   0.570  70.871  1.00  0.00    -0.222 OA
HETATM   16  O5  UNL     1      33.353   1.395  71.800  1.00  0.00    -0.230 OA
ENDROOT
BRANCH   1  17
HETATM   17  O2  UNL     1      32.830  -2.020  69.980  1.00  0.00    -0.226 OA
BRANCH  17  18
HETATM   18  O1  UNL     1      32.884  -2.177  68.696  1.00  0.00    -0.240 OA
BRANCH  18  19
HETATM   19  C4  UNL     1      33.036  -3.521  68.367  1.00  0.00     0.213 C 
BRANCH  19  20
HETATM   20  C2  UNL     1      31.822  -4.057  67.638  1.00  0.00     0.004 C 
HETATM   21  C1  UNL     1      31.284  -3.085  66.633  1.00  0.00     0.012 C 
HETATM   22  C3  UNL     1      32.132  -5.360  66.939  1.00  0.00     0.012 C 
ENDBRANCH  19  20
ENDBRANCH  18  19
ENDBRANCH  17  18
ENDBRANCH   1  17
TORSDOF 4
ENDMDL
MODEL 2
REMARK VINA RESULT: -6.575581853      1.677      2.504
REMARK  4 active torsions:
REMARK  status: ('A' for Active; 'I' for Inactive)
REMARK    1  A    between atoms: C2_2  and  C4_4 
REMARK    2  A    between atoms: C4_4  and  O1_5 
REMARK    3  A    between atoms: O1_5  and  O2_6 
REMARK    4  A    between atoms: O2_6  and  C5_7 
ROOT
HETATM    1  C5  UNL     1      31.505  -1.180  71.495  1.00  0.00     0.136 C 
HETATM    2  C6  UNL     1      32.609  -2.139  71.779  1.00  0.00     0.071 C 
HETATM    3  C7  UNL     1      33.761  -1.562  72.526  1.00  0.00     0.172 C 
HETATM    4  O3  UNL     1      33.419  -0.641  73.483  1.00  0.00    -0.377 OA
HETATM    5  C8  UNL     1      32.825   0.478  72.877  1.00  0.00     0.101 C 
HETATM    6  C9  UNL     1      33.817   1.069  71.913  1.00  0.00     0.050 C 
HETATM    7  C10 UNL     1      32.526   1.473  73.987  1.00  0.00     0.055 C 
HETATM    8  C11 UNL     1      33.747   2.285  74.347  1.00  0.00     0.016 C 
HETATM    9  C12 UNL     1      31.347   2.383  73.626  1.00  0.00     0.189 C 
HETATM   10  C13 UNL     1      30.101   1.656  74.087  1.00  0.00     0.005 C 
HETATM   11  C14 UNL     1      29.870   0.350  73.965  1.00  0.00    -0.020 C 
HETATM   12  C15 UNL     1      30.756  -0.683  73.363  1.00  0.00     0.055 C 
HETATM   13  C16 UNL     1      30.234  -1.539  72.284  1.00  0.00     0.056 C 
HETATM   14  C17 UNL     1      31.544   0.072  72.274  1.00  0.00     0.168 C 
HETATM   15  O4  UNL     1      30.857   1.162  71.818  1.00  0.00    -0.222 OA
HETATM   16  O5  UNL     1      31.284   2.318  72.215  1.00  0.00    -0.230 OA
ENDROOT
BRANCH   1  17
HETATM   17  O2  UNL     1      31.176  -1.003  70.164  1.00  0.00    -0.226 OA
BRANCH  17  18
HETATM   18  O1  UNL     1      32.191  -1.039  69.361  1.00  0.00    -0.240 OA
BRANCH  18  19
HETATM   19  C4  UNL     1      31.775  -1.205  68.043  1.00  0.00     0.213 C 
BRANCH  19  20
HETATM   20  C2  UNL     1      31.402  -2.643  67.753  1.00  0.00     0.004 C 
HETATM   21  C1  UNL     1      31.042  -2.861  66.315  1.00  0.00     0.012 C 
HETATM   22  C3  UNL     1      32.522  -3.587  68.124  1.00  0.00     0.012 C 
ENDBRANCH  19  20
ENDBRANCH  18  19
ENDBRANCH  17  18
ENDBRANCH   1  17
TORSDOF 4
ENDMDL
MODEL 3
REMARK VINA RESULT: -6.537184555      8.076     11.254
REMARK  4 active torsions:
REMARK  status: ('A' for Active; 'I' for Inactive)
REMARK    1  A    between atoms: C2_2  and  C4_4 
REMARK    2  A    between atoms: C4_4  and  O1_5 
REMARK    3  A    between atoms: O1_5  and  O2_6 
REMARK    4  A    between atoms: O2_6  and  C5_7 
ROOT
HETATM    1  C5  UNL     1      29.994  -6.901  60.789  1.00  0.00     0.136 C 
HETATM    2  C6  UNL     1      29.567  -8.041  61.649  1.00  0.00     0.071 C 
HETATM    3  C7  UNL     1      29.887  -7.886  63.095  1.00  0.00     0.172 C 
HETATM    4  O3  UNL     1      29.761  -6.608  63.576  1.00  0.00    -0.377 OA
HETATM    5  C8  UNL     1      30.689  -5.766  62.942  1.00  0.00     0.101 C 
HETATM    6  C9  UNL     1      32.068  -6.296  63.221  1.00  0.00     0.050 C 
HETATM    7  C10 UNL     1      30.527  -4.388  63.562  1.00  0.00     0.055 C 
HETATM    8  C11 UNL     1      31.281  -4.276  64.866  1.00  0.00     0.016 C 
HETATM    9  C12 UNL     1      30.944  -3.279  62.590  1.00  0.00     0.189 C 
HETATM   10  C13 UNL     1      29.707  -2.943  61.783  1.00  0.00     0.005 C 
HETATM   11  C14 UNL     1      28.827  -3.820  61.303  1.00  0.00    -0.020 C 
HETATM   12  C15 UNL     1      28.845  -5.302  61.440  1.00  0.00     0.055 C 
HETATM   13  C16 UNL     1      28.782  -6.138  60.228  1.00  0.00     0.056 C 
HETATM   14  C17 UNL     1      30.343  -5.664  61.513  1.00  0.00     0.168 C 
HETATM   15  O4  UNL     1      31.119  -4.725  60.894  1.00  0.00    -0.222 OA
HETATM   16  O5  UNL     1      31.792  -3.934  61.667  1.00  0.00    -0.230 OA
ENDROOT
BRANCH   1  17
HETATM   17  O2  UNL     1      30.855  -7.206  59.752  1.00  0.00    -0.226 OA
BRANCH  17  18
HETATM   18  O1  UNL     1      30.336  -7.057  58.575  1.00  0.00    -0.240 OA
BRANCH  18  19
HETATM   19  C4  UNL     1      30.382  -8.249  57.859  1.00  0.00     0.213 C 
BRANCH  19  20
HETATM   20  C2  UNL     1      29.387  -8.252  56.717  1.00  0.00     0.004 C 
HETATM   21  C1  UNL     1      28.466  -9.433  56.766  1.00  0.00     0.012 C 
HETATM   22  C3  UNL     1      28.560  -6.989  56.705  1.00  0.00     0.012 C 
ENDBRANCH  19  20
ENDBRANCH  18  19
ENDBRANCH  17  18
ENDBRANCH   1  17
TORSDOF 4
ENDMDL
MODEL 4
REMARK VINA RESULT: -6.391757847      1.628      2.802
REMARK  4 active torsions:
REMARK  status: ('A' for Active; 'I' for Inactive)
REMARK    1  A    between atoms: C2_2  and  C4_4 
REMARK    2  A    between atoms: C4_4  and  O1_5 
REMARK    3  A    between atoms: O1_5  and  O2_6 
REMARK    4  A    between atoms: O2_6  and  C5_7 
ROOT
HETATM    1  C5  UNL     1      32.277  -0.561  70.992  1.00  0.00     0.136 C 
HETATM    2  C6  UNL     1      33.701  -0.989  71.099  1.00  0.00     0.071 C 
HETATM    3  C7  UNL     1      34.562  -0.091  71.916  1.00  0.00     0.172 C 
HETATM    4  O3  UNL     1      33.947   0.449  73.017  1.00  0.00    -0.377 OA
HETATM    5  C8  UNL     1      32.892   1.283  72.612  1.00  0.00     0.101 C 
HETATM    6  C9  UNL     1      33.462   2.371  71.746  1.00  0.00     0.050 C 
HETATM    7  C10 UNL     1      32.296   1.883  73.876  1.00  0.00     0.055 C 
HETATM    8  C11 UNL     1      33.091   3.077  74.349  1.00  0.00     0.016 C 
HETATM    9  C12 UNL     1      30.819   2.246  73.686  1.00  0.00     0.189 C 
HETATM   10  C13 UNL     1      30.034   0.999  74.037  1.00  0.00     0.005 C 
HETATM   11  C14 UNL     1      30.361  -0.248  73.703  1.00  0.00    -0.020 C 
HETATM   12  C15 UNL     1      31.545  -0.707  72.927  1.00  0.00     0.055 C 
HETATM   13  C16 UNL     1      31.342  -1.538  71.727  1.00  0.00     0.056 C 
HETATM   14  C17 UNL     1      31.853   0.461  71.967  1.00  0.00     0.168 C 
HETATM   15  O4  UNL     1      30.738   1.207  71.708  1.00  0.00    -0.222 OA
HETATM   16  O5  UNL     1      30.673   2.365  72.284  1.00  0.00    -0.230 OA
ENDROOT
BRANCH   1  17
HETATM   17  O2  UNL     1      31.796  -0.352  69.714  1.00  0.00    -0.226 OA
BRANCH  17  18
HETATM   18  O1  UNL     1      32.493  -0.930  68.788  1.00  0.00    -0.240 OA
BRANCH  18  19
HETATM   19  C4  UNL     1      31.663  -1.505  67.829  1.00  0.00     0.213 C 
BRANCH  19  20
HETATM   20  C2  UNL     1      31.743  -3.017  67.857  1.00  0.00     0.004 C 
HETATM   21  C1  UNL     1      33.085  -3.510  68.305  1.00  0.00     0.012 C 
HETATM   22  C3  UNL     1      30.682  -3.606  68.756  1.00  0.00     0.012 C 
ENDBRANCH  19  20
ENDBRANCH  18  19
ENDBRANCH  17  18
ENDBRANCH   1  17
TORSDOF 4
ENDMDL
MODEL 5
REMARK VINA RESULT: -6.381405428      1.870      2.528
REMARK  4 active torsions:
REMARK  status: ('A' for Active; 'I' for Inactive)
REMARK    1  A    between atoms: C2_2  and  C4_4 
REMARK    2  A    between atoms: C4_4  and  O1_5 
REMARK    3  A    between atoms: O1_5  and  O2_6 
REMARK    4  A    between atoms: O2_6  and  C5_7 
ROOT
HETATM    1  C5  UNL     1      32.395  -1.501  69.241  1.00  0.00     0.136 C 
HETATM    2  C6  UNL     1      31.535  -2.716  69.159  1.00  0.00     0.071 C 
HETATM    3  C7  UNL     1      30.802  -3.047  70.412  1.00  0.00     0.172 C 
HETATM    4  O3  UNL     1      30.351  -1.961  71.117  1.00  0.00    -0.377 OA
HETATM    5  C8  UNL     1      31.441  -1.197  71.565  1.00  0.00     0.101 C 
HETATM    6  C9  UNL     1      32.294  -2.071  72.441  1.00  0.00     0.050 C 
HETATM    7  C10 UNL     1      30.868  -0.048  72.379  1.00  0.00     0.055 C 
HETATM    8  C11 UNL     1      30.553  -0.474  73.793  1.00  0.00     0.016 C 
HETATM    9  C12 UNL     1      31.797   1.171  72.365  1.00  0.00     0.189 C 
HETATM   10  C13 UNL     1      31.406   1.981  71.146  1.00  0.00     0.005 C 
HETATM   11  C14 UNL     1      31.098   1.488  69.949  1.00  0.00    -0.020 C 
HETATM   12  C15 UNL     1      31.061   0.060  69.529  1.00  0.00     0.055 C 
HETATM   13  C16 UNL     1      31.848  -0.367  68.358  1.00  0.00     0.056 C 
HETATM   14  C17 UNL     1      32.136  -0.625  70.399  1.00  0.00     0.168 C 
HETATM   15  O4  UNL     1      33.101   0.258  70.795  1.00  0.00    -0.222 OA
HETATM   16  O5  UNL     1      33.062   0.633  72.034  1.00  0.00    -0.230 OA
ENDROOT
BRANCH   1  17
HETATM   17  O2  UNL     1      33.736  -1.683  68.963  1.00  0.00    -0.226 OA
BRANCH  17  18
HETATM   18  O1  UNL     1      34.166  -2.881  69.200  1.00  0.00    -0.240 OA
BRANCH  18  19
HETATM   19  C4  UNL     1      35.202  -2.862  70.130  1.00  0.00     0.213 C 
BRANCH  19  20
HETATM   20  C2  UNL     1      36.414  -3.620  69.630  1.00  0.00     0.004 C 
HETATM   21  C1  UNL     1      36.053  -4.944  69.031  1.00  0.00     0.012 C 
HETATM   22  C3  UNL     1      37.182  -2.815  68.609  1.00  0.00     0.012 C 
ENDBRANCH  19  20
ENDBRANCH  18  19
ENDBRANCH  17  18
ENDBRANCH   1  17
TORSDOF 4
ENDMDL
