MODEL 1
REMARK VINA RESULT: -7.747643852      0.000      0.000
REMARK  4 active torsions:
REMARK  status: ('A' for Active; 'I' for Inactive)
REMARK    1  A    between atoms: C1_2  and  C2_3 
REMARK       I    between atoms: C1_2  and  N2_12 
REMARK    2  A    between atoms: C2_3  and  C3_4 
REMARK    3  A    between atoms: C3_4  and  S1_5 
REMARK    4  A    between atoms: S1_5  and  C4_6 
ROOT
HETATM    1  O1  UNL     1      30.122  -6.470  58.353  1.00  0.00    -0.273 OA
HETATM    2  C1  UNL     1      29.337  -6.408  59.322  1.00  0.00     0.220 C 
HETATM    3  N2  UNL     1      29.697  -5.665  60.464  1.00  0.00    -0.352 N 
HETATM    4  C7  UNL     1      28.800  -5.581  61.600  1.00  0.00     0.126 C 
HETATM    5  C8  UNL     1      29.565  -6.089  62.805  1.00  0.00     0.029 C 
HETATM    6  C9  UNL     1      30.684  -5.072  63.050  1.00  0.00    -0.037 C 
HETATM    7  C10 UNL     1      31.443  -5.430  64.301  1.00  0.00     0.010 C 
HETATM    8  C11 UNL     1      30.989  -4.378  65.321  1.00  0.00     0.001 C 
HETATM    9  C12 UNL     1      30.894  -3.155  64.400  1.00  0.00     0.001 C 
HETATM   10  C13 UNL     1      30.042  -3.733  63.276  1.00  0.00     0.010 C 
HETATM   11  C14 UNL     1      31.622  -5.070  61.883  1.00  0.00     0.029 C 
HETATM   12  C15 UNL     1      30.956  -4.964  60.555  1.00  0.00     0.126 C 
ENDROOT
BRANCH   2  13
HETATM   13  C2  UNL     1      28.039  -7.119  59.253  1.00  0.00     0.113 C 
BRANCH  13  14
HETATM   14  C3  UNL     1      27.462  -7.090  57.856  1.00  0.00     0.090 C 
BRANCH  14  15
HETATM   15  S1  UNL     1      27.508  -8.729  57.085  1.00  0.00    -0.104 SA
BRANCH  15  16
HETATM   16  C4  UNL     1      29.248  -9.045  56.683  1.00  0.00     0.111 A 
HETATM   17  N1  UNL     1      30.050  -8.365  55.893  1.00  0.00    -0.354 N 
HETATM   18  C5  UNL     1      31.276  -8.741  55.722  1.00  0.00     0.096 A 
ATOM     19  H1  UNL     1      29.703  -7.535  55.412  1.00  0.00     0.166 HD
HETATM   20  C6  UNL     1      31.693  -9.867  56.393  1.00  0.00     0.069 A 
HETATM   21  S2  UNL     1      30.268 -10.307  57.234  1.00  0.00    -0.076 SA
ENDBRANCH  15  16
ENDBRANCH  14  15
ENDBRANCH  13  14
ENDBRANCH   2  13
TORSDOF 4
ENDMDL
MODEL 2
REMARK VINA RESULT: -7.592591605      1.710      2.423
REMARK  4 active torsions:
REMARK  status: ('A' for Active; 'I' for Inactive)
REMARK    1  A    between atoms: C1_2  and  C2_3 
REMARK       I    between atoms: C1_2  and  N2_12 
REMARK    2  A    between atoms: C2_3  and  C3_4 
REMARK    3  A    between atoms: C3_4  and  S1_5 
REMARK    4  A    between atoms: S1_5  and  C4_6 
ROOT
HETATM    1  O1  UNL     1      27.696  -7.358  58.803  1.00  0.00    -0.273 OA
HETATM    2  C1  UNL     1      28.798  -6.775  58.873  1.00  0.00     0.220 C 
HETATM    3  N2  UNL     1      29.365  -6.505  60.136  1.00  0.00    -0.352 N 
HETATM    4  C7  UNL     1      30.644  -5.829  60.238  1.00  0.00     0.126 C 
HETATM    5  C8  UNL     1      30.421  -4.592  61.084  1.00  0.00     0.029 C 
HETATM    6  C9  UNL     1      30.077  -5.099  62.487  1.00  0.00    -0.037 C 
HETATM    7  C10 UNL     1      29.941  -3.939  63.438  1.00  0.00     0.010 C 
HETATM    8  C11 UNL     1      31.209  -4.018  64.299  1.00  0.00     0.001 C 
HETATM    9  C12 UNL     1      31.333  -5.542  64.428  1.00  0.00     0.001 C 
HETATM   10  C13 UNL     1      31.225  -5.944  62.962  1.00  0.00     0.010 C 
HETATM   11  C14 UNL     1      28.786  -5.857  62.441  1.00  0.00     0.029 C 
HETATM   12  C15 UNL     1      28.710  -6.884  61.364  1.00  0.00     0.126 C 
ENDROOT
BRANCH   2  13
HETATM   13  C2  UNL     1      29.491  -6.376  57.626  1.00  0.00     0.113 C 
BRANCH  13  14
HETATM   14  C3  UNL     1      29.158  -7.308  56.483  1.00  0.00     0.090 C 
BRANCH  14  15
HETATM   15  S1  UNL     1      30.009  -8.899  56.654  1.00  0.00    -0.104 SA
BRANCH  15  16
HETATM   16  C4  UNL     1      31.531  -8.761  55.679  1.00  0.00     0.111 A 
HETATM   17  N1  UNL     1      32.688  -8.238  56.023  1.00  0.00    -0.354 N 
HETATM   18  C5  UNL     1      33.677  -8.226  55.189  1.00  0.00     0.096 A 
ATOM     19  H1  UNL     1      32.807  -7.839  56.954  1.00  0.00     0.166 HD
HETATM   20  C6  UNL     1      33.465  -8.776  53.946  1.00  0.00     0.069 A 
HETATM   21  S2  UNL     1      31.832  -9.279  54.073  1.00  0.00    -0.076 SA
ENDBRANCH  15  16
ENDBRANCH  14  15
ENDBRANCH  13  14
ENDBRANCH   2  13
TORSDOF 4
ENDMDL
MODEL 3
REMARK VINA RESULT: -7.488114076      5.842      7.184
REMARK  4 active torsions:
REMARK  status: ('A' for Active; 'I' for Inactive)
REMARK    1  A    between atoms: C1_2  and  C2_3 
REMARK       I    between atoms: C1_2  and  N2_12 
REMARK    2  A    between atoms: C2_3  and  C3_4 
REMARK    3  A    between atoms: C3_4  and  S1_5 
REMARK    4  A    between atoms: S1_5  and  C4_6 
ROOT
HETATM    1  O1  UNL     1      31.723  -8.660  66.319  1.00  0.00    -0.273 OA
HETATM    2  C1  UNL     1      31.061  -8.655  65.260  1.00  0.00     0.220 C 
HETATM    3  N2  UNL     1      31.147  -7.548  64.390  1.00  0.00    -0.352 N 
HETATM    4  C7  UNL     1      30.385  -7.523  63.157  1.00  0.00     0.126 C 
HETATM    5  C8  UNL     1      29.528  -6.274  63.194  1.00  0.00     0.029 C 
HETATM    6  C9  UNL     1      30.503  -5.095  63.136  1.00  0.00    -0.037 C 
HETATM    7  C10 UNL     1      29.741  -3.797  63.058  1.00  0.00     0.010 C 
HETATM    8  C11 UNL     1      29.936  -3.342  61.606  1.00  0.00     0.001 C 
HETATM    9  C12 UNL     1      31.390  -3.781  61.395  1.00  0.00     0.001 C 
HETATM   10  C13 UNL     1      31.305  -5.226  61.872  1.00  0.00     0.010 C 
HETATM   11  C14 UNL     1      31.360  -5.094  64.363  1.00  0.00     0.029 C 
HETATM   12  C15 UNL     1      31.983  -6.409  64.682  1.00  0.00     0.126 C 
ENDROOT
BRANCH   2  13
HETATM   13  C2  UNL     1      30.195  -9.813  64.937  1.00  0.00     0.113 C 
BRANCH  13  14
HETATM   14  C3  UNL     1      30.963 -10.896  64.215  1.00  0.00     0.090 C 
BRANCH  14  15
HETATM   15  S1  UNL     1      32.162 -11.702  65.309  1.00  0.00    -0.104 SA
BRANCH  15  16
HETATM   16  C4  UNL     1      31.478 -13.338  65.685  1.00  0.00     0.111 A 
HETATM   17  N1  UNL     1      30.260 -13.657  66.068  1.00  0.00    -0.354 N 
HETATM   18  C5  UNL     1      29.946 -14.891  66.294  1.00  0.00     0.096 A 
ATOM     19  H1  UNL     1      29.559 -12.925  66.187  1.00  0.00     0.166 HD
HETATM   20  C6  UNL     1      30.927 -15.838  66.120  1.00  0.00     0.069 A 
HETATM   21  S2  UNL     1      32.252 -14.867  65.634  1.00  0.00    -0.076 SA
ENDBRANCH  15  16
ENDBRANCH  14  15
ENDBRANCH  13  14
ENDBRANCH   2  13
TORSDOF 4
ENDMDL
MODEL 4
REMARK VINA RESULT: -7.417931532      1.833      2.588
REMARK  4 active torsions:
REMARK  status: ('A' for Active; 'I' for Inactive)
REMARK    1  A    between atoms: C1_2  and  C2_3 
REMARK       I    between atoms: C1_2  and  N2_12 
REMARK    2  A    between atoms: C2_3  and  C3_4 
REMARK    3  A    between atoms: C3_4  and  S1_5 
REMARK    4  A    between atoms: S1_5  and  C4_6 
ROOT
HETATM    1  O1  UNL     1      27.659  -7.438  58.744  1.00  0.00    -0.273 OA
HETATM    2  C1  UNL     1      28.751  -6.834  58.804  1.00  0.00     0.220 C 
HETATM    3  N2  UNL     1      29.327  -6.558  60.061  1.00  0.00    -0.352 N 
HETATM    4  C7  UNL     1      30.594  -5.859  60.151  1.00  0.00     0.126 C 
HETATM    5  C8  UNL     1      30.358  -4.629  61.004  1.00  0.00     0.029 C 
HETATM    6  C9  UNL     1      30.039  -5.148  62.409  1.00  0.00    -0.037 C 
HETATM    7  C10 UNL     1      29.893  -3.993  63.366  1.00  0.00     0.010 C 
HETATM    8  C11 UNL     1      31.171  -4.052  64.212  1.00  0.00     0.001 C 
HETATM    9  C12 UNL     1      31.326  -5.574  64.334  1.00  0.00     0.001 C 
HETATM   10  C13 UNL     1      31.208  -5.973  62.867  1.00  0.00     0.010 C 
HETATM   11  C14 UNL     1      28.763  -5.930  62.375  1.00  0.00     0.029 C 
HETATM   12  C15 UNL     1      28.694  -6.954  61.295  1.00  0.00     0.126 C 
ENDROOT
BRANCH   2  13
HETATM   13  C2  UNL     1      29.422  -6.418  57.550  1.00  0.00     0.113 C 
BRANCH  13  14
HETATM   14  C3  UNL     1      29.401  -7.521  56.516  1.00  0.00     0.090 C 
BRANCH  14  15
HETATM   15  S1  UNL     1      30.731  -8.720  56.798  1.00  0.00    -0.104 SA
BRANCH  15  16
HETATM   16  C4  UNL     1      31.639  -8.839  55.233  1.00  0.00     0.111 A 
HETATM   17  N1  UNL     1      31.219  -9.277  54.065  1.00  0.00    -0.354 N 
HETATM   18  C5  UNL     1      32.015  -9.290  53.046  1.00  0.00     0.096 A 
ATOM     19  H1  UNL     1      30.260  -9.607  53.964  1.00  0.00     0.166 HD
HETATM   20  C6  UNL     1      33.298  -8.834  53.236  1.00  0.00     0.069 A 
HETATM   21  S2  UNL     1      33.264  -8.412  54.896  1.00  0.00    -0.076 SA
ENDBRANCH  15  16
ENDBRANCH  14  15
ENDBRANCH  13  14
ENDBRANCH   2  13
TORSDOF 4
ENDMDL
MODEL 5
REMARK VINA RESULT: -7.371346041      6.442     10.197
REMARK  4 active torsions:
REMARK  status: ('A' for Active; 'I' for Inactive)
REMARK    1  A    between atoms: C1_2  and  C2_3 
REMARK       I    between atoms: C1_2  and  N2_12 
REMARK    2  A    between atoms: C2_3  and  C3_4 
REMARK    3  A    between atoms: C3_4  and  S1_5 
REMARK    4  A    between atoms: S1_5  and  C4_6 
ROOT
HETATM    1  O1  UNL     1      30.779  -2.501  65.796  1.00  0.00    -0.273 OA
HETATM    2  C1  UNL     1      31.143  -3.668  65.541  1.00  0.00     0.220 C 
HETATM    3  N2  UNL     1      30.999  -4.172  64.232  1.00  0.00    -0.352 N 
HETATM    4  C7  UNL     1      31.414  -5.525  63.916  1.00  0.00     0.126 C 
HETATM    5  C8  UNL     1      30.203  -6.237  63.349  1.00  0.00     0.029 C 
HETATM    6  C9  UNL     1      29.896  -5.546  62.017  1.00  0.00    -0.037 C 
HETATM    7  C10 UNL     1      28.766  -6.253  61.316  1.00  0.00     0.010 C 
HETATM    8  C11 UNL     1      29.454  -6.995  60.163  1.00  0.00     0.001 C 
HETATM    9  C12 UNL     1      30.507  -5.948  59.779  1.00  0.00     0.001 C 
HETATM   10  C13 UNL     1      31.116  -5.667  61.148  1.00  0.00     0.010 C 
HETATM   11  C14 UNL     1      29.510  -4.122  62.270  1.00  0.00     0.029 C 
HETATM   12  C15 UNL     1      30.441  -3.378  63.164  1.00  0.00     0.126 C 
ENDROOT
BRANCH   2  13
HETATM   13  C2  UNL     1      31.719  -4.503  66.620  1.00  0.00     0.113 C 
BRANCH  13  14
HETATM   14  C3  UNL     1      31.370  -3.963  67.989  1.00  0.00     0.090 C 
BRANCH  14  15
HETATM   15  S1  UNL     1      32.685  -2.896  68.636  1.00  0.00    -0.104 SA
BRANCH  15  16
HETATM   16  C4  UNL     1      31.968  -2.020  70.052  1.00  0.00     0.111 A 
HETATM   17  N1  UNL     1      31.396  -2.517  71.128  1.00  0.00    -0.354 N 
HETATM   18  C5  UNL     1      30.936  -1.732  72.047  1.00  0.00     0.096 A 
ATOM     19  H1  UNL     1      31.315  -3.528  71.237  1.00  0.00     0.166 HD
HETATM   20  C6  UNL     1      31.070  -0.378  71.851  1.00  0.00     0.069 A 
HETATM   21  S2  UNL     1      31.862  -0.333  70.333  1.00  0.00    -0.076 SA
ENDBRANCH  15  16
ENDBRANCH  14  15
ENDBRANCH  13  14
ENDBRANCH   2  13
TORSDOF 4
ENDMDL
