MODEL 1
REMARK VINA RESULT: -7.031495555      0.000      0.000
REMARK  5 active torsions:
REMARK  status: ('A' for Active; 'I' for Inactive)
REMARK    1  A    between atoms: C2_2  and  C3_3 
REMARK    2  A    between atoms: C3_3  and  O1_4 
REMARK    3  A    between atoms: O1_4  and  C4_5 
REMARK    4  A    between atoms: C4_5  and  C5_7 
REMARK    5  A    between atoms: C5_7  and  C6_8 
ROOT
HETATM    1  C6  UNL     1      30.232  -6.877  60.530  1.00  0.00     0.143 C 
HETATM    2  O3  UNL     1      30.796  -7.668  61.573  1.00  0.00    -0.349 OA
HETATM    3  C7  UNL     1      29.988  -7.653  62.655  1.00  0.00     0.162 C 
HETATM    4  C8  UNL     1      29.933  -9.028  63.261  1.00  0.00     0.079 C 
HETATM    5  C9  UNL     1      28.616  -7.309  62.132  1.00  0.00     0.080 C 
HETATM    6  C10 UNL     1      29.086  -6.187  61.155  1.00  0.00    -0.006 C 
HETATM    7  C11 UNL     1      27.942  -5.747  60.335  1.00  0.00     0.018 C 
HETATM    8  C12 UNL     1      29.485  -5.080  62.113  1.00  0.00     0.031 C 
HETATM    9  C13 UNL     1      29.793  -3.767  61.496  1.00  0.00     0.008 C 
HETATM   10  C14 UNL     1      29.851  -2.725  62.590  1.00  0.00     0.001 C 
HETATM   11  C15 UNL     1      30.579  -3.117  63.819  1.00  0.00     0.003 C 
HETATM   12  C16 UNL     1      30.293  -4.500  64.309  1.00  0.00     0.038 C 
HETATM   13  C17 UNL     1      30.521  -5.466  63.124  1.00  0.00     0.065 C 
HETATM   14  C18 UNL     1      31.939  -5.172  62.702  1.00  0.00     0.046 C 
HETATM   15  O4  UNL     1      30.410  -6.733  63.619  1.00  0.00    -0.344 OA
ENDROOT
BRANCH   1  16
HETATM   16  C5  UNL     1      29.849  -7.907  59.519  1.00  0.00     0.144 C 
BRANCH  16  17
HETATM   17  C4  UNL     1      30.111  -7.644  58.112  1.00  0.00     0.261 C 
HETATM   18  O2  UNL     1      31.006  -8.212  57.475  1.00  0.00    -0.265 OA
BRANCH  17  19
HETATM   19  O1  UNL     1      29.315  -6.711  57.470  1.00  0.00    -0.321 OA
BRANCH  19  20
HETATM   20  C3  UNL     1      28.234  -7.030  56.666  1.00  0.00     0.178 C 
BRANCH  20  21
HETATM   21  C2  UNL     1      27.462  -8.253  57.062  1.00  0.00     0.022 C 
HETATM   22  C1  UNL     1      26.205  -7.807  57.798  1.00  0.00     0.007 C 
ENDBRANCH  20  21
ENDBRANCH  19  20
ENDBRANCH  17  19
ENDBRANCH  16  17
ENDBRANCH   1  16
TORSDOF 5
ENDMDL
MODEL 2
REMARK VINA RESULT: -6.676160495      7.295     10.605
REMARK  5 active torsions:
REMARK  status: ('A' for Active; 'I' for Inactive)
REMARK    1  A    between atoms: C2_2  and  C3_3 
REMARK    2  A    between atoms: C3_3  and  O1_4 
REMARK    3  A    between atoms: O1_4  and  C4_5 
REMARK    4  A    between atoms: C4_5  and  C5_7 
REMARK    5  A    between atoms: C5_7  and  C6_8 
ROOT
HETATM    1  C6  UNL     1      31.635  -1.694  69.385  1.00  0.00     0.143 C 
HETATM    2  O3  UNL     1      30.623  -0.716  69.611  1.00  0.00    -0.349 OA
HETATM    3  C7  UNL     1      31.161   0.387  70.174  1.00  0.00     0.162 C 
HETATM    4  C8  UNL     1      30.544   1.615  69.564  1.00  0.00     0.079 C 
HETATM    5  C9  UNL     1      32.623   0.358  69.806  1.00  0.00     0.080 C 
HETATM    6  C10 UNL     1      32.832  -1.165  70.070  1.00  0.00    -0.006 C 
HETATM    7  C11 UNL     1      34.182  -1.556  69.621  1.00  0.00     0.018 C 
HETATM    8  C12 UNL     1      32.754  -1.239  71.583  1.00  0.00     0.031 C 
HETATM    9  C13 UNL     1      33.121  -2.541  72.190  1.00  0.00     0.008 C 
HETATM   10  C14 UNL     1      33.299  -2.343  73.678  1.00  0.00     0.001 C 
HETATM   11  C15 UNL     1      32.269  -1.516  74.349  1.00  0.00     0.003 C 
HETATM   12  C16 UNL     1      31.876  -0.276  73.612  1.00  0.00     0.038 C 
HETATM   13  C17 UNL     1      31.489  -0.697  72.175  1.00  0.00     0.065 C 
HETATM   14  C18 UNL     1      30.413  -1.731  72.392  1.00  0.00     0.046 C 
HETATM   15  O4  UNL     1      30.985   0.413  71.560  1.00  0.00    -0.344 OA
ENDROOT
BRANCH   1  16
HETATM   16  C5  UNL     1      31.739  -1.709  67.895  1.00  0.00     0.144 C 
BRANCH  16  17
HETATM   17  C4  UNL     1      31.379  -2.922  67.177  1.00  0.00     0.261 C 
HETATM   18  O2  UNL     1      31.767  -4.047  67.515  1.00  0.00    -0.265 OA
BRANCH  17  19
HETATM   19  O1  UNL     1      30.564  -2.797  66.065  1.00  0.00    -0.321 OA
BRANCH  19  20
HETATM   20  C3  UNL     1      30.883  -3.277  64.806  1.00  0.00     0.178 C 
BRANCH  20  21
HETATM   21  C2  UNL     1      29.861  -3.036  63.735  1.00  0.00     0.022 C 
HETATM   22  C1  UNL     1      30.559  -3.104  62.383  1.00  0.00     0.007 C 
ENDBRANCH  20  21
ENDBRANCH  19  20
ENDBRANCH  17  19
ENDBRANCH  16  17
ENDBRANCH   1  16
TORSDOF 5
ENDMDL
MODEL 3
REMARK VINA RESULT: -6.609488208      1.235      1.765
REMARK  5 active torsions:
REMARK  status: ('A' for Active; 'I' for Inactive)
REMARK    1  A    between atoms: C2_2  and  C3_3 
REMARK    2  A    between atoms: C3_3  and  O1_4 
REMARK    3  A    between atoms: O1_4  and  C4_5 
REMARK    4  A    between atoms: C4_5  and  C5_7 
REMARK    5  A    between atoms: C5_7  and  C6_8 
ROOT
HETATM    1  C6  UNL     1      30.191  -6.941  60.548  1.00  0.00     0.143 C 
HETATM    2  O3  UNL     1      30.751  -7.698  61.618  1.00  0.00    -0.349 OA
HETATM    3  C7  UNL     1      29.945  -7.640  62.698  1.00  0.00     0.162 C 
HETATM    4  C8  UNL     1      29.882  -8.993  63.353  1.00  0.00     0.079 C 
HETATM    5  C9  UNL     1      28.575  -7.307  62.165  1.00  0.00     0.080 C 
HETATM    6  C10 UNL     1      29.050  -6.223  61.149  1.00  0.00    -0.006 C 
HETATM    7  C11 UNL     1      27.908  -5.805  60.314  1.00  0.00     0.018 C 
HETATM    8  C12 UNL     1      29.457  -5.085  62.067  1.00  0.00     0.031 C 
HETATM    9  C13 UNL     1      29.773  -3.797  61.404  1.00  0.00     0.008 C 
HETATM   10  C14 UNL     1      29.838  -2.717  62.460  1.00  0.00     0.001 C 
HETATM   11  C15 UNL     1      30.565  -3.070  63.702  1.00  0.00     0.003 C 
HETATM   12  C16 UNL     1      30.271  -4.433  64.240  1.00  0.00     0.038 C 
HETATM   13  C17 UNL     1      30.492  -5.441  63.089  1.00  0.00     0.065 C 
HETATM   14  C18 UNL     1      31.911  -5.172  62.657  1.00  0.00     0.046 C 
HETATM   15  O4  UNL     1      30.374  -6.690  63.629  1.00  0.00    -0.344 OA
ENDROOT
BRANCH   1  16
HETATM   16  C5  UNL     1      29.801  -8.004  59.573  1.00  0.00     0.144 C 
BRANCH  16  17
HETATM   17  C4  UNL     1      30.076  -7.798  58.160  1.00  0.00     0.261 C 
HETATM   18  O2  UNL     1      29.823  -6.740  57.571  1.00  0.00    -0.265 OA
BRANCH  17  19
HETATM   19  O1  UNL     1      30.645  -8.842  57.453  1.00  0.00    -0.321 OA
BRANCH  19  20
HETATM   20  C3  UNL     1      29.924  -9.796  56.754  1.00  0.00     0.178 C 
BRANCH  20  21
HETATM   21  C2  UNL     1      30.309  -9.984  55.316  1.00  0.00     0.022 C 
HETATM   22  C1  UNL     1      31.145  -8.786  54.885  1.00  0.00     0.007 C 
ENDBRANCH  20  21
ENDBRANCH  19  20
ENDBRANCH  17  19
ENDBRANCH  16  17
ENDBRANCH   1  16
TORSDOF 5
ENDMDL
MODEL 4
REMARK VINA RESULT: -6.515840183      8.528     11.760
REMARK  5 active torsions:
REMARK  status: ('A' for Active; 'I' for Inactive)
REMARK    1  A    between atoms: C2_2  and  C3_3 
REMARK    2  A    between atoms: C3_3  and  O1_4 
REMARK    3  A    between atoms: O1_4  and  C4_5 
REMARK    4  A    between atoms: C4_5  and  C5_7 
REMARK    5  A    between atoms: C5_7  and  C6_8 
ROOT
HETATM    1  C6  UNL     1      32.276  -1.115  70.875  1.00  0.00     0.143 C 
HETATM    2  O3  UNL     1      31.898  -1.821  72.054  1.00  0.00    -0.349 OA
HETATM    3  C7  UNL     1      30.787  -1.270  72.588  1.00  0.00     0.162 C 
HETATM    4  C8  UNL     1      29.870  -2.358  73.075  1.00  0.00     0.079 C 
HETATM    5  C9  UNL     1      30.106  -0.548  71.454  1.00  0.00     0.080 C 
HETATM    6  C10 UNL     1      31.403   0.076  70.851  1.00  0.00    -0.006 C 
HETATM    7  C11 UNL     1      31.077   0.735  69.572  1.00  0.00     0.018 C 
HETATM    8  C12 UNL     1      31.765   1.121  71.889  1.00  0.00     0.031 C 
HETATM    9  C13 UNL     1      32.857   2.054  71.518  1.00  0.00     0.008 C 
HETATM   10  C14 UNL     1      32.863   3.201  72.504  1.00  0.00     0.001 C 
HETATM   11  C15 UNL     1      32.702   2.830  73.929  1.00  0.00     0.003 C 
HETATM   12  C16 UNL     1      31.654   1.799  74.200  1.00  0.00     0.038 C 
HETATM   13  C17 UNL     1      31.946   0.593  73.278  1.00  0.00     0.065 C 
HETATM   14  C18 UNL     1      33.367   0.225  73.623  1.00  0.00     0.046 C 
HETATM   15  O4  UNL     1      31.082  -0.400  73.642  1.00  0.00    -0.344 OA
ENDROOT
BRANCH   1  16
HETATM   16  C5  UNL     1      31.985  -2.109  69.799  1.00  0.00     0.144 C 
BRANCH  16  17
HETATM   17  C4  UNL     1      32.662  -1.978  68.518  1.00  0.00     0.261 C 
HETATM   18  O2  UNL     1      33.806  -1.522  68.404  1.00  0.00    -0.265 OA
BRANCH  17  19
HETATM   19  O1  UNL     1      31.982  -2.385  67.383  1.00  0.00    -0.321 OA
BRANCH  19  20
HETATM   20  C3  UNL     1      31.494  -3.665  67.183  1.00  0.00     0.178 C 
BRANCH  20  21
HETATM   21  C2  UNL     1      31.464  -4.140  65.761  1.00  0.00     0.022 C 
HETATM   22  C1  UNL     1      30.700  -3.116  64.931  1.00  0.00     0.007 C 
ENDBRANCH  20  21
ENDBRANCH  19  20
ENDBRANCH  17  19
ENDBRANCH  16  17
ENDBRANCH   1  16
TORSDOF 5
ENDMDL
MODEL 5
REMARK VINA RESULT: -6.507454427      4.095      7.610
REMARK  5 active torsions:
REMARK  status: ('A' for Active; 'I' for Inactive)
REMARK    1  A    between atoms: C2_2  and  C3_3 
REMARK    2  A    between atoms: C3_3  and  O1_4 
REMARK    3  A    between atoms: O1_4  and  C4_5 
REMARK    4  A    between atoms: C4_5  and  C5_7 
REMARK    5  A    between atoms: C5_7  and  C6_8 
ROOT
HETATM    1  C6  UNL     1      32.670  -8.279  65.031  1.00  0.00     0.143 C 
HETATM    2  O3  UNL     1      33.099  -6.979  65.425  1.00  0.00    -0.349 OA
HETATM    3  C7  UNL     1      32.065  -6.290  65.954  1.00  0.00     0.162 C 
HETATM    4  C8  UNL     1      32.539  -5.510  67.150  1.00  0.00     0.079 C 
HETATM    5  C9  UNL     1      31.082  -7.330  66.425  1.00  0.00     0.080 C 
HETATM    6  C10 UNL     1      31.200  -8.252  65.172  1.00  0.00    -0.006 C 
HETATM    7  C11 UNL     1      30.450  -9.499  65.412  1.00  0.00     0.018 C 
HETATM    8  C12 UNL     1      30.498  -7.429  64.107  1.00  0.00     0.031 C 
HETATM    9  C13 UNL     1      30.249  -8.115  62.816  1.00  0.00     0.008 C 
HETATM   10  C14 UNL     1      29.278  -7.282  62.011  1.00  0.00     0.001 C 
HETATM   11  C15 UNL     1      29.533  -5.822  61.998  1.00  0.00     0.003 C 
HETATM   12  C16 UNL     1      29.888  -5.232  63.325  1.00  0.00     0.038 C 
HETATM   13  C17 UNL     1      31.063  -6.058  63.897  1.00  0.00     0.065 C 
HETATM   14  C18 UNL     1      32.108  -5.976  62.814  1.00  0.00     0.046 C 
HETATM   15  O4  UNL     1      31.481  -5.420  65.029  1.00  0.00    -0.344 OA
ENDROOT
BRANCH   1  16
HETATM   16  C5  UNL     1      33.363  -9.159  66.020  1.00  0.00     0.144 C 
BRANCH  16  17
HETATM   17  C4  UNL     1      34.755  -8.891  66.346  1.00  0.00     0.261 C 
HETATM   18  O2  UNL     1      35.695  -9.229  65.617  1.00  0.00    -0.265 OA
BRANCH  17  19
HETATM   19  O1  UNL     1      35.025  -8.227  67.530  1.00  0.00    -0.321 OA
BRANCH  19  20
HETATM   20  C3  UNL     1      36.028  -7.284  67.684  1.00  0.00     0.178 C 
BRANCH  20  21
HETATM   21  C2  UNL     1      35.835  -6.300  68.800  1.00  0.00     0.022 C 
HETATM   22  C1  UNL     1      36.888  -5.208  68.662  1.00  0.00     0.007 C 
ENDBRANCH  20  21
ENDBRANCH  19  20
ENDBRANCH  17  19
ENDBRANCH  16  17
ENDBRANCH   1  16
TORSDOF 5
ENDMDL
