MODEL 1
REMARK VINA RESULT: -8.795233514      0.000      0.000
REMARK  5 active torsions:
REMARK  status: ('A' for Active; 'I' for Inactive)
REMARK    1  A    between atoms: C2_2  and  C3_3 
REMARK    2  A    between atoms: C6_8  and  C7_9 
REMARK    3  A    between atoms: C7_9  and  C8_10 
REMARK    4  A    between atoms: C8_10  and  C9_11 
REMARK    5  A    between atoms: C9_11  and  O4_13 
ROOT
HETATM    1  C3  UNL     1      31.488  -7.290  64.926  1.00  0.00     0.020 C 
HETATM    2  C4  UNL     1      31.313  -5.946  64.311  1.00  0.00     0.049 C 
HETATM    3  C5  UNL     1      30.336  -5.901  63.207  1.00  0.00     0.104 C 
HETATM    4  O1  UNL     1      29.416  -6.934  63.367  1.00  0.00    -0.228 OA
HETATM    5  O2  UNL     1      30.066  -8.047  63.124  1.00  0.00    -0.234 OA
HETATM    6  C6  UNL     1      30.892  -8.425  64.170  1.00  0.00     0.165 C 
HETATM    7  C11 UNL     1      30.955  -6.017  61.827  1.00  0.00     0.024 C 
HETATM    8  C12 UNL     1      31.842  -4.853  61.528  1.00  0.00     0.012 C 
HETATM    9  C13 UNL     1      31.172  -3.529  61.712  1.00  0.00    -0.013 C 
HETATM   10  C14 UNL     1      29.852  -3.459  60.938  1.00  0.00     0.010 C 
HETATM   11  C15 UNL     1      29.106  -4.597  61.634  1.00  0.00    -0.007 C 
HETATM   12  C16 UNL     1      29.675  -5.864  60.993  1.00  0.00     0.012 C 
HETATM   13  C17 UNL     1      29.592  -4.599  63.068  1.00  0.00     0.028 C 
HETATM   14  C18 UNL     1      30.609  -3.452  63.133  1.00  0.00     0.012 C 
ENDROOT
BRANCH   1  15
HETATM   15  C2  UNL     1      32.986  -7.516  65.137  1.00  0.00     0.003 C 
HETATM   16  C1  UNL     1      33.339  -7.488  66.609  1.00  0.00     0.005 C 
ENDBRANCH   1  15
BRANCH   6  17
HETATM   17  C7  UNL     1      30.094  -9.384  65.025  1.00  0.00     0.045 C 
BRANCH  17  18
HETATM   18  C8  UNL     1      29.307 -10.363  64.188  1.00  0.00     0.114 C 
BRANCH  18  19
HETATM   19  C9  UNL     1      28.900 -11.554  64.981  1.00  0.00     0.258 C 
HETATM   20  O3  UNL     1      27.713 -11.665  65.384  1.00  0.00    -0.265 OA
BRANCH  19  21
HETATM   21  O4  UNL     1      29.786 -12.572  65.307  1.00  0.00    -0.326 OA
HETATM   22  C10 UNL     1      29.292 -13.797  65.792  1.00  0.00     0.213 C 
ENDBRANCH  19  21
ENDBRANCH  18  19
ENDBRANCH  17  18
ENDBRANCH   6  17
TORSDOF 5
ENDMDL
MODEL 2
REMARK VINA RESULT: -8.670881428      1.268      1.343
REMARK  5 active torsions:
REMARK  status: ('A' for Active; 'I' for Inactive)
REMARK    1  A    between atoms: C2_2  and  C3_3 
REMARK    2  A    between atoms: C6_8  and  C7_9 
REMARK    3  A    between atoms: C7_9  and  C8_10 
REMARK    4  A    between atoms: C8_10  and  C9_11 
REMARK    5  A    between atoms: C9_11  and  O4_13 
ROOT
HETATM    1  C3  UNL     1      31.450  -7.169  64.861  1.00  0.00     0.020 C 
HETATM    2  C4  UNL     1      31.272  -5.795  64.317  1.00  0.00     0.049 C 
HETATM    3  C5  UNL     1      30.336  -5.704  63.180  1.00  0.00     0.104 C 
HETATM    4  O1  UNL     1      29.431  -6.759  63.248  1.00  0.00    -0.228 OA
HETATM    5  O2  UNL     1      30.109  -7.846  62.967  1.00  0.00    -0.234 OA
HETATM    6  C6  UNL     1      30.903  -8.269  64.021  1.00  0.00     0.165 C 
HETATM    7  C11 UNL     1      31.008  -5.732  61.821  1.00  0.00     0.024 C 
HETATM    8  C12 UNL     1      31.883  -4.538  61.621  1.00  0.00     0.012 C 
HETATM    9  C13 UNL     1      31.183  -3.238  61.853  1.00  0.00    -0.013 C 
HETATM   10  C14 UNL     1      29.891  -3.146  61.034  1.00  0.00     0.010 C 
HETATM   11  C15 UNL     1      29.141  -4.334  61.637  1.00  0.00    -0.007 C 
HETATM   12  C16 UNL     1      29.757  -5.553  60.948  1.00  0.00     0.012 C 
HETATM   13  C17 UNL     1      29.574  -4.409  63.087  1.00  0.00     0.028 C 
HETATM   14  C18 UNL     1      30.566  -3.251  63.253  1.00  0.00     0.012 C 
ENDROOT
BRANCH   1  15
HETATM   15  C2  UNL     1      32.942  -7.382  65.117  1.00  0.00     0.003 C 
HETATM   16  C1  UNL     1      33.245  -7.398  66.600  1.00  0.00     0.005 C 
ENDBRANCH   1  15
BRANCH   6  17
HETATM   17  C7  UNL     1      30.092  -9.287  64.791  1.00  0.00     0.045 C 
BRANCH  17  18
HETATM   18  C8  UNL     1      30.347 -10.693  64.304  1.00  0.00     0.114 C 
BRANCH  18  19
HETATM   19  C9  UNL     1      31.439 -11.347  65.076  1.00  0.00     0.258 C 
HETATM   20  O3  UNL     1      32.003 -10.728  66.015  1.00  0.00    -0.265 OA
BRANCH  19  21
HETATM   21  O4  UNL     1      31.874 -12.637  64.805  1.00  0.00    -0.326 OA
HETATM   22  C10 UNL     1      31.867 -13.604  65.828  1.00  0.00     0.213 C 
ENDBRANCH  19  21
ENDBRANCH  18  19
ENDBRANCH  17  18
ENDBRANCH   6  17
TORSDOF 5
ENDMDL
MODEL 3
REMARK VINA RESULT: -8.413069698      2.645      4.480
REMARK  5 active torsions:
REMARK  status: ('A' for Active; 'I' for Inactive)
REMARK    1  A    between atoms: C2_2  and  C3_3 
REMARK    2  A    between atoms: C6_8  and  C7_9 
REMARK    3  A    between atoms: C7_9  and  C8_10 
REMARK    4  A    between atoms: C8_10  and  C9_11 
REMARK    5  A    between atoms: C9_11  and  O4_13 
ROOT
HETATM    1  C3  UNL     1      31.406  -8.203  64.687  1.00  0.00     0.020 C 
HETATM    2  C4  UNL     1      31.032  -7.598  63.379  1.00  0.00     0.049 C 
HETATM    3  C5  UNL     1      31.176  -6.131  63.320  1.00  0.00     0.104 C 
HETATM    4  O1  UNL     1      32.134  -5.728  64.246  1.00  0.00    -0.228 OA
HETATM    5  O2  UNL     1      31.601  -5.911  65.430  1.00  0.00    -0.234 OA
HETATM    6  C6  UNL     1      31.585  -7.243  65.811  1.00  0.00     0.165 C 
HETATM    7  C11 UNL     1      29.892  -5.371  63.592  1.00  0.00     0.024 C 
HETATM    8  C12 UNL     1      28.865  -5.643  62.542  1.00  0.00     0.012 C 
HETATM    9  C13 UNL     1      29.354  -5.399  61.151  1.00  0.00    -0.013 C 
HETATM   10  C14 UNL     1      29.964  -4.001  61.010  1.00  0.00     0.010 C 
HETATM   11  C15 UNL     1      31.104  -4.134  62.020  1.00  0.00    -0.007 C 
HETATM   12  C16 UNL     1      30.424  -3.947  63.377  1.00  0.00     0.012 C 
HETATM   13  C17 UNL     1      31.541  -5.583  61.966  1.00  0.00     0.028 C 
HETATM   14  C18 UNL     1      30.621  -6.225  60.920  1.00  0.00     0.012 C 
ENDROOT
BRANCH   1  15
HETATM   15  C2  UNL     1      30.347  -9.248  65.039  1.00  0.00     0.003 C 
HETATM   16  C1  UNL     1      29.566  -9.667  63.813  1.00  0.00     0.005 C 
ENDBRANCH   1  15
BRANCH   6  17
HETATM   17  C7  UNL     1      32.838  -7.475  66.625  1.00  0.00     0.045 C 
BRANCH  17  18
HETATM   18  C8  UNL     1      33.556  -8.735  66.204  1.00  0.00     0.114 C 
BRANCH  18  19
HETATM   19  C9  UNL     1      35.003  -8.679  66.550  1.00  0.00     0.258 C 
HETATM   20  O3  UNL     1      35.848  -9.242  65.808  1.00  0.00    -0.265 OA
BRANCH  19  21
HETATM   21  O4  UNL     1      35.475  -8.020  67.676  1.00  0.00    -0.326 OA
HETATM   22  C10 UNL     1      36.688  -7.309  67.610  1.00  0.00     0.213 C 
ENDBRANCH  19  21
ENDBRANCH  18  19
ENDBRANCH  17  18
ENDBRANCH   6  17
TORSDOF 5
ENDMDL
MODEL 4
REMARK VINA RESULT: -8.253729153      2.374      4.125
REMARK  5 active torsions:
REMARK  status: ('A' for Active; 'I' for Inactive)
REMARK    1  A    between atoms: C2_2  and  C3_3 
REMARK    2  A    between atoms: C6_8  and  C7_9 
REMARK    3  A    between atoms: C7_9  and  C8_10 
REMARK    4  A    between atoms: C8_10  and  C9_11 
REMARK    5  A    between atoms: C9_11  and  O4_13 
ROOT
HETATM    1  C3  UNL     1      30.818  -8.496  63.840  1.00  0.00     0.020 C 
HETATM    2  C4  UNL     1      30.600  -7.567  62.697  1.00  0.00     0.049 C 
HETATM    3  C5  UNL     1      31.028  -6.178  62.948  1.00  0.00     0.104 C 
HETATM    4  O1  UNL     1      32.023  -6.174  63.920  1.00  0.00    -0.228 OA
HETATM    5  O2  UNL     1      31.437  -6.496  65.049  1.00  0.00    -0.234 OA
HETATM    6  C6  UNL     1      31.153  -7.849  65.139  1.00  0.00     0.165 C 
HETATM    7  C11 UNL     1      29.910  -5.257  63.399  1.00  0.00     0.024 C 
HETATM    8  C12 UNL     1      28.875  -5.095  62.334  1.00  0.00     0.012 C 
HETATM    9  C13 UNL     1      29.435  -4.662  61.017  1.00  0.00    -0.013 C 
HETATM   10  C14 UNL     1      30.308  -3.412  61.165  1.00  0.00     0.010 C 
HETATM   11  C15 UNL     1      31.376  -3.976  62.102  1.00  0.00    -0.007 C 
HETATM   12  C16 UNL     1      30.714  -3.951  63.481  1.00  0.00     0.012 C 
HETATM   13  C17 UNL     1      31.525  -5.438  61.735  1.00  0.00     0.028 C 
HETATM   14  C18 UNL     1      30.523  -5.652  60.593  1.00  0.00     0.012 C 
ENDROOT
BRANCH   1  15
HETATM   15  C2  UNL     1      29.568  -9.364  63.982  1.00  0.00     0.003 C 
HETATM   16  C1  UNL     1      29.921 -10.754  64.467  1.00  0.00     0.005 C 
ENDBRANCH   1  15
BRANCH   6  17
HETATM   17  C7  UNL     1      32.317  -8.489  65.862  1.00  0.00     0.045 C 
BRANCH  17  18
HETATM   18  C8  UNL     1      32.849  -7.603  66.962  1.00  0.00     0.114 C 
BRANCH  18  19
HETATM   19  C9  UNL     1      33.702  -8.367  67.913  1.00  0.00     0.258 C 
HETATM   20  O3  UNL     1      33.332  -8.518  69.106  1.00  0.00    -0.265 OA
BRANCH  19  21
HETATM   21  O4  UNL     1      34.911  -8.935  67.539  1.00  0.00    -0.326 OA
HETATM   22  C10 UNL     1      35.845  -8.171  66.814  1.00  0.00     0.213 C 
ENDBRANCH  19  21
ENDBRANCH  18  19
ENDBRANCH  17  18
ENDBRANCH   6  17
TORSDOF 5
ENDMDL
MODEL 5
REMARK VINA RESULT: -8.114434451      4.365      7.170
REMARK  5 active torsions:
REMARK  status: ('A' for Active; 'I' for Inactive)
REMARK    1  A    between atoms: C2_2  and  C3_3 
REMARK    2  A    between atoms: C6_8  and  C7_9 
REMARK    3  A    between atoms: C7_9  and  C8_10 
REMARK    4  A    between atoms: C8_10  and  C9_11 
REMARK    5  A    between atoms: C9_11  and  O4_13 
ROOT
HETATM    1  C3  UNL     1      27.946  -6.700  58.381  1.00  0.00     0.020 C 
HETATM    2  C4  UNL     1      28.238  -5.926  59.619  1.00  0.00     0.049 C 
HETATM    3  C5  UNL     1      29.616  -6.077  60.124  1.00  0.00     0.104 C 
HETATM    4  O1  UNL     1      30.456  -6.417  59.067  1.00  0.00    -0.228 OA
HETATM    5  O2  UNL     1      30.143  -7.645  58.728  1.00  0.00    -0.234 OA
HETATM    6  C6  UNL     1      28.964  -7.718  58.005  1.00  0.00     0.165 C 
HETATM    7  C11 UNL     1      29.765  -7.122  61.213  1.00  0.00     0.024 C 
HETATM    8  C12 UNL     1      29.005  -6.741  62.441  1.00  0.00     0.012 C 
HETATM    9  C13 UNL     1      29.339  -5.375  62.951  1.00  0.00    -0.013 C 
HETATM   10  C14 UNL     1      30.850  -5.201  63.133  1.00  0.00     0.010 C 
HETATM   11  C15 UNL     1      31.292  -5.413  61.685  1.00  0.00    -0.007 C 
HETATM   12  C16 UNL     1      31.261  -6.932  61.503  1.00  0.00     0.012 C 
HETATM   13  C17 UNL     1      30.173  -4.866  60.823  1.00  0.00     0.028 C 
HETATM   14  C18 UNL     1      29.126  -4.361  61.825  1.00  0.00     0.012 C 
ENDROOT
BRANCH   1  15
HETATM   15  C2  UNL     1      26.574  -7.352  58.551  1.00  0.00     0.003 C 
HETATM   16  C1  UNL     1      26.152  -8.072  57.288  1.00  0.00     0.005 C 
ENDBRANCH   1  15
BRANCH   6  17
HETATM   17  C7  UNL     1      29.352  -7.690  56.543  1.00  0.00     0.045 C 
BRANCH  17  18
HETATM   18  C8  UNL     1      30.114  -8.930  56.140  1.00  0.00     0.114 C 
BRANCH  18  19
HETATM   19  C9  UNL     1      31.329  -8.590  55.350  1.00  0.00     0.258 C 
HETATM   20  O3  UNL     1      31.292  -8.629  54.093  1.00  0.00    -0.265 OA
BRANCH  19  21
HETATM   21  O4  UNL     1      32.527  -8.223  55.946  1.00  0.00    -0.326 OA
HETATM   22  C10 UNL     1      33.714  -8.238  55.190  1.00  0.00     0.213 C 
ENDBRANCH  19  21
ENDBRANCH  18  19
ENDBRANCH  17  18
ENDBRANCH   6  17
TORSDOF 5
ENDMDL
