MODEL 1
REMARK VINA RESULT: -6.312085646      0.000      0.000
REMARK  4 active torsions:
REMARK  status: ('A' for Active; 'I' for Inactive)
REMARK    1  A    between atoms: C2_2  and  C3_3 
REMARK    2  A    between atoms: C3_3  and  C4_4 
REMARK    3  A    between atoms: C4_4  and  N1_5 
REMARK    4  A    between atoms: C5_6  and  O1_7 
ROOT
HETATM    1  N1  UNL     1      26.183  21.439   2.561  1.00  0.00    -0.324 N 
HETATM    2  C5  UNL     1      25.916  22.015   1.321  1.00  0.00     0.163 A 
HETATM    3  C6  UNL     1      24.581  22.132   1.116  1.00  0.00     0.091 A 
HETATM    4  S1  UNL     1      23.736  22.801  -0.307  1.00  0.00    -0.045 SA
HETATM    5  C7  UNL     1      23.989  21.620   2.248  1.00  0.00     0.083 A 
HETATM    6  N2  UNL     1      22.818  21.366   2.841  1.00  0.00    -0.352 N 
ATOM      7  H2  UNL     1      21.901  21.566   2.440  1.00  0.00     0.166 HD
HETATM    8  C8  UNL     1      23.033  20.808   4.042  1.00  0.00     0.051 A 
HETATM    9  C9  UNL     1      22.111  20.386   4.987  1.00  0.00    -0.034 A 
HETATM   10  C10 UNL     1      20.655  20.528   4.735  1.00  0.00     0.050 C 
HETATM   11  C11 UNL     1      22.594  19.840   6.146  1.00  0.00     0.016 A 
HETATM   12  C12 UNL     1      23.954  19.717   6.361  1.00  0.00    -0.054 A 
HETATM   13  C13 UNL     1      24.456  19.123   7.630  1.00  0.00     0.049 C 
HETATM   14  C14 UNL     1      24.895  20.139   5.415  1.00  0.00    -0.041 A 
HETATM   15  C15 UNL     1      26.324  19.943   5.745  1.00  0.00     0.050 C 
HETATM   16  C16 UNL     1      24.404  20.684   4.260  1.00  0.00     0.027 A 
HETATM   17  C17 UNL     1      25.009  21.201   3.121  1.00  0.00     0.078 A 
ENDROOT
BRANCH   1  18
HETATM   18  C4  UNL     1      27.551  21.251   2.919  1.00  0.00     0.131 C 
BRANCH  18  19
HETATM   19  C3  UNL     1      28.219  20.099   2.192  1.00  0.00     0.020 C 
BRANCH  19  20
HETATM   20  C2  UNL     1      27.653  18.764   2.593  1.00  0.00    -0.003 C 
HETATM   21  C1  UNL     1      28.342  17.581   1.975  1.00  0.00     0.005 C 
ENDBRANCH  19  20
ENDBRANCH  18  19
ENDBRANCH   1  18
BRANCH   2  22
HETATM   22  O1  UNL     1      26.869  22.427   0.396  1.00  0.00    -0.345 OA
ATOM     23  H1  UNL     1      27.265  21.879  -0.272  1.00  0.00     0.219 HD
ENDBRANCH   2  22
TORSDOF 4
ENDMDL
MODEL 2
REMARK VINA RESULT: -6.271509139      3.082      6.290
REMARK  4 active torsions:
REMARK  status: ('A' for Active; 'I' for Inactive)
REMARK    1  A    between atoms: C2_2  and  C3_3 
REMARK    2  A    between atoms: C3_3  and  C4_4 
REMARK    3  A    between atoms: C4_4  and  N1_5 
REMARK    4  A    between atoms: C5_6  and  O1_7 
ROOT
HETATM    1  N1  UNL     1      23.286  20.396   4.894  1.00  0.00    -0.324 N 
HETATM    2  C5  UNL     1      23.445  19.803   6.145  1.00  0.00     0.163 A 
HETATM    3  C6  UNL     1      24.755  19.580   6.415  1.00  0.00     0.091 A 
HETATM    4  S1  UNL     1      25.474  18.847   7.875  1.00  0.00    -0.045 SA
HETATM    5  C7  UNL     1      25.440  20.041   5.314  1.00  0.00     0.083 A 
HETATM    6  N2  UNL     1      26.656  20.199   4.780  1.00  0.00    -0.352 N 
ATOM      7  H2  UNL     1      27.533  19.928   5.224  1.00  0.00     0.166 HD
HETATM    8  C8  UNL     1      26.545  20.769   3.570  1.00  0.00     0.051 A 
HETATM    9  C9  UNL     1      27.542  21.112   2.670  1.00  0.00    -0.034 A 
HETATM   10  C10 UNL     1      28.968  20.857   2.994  1.00  0.00     0.050 C 
HETATM   11  C11 UNL     1      27.161  21.686   1.488  1.00  0.00     0.016 A 
HETATM   12  C12 UNL     1      25.828  21.915   1.206  1.00  0.00    -0.054 A 
HETATM   13  C13 UNL     1      25.437  22.543  -0.086  1.00  0.00     0.049 C 
HETATM   14  C14 UNL     1      24.811  21.573   2.105  1.00  0.00    -0.041 A 
HETATM   15  C15 UNL     1      23.417  21.850   1.691  1.00  0.00     0.050 C 
HETATM   16  C16 UNL     1      25.200  21.001   3.285  1.00  0.00     0.027 A 
HETATM   17  C17 UNL     1      24.501  20.539   4.393  1.00  0.00     0.078 A 
ENDROOT
BRANCH   1  18
HETATM   18  C4  UNL     1      21.957  20.691   4.471  1.00  0.00     0.131 C 
BRANCH  18  19
HETATM   19  C3  UNL     1      21.287  19.552   3.726  1.00  0.00     0.020 C 
BRANCH  19  20
HETATM   20  C2  UNL     1      20.014  19.101   4.392  1.00  0.00    -0.003 C 
HETATM   21  C1  UNL     1      19.023  18.449   3.472  1.00  0.00     0.005 C 
ENDBRANCH  19  20
ENDBRANCH  18  19
ENDBRANCH   1  18
BRANCH   2  22
HETATM   22  O1  UNL     1      22.419  19.471   7.023  1.00  0.00    -0.345 OA
ATOM     23  H1  UNL     1      22.141  19.986   7.771  1.00  0.00     0.219 HD
ENDBRANCH   2  22
TORSDOF 4
ENDMDL
MODEL 3
REMARK VINA RESULT: -6.186462408      1.988      4.249
REMARK  4 active torsions:
REMARK  status: ('A' for Active; 'I' for Inactive)
REMARK    1  A    between atoms: C2_2  and  C3_3 
REMARK    2  A    between atoms: C3_3  and  C4_4 
REMARK    3  A    between atoms: C4_4  and  N1_5 
REMARK    4  A    between atoms: C5_6  and  O1_7 
ROOT
HETATM    1  N1  UNL     1      24.795  21.386   2.293  1.00  0.00    -0.324 N 
HETATM    2  C5  UNL     1      26.064  21.479   1.726  1.00  0.00     0.163 A 
HETATM    3  C6  UNL     1      27.013  21.021   2.578  1.00  0.00     0.091 A 
HETATM    4  S1  UNL     1      28.778  20.931   2.323  1.00  0.00    -0.045 SA
HETATM    5  C7  UNL     1      26.333  20.629   3.709  1.00  0.00     0.083 A 
HETATM    6  N2  UNL     1      26.471  20.108   4.932  1.00  0.00    -0.352 N 
ATOM      7  H2  UNL     1      27.356  19.833   5.358  1.00  0.00     0.166 HD
HETATM    8  C8  UNL     1      25.267  20.001   5.514  1.00  0.00     0.051 A 
HETATM    9  C9  UNL     1      24.943  19.519   6.773  1.00  0.00    -0.034 A 
HETATM   10  C10 UNL     1      26.004  19.022   7.684  1.00  0.00     0.050 C 
HETATM   11  C11 UNL     1      23.623  19.520   7.134  1.00  0.00     0.016 A 
HETATM   12  C12 UNL     1      22.650  19.987   6.270  1.00  0.00    -0.054 A 
HETATM   13  C13 UNL     1      21.220  19.976   6.683  1.00  0.00     0.049 C 
HETATM   14  C14 UNL     1      22.963  20.478   4.997  1.00  0.00    -0.041 A 
HETATM   15  C15 UNL     1      21.842  20.967   4.164  1.00  0.00     0.050 C 
HETATM   16  C16 UNL     1      24.285  20.472   4.644  1.00  0.00     0.027 A 
HETATM   17  C17 UNL     1      24.964  20.869   3.498  1.00  0.00     0.078 A 
ENDROOT
BRANCH   1  18
HETATM   18  C4  UNL     1      23.689  21.833   1.511  1.00  0.00     0.131 C 
BRANCH  18  19
HETATM   19  C3  UNL     1      23.313  23.282   1.758  1.00  0.00     0.020 C 
BRANCH  19  20
HETATM   20  C2  UNL     1      23.171  24.064   0.480  1.00  0.00    -0.003 C 
HETATM   21  C1  UNL     1      21.797  24.617   0.234  1.00  0.00     0.005 C 
ENDBRANCH  19  20
ENDBRANCH  18  19
ENDBRANCH   1  18
BRANCH   2  22
HETATM   22  O1  UNL     1      26.352  21.972   0.458  1.00  0.00    -0.345 OA
ATOM     23  H1  UNL     1      26.099  22.825   0.124  1.00  0.00     0.219 HD
ENDBRANCH   2  22
TORSDOF 4
ENDMDL
MODEL 4
REMARK VINA RESULT: -6.022158499      2.377      5.319
REMARK  4 active torsions:
REMARK  status: ('A' for Active; 'I' for Inactive)
REMARK    1  A    between atoms: C2_2  and  C3_3 
REMARK    2  A    between atoms: C3_3  and  C4_4 
REMARK    3  A    between atoms: C4_4  and  N1_5 
REMARK    4  A    between atoms: C5_6  and  O1_7 
ROOT
HETATM    1  N1  UNL     1      22.965  20.258   5.247  1.00  0.00    -0.324 N 
HETATM    2  C5  UNL     1      22.578  20.891   4.068  1.00  0.00     0.163 A 
HETATM    3  C6  UNL     1      23.652  21.168   3.289  1.00  0.00     0.091 A 
HETATM    4  S1  UNL     1      23.683  21.967   1.692  1.00  0.00    -0.045 SA
HETATM    5  C7  UNL     1      24.743  20.702   3.986  1.00  0.00     0.083 A 
HETATM    6  N2  UNL     1      26.073  20.572   3.961  1.00  0.00    -0.352 N 
ATOM      7  H2  UNL     1      26.681  20.888   3.204  1.00  0.00     0.166 HD
HETATM    8  C8  UNL     1      26.488  19.965   5.084  1.00  0.00     0.051 A 
HETATM    9  C9  UNL     1      27.775  19.633   5.475  1.00  0.00    -0.034 A 
HETATM   10  C10 UNL     1      28.932  19.948   4.599  1.00  0.00     0.050 C 
HETATM   11  C11 UNL     1      27.933  19.013   6.684  1.00  0.00     0.016 A 
HETATM   12  C12 UNL     1      26.842  18.728   7.484  1.00  0.00    -0.054 A 
HETATM   13  C13 UNL     1      27.037  18.050   8.795  1.00  0.00     0.049 C 
HETATM   14  C14 UNL     1      25.537  19.058   7.102  1.00  0.00    -0.041 A 
HETATM   15  C15 UNL     1      24.448  18.720   8.046  1.00  0.00     0.050 C 
HETATM   16  C16 UNL     1      25.388  19.677   5.891  1.00  0.00     0.027 A 
HETATM   17  C17 UNL     1      24.282  20.145   5.192  1.00  0.00     0.078 A 
ENDROOT
BRANCH   1  18
HETATM   18  C4  UNL     1      21.940  19.903   6.171  1.00  0.00     0.131 C 
BRANCH  18  19
HETATM   19  C3  UNL     1      21.466  21.060   7.030  1.00  0.00     0.020 C 
BRANCH  19  20
HETATM   20  C2  UNL     1      21.588  20.769   8.501  1.00  0.00    -0.003 C 
HETATM   21  C1  UNL     1      22.506  21.693   9.248  1.00  0.00     0.005 C 
ENDBRANCH  19  20
ENDBRANCH  18  19
ENDBRANCH   1  18
BRANCH   2  22
HETATM   22  O1  UNL     1      21.273  21.210   3.709  1.00  0.00    -0.345 OA
ATOM     23  H1  UNL     1      21.019  21.850   3.054  1.00  0.00     0.219 HD
ENDBRANCH   2  22
TORSDOF 4
ENDMDL
MODEL 5
REMARK VINA RESULT: -6.016160685      2.866      5.023
REMARK  4 active torsions:
REMARK  status: ('A' for Active; 'I' for Inactive)
REMARK    1  A    between atoms: C2_2  and  C3_3 
REMARK    2  A    between atoms: C3_3  and  C4_4 
REMARK    3  A    between atoms: C4_4  and  N1_5 
REMARK    4  A    between atoms: C5_6  and  O1_7 
ROOT
HETATM    1  N1  UNL     1      23.757  20.075   5.798  1.00  0.00    -0.324 N 
HETATM    2  C5  UNL     1      22.393  19.801   5.882  1.00  0.00     0.163 A 
HETATM    3  C6  UNL     1      21.788  19.967   4.680  1.00  0.00     0.091 A 
HETATM    4  S1  UNL     1      20.066  19.743   4.270  1.00  0.00    -0.045 SA
HETATM    5  C7  UNL     1      22.787  20.353   3.816  1.00  0.00     0.083 A 
HETATM    6  N2  UNL     1      23.057  20.696   2.552  1.00  0.00    -0.352 N 
ATOM      7  H2  UNL     1      22.372  20.744   1.797  1.00  0.00     0.166 HD
HETATM    8  C8  UNL     1      24.365  20.969   2.429  1.00  0.00     0.051 A 
HETATM    9  C9  UNL     1      25.074  21.363   1.305  1.00  0.00    -0.034 A 
HETATM   10  C10 UNL     1      24.384  21.534   0.002  1.00  0.00     0.050 C 
HETATM   11  C11 UNL     1      26.417  21.583   1.446  1.00  0.00     0.016 A 
HETATM   12  C12 UNL     1      27.040  21.417   2.669  1.00  0.00    -0.054 A 
HETATM   13  C13 UNL     1      28.503  21.660   2.798  1.00  0.00     0.049 C 
HETATM   14  C14 UNL     1      26.336  21.020   3.812  1.00  0.00    -0.041 A 
HETATM   15  C15 UNL     1      27.104  20.890   5.071  1.00  0.00     0.050 C 
HETATM   16  C16 UNL     1      24.994  20.801   3.661  1.00  0.00     0.027 A 
HETATM   17  C17 UNL     1      23.991  20.410   4.540  1.00  0.00     0.078 A 
ENDROOT
BRANCH   1  18
HETATM   18  C4  UNL     1      24.530  19.943   6.989  1.00  0.00     0.131 C 
BRANCH  18  19
HETATM   19  C3  UNL     1      25.190  18.586   7.140  1.00  0.00     0.020 C 
BRANCH  19  20
HETATM   20  C2  UNL     1      26.273  18.588   8.185  1.00  0.00    -0.003 C 
HETATM   21  C1  UNL     1      27.638  18.227   7.673  1.00  0.00     0.005 C 
ENDBRANCH  19  20
ENDBRANCH  18  19
ENDBRANCH   1  18
BRANCH   2  22
HETATM   22  O1  UNL     1      21.714  19.409   7.030  1.00  0.00    -0.345 OA
ATOM     23  H1  UNL     1      21.546  18.513   7.295  1.00  0.00     0.219 HD
ENDBRANCH   2  22
TORSDOF 4
ENDMDL
