MODEL 1
REMARK VINA RESULT: -6.866888587      0.000      0.000
REMARK  6 active torsions:
REMARK  status: ('A' for Active; 'I' for Inactive)
REMARK    1  A    between atoms: C2_2  and  C3_3 
REMARK    2  A    between atoms: C7_7  and  O1_8 
REMARK    3  A    between atoms: C8_10  and  O2_11 
REMARK    4  A    between atoms: C9_13  and  C10_14 
REMARK    5  A    between atoms: C10_14  and  C11_15 
REMARK    6  A    between atoms: C15_19  and  O3_20 
ROOT
HETATM    1  C3  UNL     1      23.099  19.840   7.162  1.00  0.00     0.005 A 
HETATM    2  C4  UNL     1      22.185  20.241   6.162  1.00  0.00    -0.035 A 
HETATM    3  C5  UNL     1      20.732  20.454   6.218  1.00  0.00     0.050 C 
HETATM    4  C6  UNL     1      22.929  20.420   5.016  1.00  0.00     0.023 A 
HETATM    5  C7  UNL     1      22.566  20.810   3.723  1.00  0.00     0.111 C 
HETATM    6  C8  UNL     1      23.459  20.925   2.646  1.00  0.00     0.109 C 
HETATM    7  C9  UNL     1      24.857  20.789   2.656  1.00  0.00     0.017 C 
HETATM    8  C15 UNL     1      25.733  20.338   3.626  1.00  0.00     0.110 C 
HETATM    9  C16 UNL     1      25.459  20.034   4.974  1.00  0.00     0.123 A 
HETATM   10  O4  UNL     1      25.686  19.679   6.215  1.00  0.00    -0.305 OA
HETATM   11  C17 UNL     1      24.399  19.770   6.647  1.00  0.00     0.101 A 
HETATM   12  C18 UNL     1      24.176  20.133   5.373  1.00  0.00     0.049 A 
ENDROOT
BRANCH   7  13
HETATM   13  C10 UNL     1      25.493  21.209   1.352  1.00  0.00     0.072 C 
BRANCH  13  14
HETATM   14  C11 UNL     1      25.784  22.643   1.298  1.00  0.00    -0.020 C 
HETATM   15  C12 UNL     1      25.564  23.344   0.212  1.00  0.00    -0.091 C 
HETATM   16  C13 UNL     1      25.883  24.805   0.220  1.00  0.00     0.042 C 
HETATM   17  C14 UNL     1      24.999  22.777  -1.036  1.00  0.00     0.042 C 
ENDBRANCH  13  14
ENDBRANCH   7  13
BRANCH   6  18
HETATM   18  O2  UNL     1      22.881  21.205   1.425  1.00  0.00    -0.357 OA
ATOM     19  H2  UNL     1      23.444  21.644   0.799  1.00  0.00     0.217 HD
ENDBRANCH   6  18
BRANCH   8  20
HETATM   20  O3  UNL     1      27.038  20.140   3.307  1.00  0.00    -0.357 OA
ATOM     21  H3  UNL     1      27.651  19.880   3.984  1.00  0.00     0.217 HD
ENDBRANCH   8  20
BRANCH   5  22
HETATM   22  O1  UNL     1      21.248  21.070   3.613  1.00  0.00    -0.357 OA
ATOM     23  H1  UNL     1      20.996  21.306   2.728  1.00  0.00     0.217 HD
ENDBRANCH   5  22
BRANCH   1  24
HETATM   24  C2  UNL     1      22.778  19.536   8.535  1.00  0.00     0.004 C 
HETATM   25  C1  UNL     1      22.239  20.401   9.356  1.00  0.00     0.012 C 
ENDBRANCH   1  24
TORSDOF 6
ENDMDL
MODEL 2
REMARK VINA RESULT: -6.808787520      0.960      1.119
REMARK  6 active torsions:
REMARK  status: ('A' for Active; 'I' for Inactive)
REMARK    1  A    between atoms: C2_2  and  C3_3 
REMARK    2  A    between atoms: C7_7  and  O1_8 
REMARK    3  A    between atoms: C8_10  and  O2_11 
REMARK    4  A    between atoms: C9_13  and  C10_14 
REMARK    5  A    between atoms: C10_14  and  C11_15 
REMARK    6  A    between atoms: C15_19  and  O3_20 
ROOT
HETATM    1  C3  UNL     1      23.923  19.829   6.510  1.00  0.00     0.005 A 
HETATM    2  C4  UNL     1      22.892  20.355   5.698  1.00  0.00    -0.035 A 
HETATM    3  C5  UNL     1      21.478  20.620   5.994  1.00  0.00     0.050 C 
HETATM    4  C6  UNL     1      23.464  20.606   4.470  1.00  0.00     0.023 A 
HETATM    5  C7  UNL     1      22.933  21.124   3.285  1.00  0.00     0.111 C 
HETATM    6  C8  UNL     1      23.660  21.299   2.097  1.00  0.00     0.109 C 
HETATM    7  C9  UNL     1      25.035  21.107   1.880  1.00  0.00     0.017 C 
HETATM    8  C15 UNL     1      26.021  20.537   2.663  1.00  0.00     0.110 C 
HETATM    9  C16 UNL     1      25.935  20.124   4.009  1.00  0.00     0.123 A 
HETATM   10  O4  UNL     1      26.327  19.651   5.166  1.00  0.00    -0.305 OA
HETATM   11  C17 UNL     1      25.125  19.754   5.797  1.00  0.00     0.101 A 
HETATM   12  C18 UNL     1      24.734  20.238   4.606  1.00  0.00     0.049 A 
ENDROOT
BRANCH   7  13
HETATM   13  C10 UNL     1      25.489  21.617   0.534  1.00  0.00     0.072 C 
BRANCH  13  14
HETATM   14  C11 UNL     1      25.915  23.018   0.571  1.00  0.00    -0.020 C 
HETATM   15  C12 UNL     1      25.594  23.854  -0.387  1.00  0.00    -0.091 C 
HETATM   16  C13 UNL     1      26.061  25.272  -0.292  1.00  0.00     0.042 C 
HETATM   17  C14 UNL     1      24.776  23.484  -1.567  1.00  0.00     0.042 C 
ENDBRANCH  13  14
ENDBRANCH   7  13
BRANCH   6  18
HETATM   18  O2  UNL     1      22.921  21.711   1.006  1.00  0.00    -0.357 OA
ATOM     19  H2  UNL     1      21.979  21.673   1.115  1.00  0.00     0.217 HD
ENDBRANCH   6  18
BRANCH   8  20
HETATM   20  O3  UNL     1      27.251  20.317   2.133  1.00  0.00    -0.357 OA
ATOM     21  H3  UNL     1      27.325  19.986   1.245  1.00  0.00     0.217 HD
ENDBRANCH   8  20
BRANCH   5  22
HETATM   22  O1  UNL     1      21.629  21.446   3.401  1.00  0.00    -0.357 OA
ATOM     23  H1  UNL     1      21.500  22.307   3.782  1.00  0.00     0.217 HD
ENDBRANCH   5  22
BRANCH   1  24
HETATM   24  C2  UNL     1      23.795  19.416   7.886  1.00  0.00     0.004 C 
HETATM   25  C1  UNL     1      24.376  18.349   8.372  1.00  0.00     0.012 C 
ENDBRANCH   1  24
TORSDOF 6
ENDMDL
MODEL 3
REMARK VINA RESULT: -6.775720630      2.026      4.012
REMARK  6 active torsions:
REMARK  status: ('A' for Active; 'I' for Inactive)
REMARK    1  A    between atoms: C2_2  and  C3_3 
REMARK    2  A    between atoms: C7_7  and  O1_8 
REMARK    3  A    between atoms: C8_10  and  O2_11 
REMARK    4  A    between atoms: C9_13  and  C10_14 
REMARK    5  A    between atoms: C10_14  and  C11_15 
REMARK    6  A    between atoms: C15_19  and  O3_20 
ROOT
HETATM    1  C3  UNL     1      20.920  19.605   5.169  1.00  0.00     0.005 A 
HETATM    2  C4  UNL     1      21.979  19.830   6.077  1.00  0.00    -0.035 A 
HETATM    3  C5  UNL     1      22.008  19.794   7.546  1.00  0.00     0.050 C 
HETATM    4  C6  UNL     1      23.086  20.116   5.310  1.00  0.00     0.023 A 
HETATM    5  C7  UNL     1      24.406  20.421   5.657  1.00  0.00     0.111 C 
HETATM    6  C8  UNL     1      25.424  20.713   4.737  1.00  0.00     0.109 C 
HETATM    7  C9  UNL     1      25.373  20.658   3.333  1.00  0.00     0.017 C 
HETATM    8  C15 UNL     1      24.318  20.495   2.455  1.00  0.00     0.110 C 
HETATM    9  C16 UNL     1      22.979  20.167   2.753  1.00  0.00     0.123 A 
HETATM   10  O4  UNL     1      21.720  19.873   2.541  1.00  0.00    -0.305 OA
HETATM   11  C17 UNL     1      21.362  19.749   3.848  1.00  0.00     0.101 A 
HETATM   12  C18 UNL     1      22.655  20.051   4.054  1.00  0.00     0.049 A 
ENDROOT
BRANCH   7  13
HETATM   13  C10 UNL     1      26.730  20.819   2.694  1.00  0.00     0.072 C 
BRANCH  13  14
HETATM   14  C11 UNL     1      27.399  19.540   2.448  1.00  0.00    -0.020 C 
HETATM   15  C12 UNL     1      28.685  19.478   2.200  1.00  0.00    -0.091 C 
HETATM   16  C13 UNL     1      29.309  18.141   1.956  1.00  0.00     0.042 C 
HETATM   17  C14 UNL     1      29.575  20.663   2.158  1.00  0.00     0.042 C 
ENDBRANCH  13  14
ENDBRANCH   7  13
BRANCH   6  18
HETATM   18  O2  UNL     1      26.627  21.106   5.288  1.00  0.00    -0.357 OA
ATOM     19  H2  UNL     1      26.966  20.540   5.971  1.00  0.00     0.217 HD
ENDBRANCH   6  18
BRANCH   8  20
HETATM   20  O3  UNL     1      24.526  20.659   1.123  1.00  0.00    -0.357 OA
ATOM     21  H3  UNL     1      25.104  21.350   0.822  1.00  0.00     0.217 HD
ENDBRANCH   8  20
BRANCH   5  22
HETATM   22  O1  UNL     1      24.605  20.404   6.990  1.00  0.00    -0.357 OA
ATOM     23  H1  UNL     1      25.470  20.088   7.225  1.00  0.00     0.217 HD
ENDBRANCH   5  22
BRANCH   1  24
HETATM   24  C2  UNL     1      19.560  19.272   5.513  1.00  0.00     0.004 C 
HETATM   25  C1  UNL     1      18.801  18.499   4.779  1.00  0.00     0.012 C 
ENDBRANCH   1  24
TORSDOF 6
ENDMDL
MODEL 4
REMARK VINA RESULT: -6.466710165      0.970      2.905
REMARK  6 active torsions:
REMARK  status: ('A' for Active; 'I' for Inactive)
REMARK    1  A    between atoms: C2_2  and  C3_3 
REMARK    2  A    between atoms: C7_7  and  O1_8 
REMARK    3  A    between atoms: C8_10  and  O2_11 
REMARK    4  A    between atoms: C9_13  and  C10_14 
REMARK    5  A    between atoms: C10_14  and  C11_15 
REMARK    6  A    between atoms: C15_19  and  O3_20 
ROOT
HETATM    1  C3  UNL     1      22.591  20.134   6.198  1.00  0.00     0.005 A 
HETATM    2  C4  UNL     1      23.989  19.936   6.130  1.00  0.00    -0.035 A 
HETATM    3  C5  UNL     1      24.935  19.420   7.129  1.00  0.00     0.050 C 
HETATM    4  C6  UNL     1      24.370  20.337   4.869  1.00  0.00     0.023 A 
HETATM    5  C7  UNL     1      25.619  20.369   4.240  1.00  0.00     0.111 C 
HETATM    6  C8  UNL     1      25.842  20.834   2.935  1.00  0.00     0.109 C 
HETATM    7  C9  UNL     1      24.894  21.246   1.983  1.00  0.00     0.017 C 
HETATM    8  C15 UNL     1      23.537  21.492   2.080  1.00  0.00     0.110 C 
HETATM    9  C16 UNL     1      22.679  21.230   3.167  1.00  0.00     0.123 A 
HETATM   10  O4  UNL     1      21.563  21.157   3.850  1.00  0.00    -0.305 OA
HETATM   11  C17 UNL     1      22.106  20.652   4.992  1.00  0.00     0.101 A 
HETATM   12  C18 UNL     1      23.244  20.731   4.283  1.00  0.00     0.049 A 
ENDROOT
BRANCH   7  13
HETATM   13  C10 UNL     1      25.497  21.460   0.616  1.00  0.00     0.072 C 
BRANCH  13  14
HETATM   14  C11 UNL     1      25.872  22.854   0.372  1.00  0.00    -0.020 C 
HETATM   15  C12 UNL     1      25.499  23.481  -0.718  1.00  0.00    -0.091 C 
HETATM   16  C13 UNL     1      25.916  24.905  -0.909  1.00  0.00     0.042 C 
HETATM   17  C14 UNL     1      24.668  22.866  -1.780  1.00  0.00     0.042 C 
ENDBRANCH  13  14
ENDBRANCH   7  13
BRANCH   6  18
HETATM   18  O2  UNL     1      27.164  20.895   2.546  1.00  0.00    -0.357 OA
ATOM     19  H2  UNL     1      27.513  20.100   2.161  1.00  0.00     0.217 HD
ENDBRANCH   6  18
BRANCH   8  20
HETATM   20  O3  UNL     1      22.885  22.057   1.031  1.00  0.00    -0.357 OA
ATOM     21  H3  UNL     1      22.449  22.893   1.148  1.00  0.00     0.217 HD
ENDBRANCH   8  20
BRANCH   5  22
HETATM   22  O1  UNL     1      26.605  19.897   5.029  1.00  0.00    -0.357 OA
ATOM     23  H1  UNL     1      27.256  19.405   4.542  1.00  0.00     0.217 HD
ENDBRANCH   5  22
BRANCH   1  24
HETATM   24  C2  UNL     1      21.746  19.855   7.333  1.00  0.00     0.004 C 
HETATM   25  C1  UNL     1      21.657  20.643   8.374  1.00  0.00     0.012 C 
ENDBRANCH   1  24
TORSDOF 6
ENDMDL
MODEL 5
REMARK VINA RESULT: -6.259372963      1.410      6.991
REMARK  6 active torsions:
REMARK  status: ('A' for Active; 'I' for Inactive)
REMARK    1  A    between atoms: C2_2  and  C3_3 
REMARK    2  A    between atoms: C7_7  and  O1_8 
REMARK    3  A    between atoms: C8_10  and  O2_11 
REMARK    4  A    between atoms: C9_13  and  C10_14 
REMARK    5  A    between atoms: C10_14  and  C11_15 
REMARK    6  A    between atoms: C15_19  and  O3_20 
ROOT
HETATM    1  C3  UNL     1      24.197  20.852   2.473  1.00  0.00     0.005 A 
HETATM    2  C4  UNL     1      25.168  20.396   3.392  1.00  0.00    -0.035 A 
HETATM    3  C5  UNL     1      26.597  20.104   3.214  1.00  0.00     0.050 C 
HETATM    4  C6  UNL     1      24.514  20.249   4.596  1.00  0.00     0.023 A 
HETATM    5  C7  UNL     1      24.961  19.831   5.853  1.00  0.00     0.111 C 
HETATM    6  C8  UNL     1      24.146  19.716   6.990  1.00  0.00     0.109 C 
HETATM    7  C9  UNL     1      22.798  20.083   7.137  1.00  0.00     0.017 C 
HETATM    8  C15 UNL     1      21.843  20.472   6.216  1.00  0.00     0.110 C 
HETATM    9  C16 UNL     1      22.021  20.771   4.850  1.00  0.00     0.123 A 
HETATM   10  O4  UNL     1      21.711  21.147   3.634  1.00  0.00    -0.305 OA
HETATM   11  C17 UNL     1      22.951  20.990   3.096  1.00  0.00     0.101 A 
HETATM   12  C18 UNL     1      23.259  20.606   4.346  1.00  0.00     0.049 A 
ENDROOT
BRANCH   7  13
HETATM   13  C10 UNL     1      22.330  20.022   8.571  1.00  0.00     0.072 C 
BRANCH  13  14
HETATM   14  C11 UNL     1      22.555  21.274   9.296  1.00  0.00    -0.020 C 
HETATM   15  C12 UNL     1      22.185  21.414  10.546  1.00  0.00    -0.091 C 
HETATM   16  C13 UNL     1      22.442  22.718  11.232  1.00  0.00     0.042 C 
HETATM   17  C14 UNL     1      21.532  20.345  11.339  1.00  0.00     0.042 C 
ENDBRANCH  13  14
ENDBRANCH   7  13
BRANCH   6  18
HETATM   18  O2  UNL     1      24.755  19.170   8.102  1.00  0.00    -0.357 OA
ATOM     19  H2  UNL     1      24.566  19.605   8.925  1.00  0.00     0.217 HD
ENDBRANCH   6  18
BRANCH   8  20
HETATM   20  O3  UNL     1      20.550  20.601   6.609  1.00  0.00    -0.357 OA
ATOM     21  H3  UNL     1      20.113  21.439   6.512  1.00  0.00     0.217 HD
ENDBRANCH   8  20
BRANCH   5  22
HETATM   22  O1  UNL     1      26.278  19.545   5.863  1.00  0.00    -0.357 OA
ATOM     23  H1  UNL     1      26.460  18.680   6.212  1.00  0.00     0.217 HD
ENDBRANCH   5  22
BRANCH   1  24
HETATM   24  C2  UNL     1      24.418  21.146   1.078  1.00  0.00     0.004 C 
HETATM   25  C1  UNL     1      24.045  22.266   0.511  1.00  0.00     0.012 C 
ENDBRANCH   1  24
TORSDOF 6
ENDMDL
