MODEL 1
REMARK VINA RESULT: -6.152266418      0.000      0.000
REMARK  6 active torsions:
REMARK  status: ('A' for Active; 'I' for Inactive)
REMARK    1  A    between atoms: C3_3  and  C4_4 
REMARK    2  A    between atoms: C5_5  and  C6_6 
REMARK    3  A    between atoms: C9_9  and  S1_10 
REMARK    4  A    between atoms: C10_12  and  O1_13 
REMARK    5  A    between atoms: C11_15  and  C12_16 
REMARK    6  A    between atoms: C15_19  and  O2_20 
ROOT
HETATM    1  C6  UNL     1      24.177  20.801   3.775  1.00  0.00     0.005 A 
HETATM    2  C7  UNL     1      25.178  20.348   4.578  1.00  0.00    -0.029 A 
HETATM    3  C8  UNL     1      26.588  20.270   4.142  1.00  0.00     0.050 C 
HETATM    4  C9  UNL     1      24.931  19.817   5.870  1.00  0.00     0.053 A 
HETATM    5  C10 UNL     1      23.634  19.745   6.323  1.00  0.00     0.097 A 
HETATM    6  C11 UNL     1      22.588  20.176   5.574  1.00  0.00     0.034 A 
HETATM    7  C15 UNL     1      22.851  20.707   4.290  1.00  0.00     0.089 A 
ENDROOT
BRANCH   1   8
HETATM    8  C5  UNL     1      24.366  21.547   2.551  1.00  0.00     0.015 C 
HETATM    9  C4  UNL     1      24.468  21.187   1.301  1.00  0.00     0.001 C 
BRANCH   9  10
HETATM   10  C3  UNL     1      24.660  22.278   0.321  1.00  0.00    -0.004 C 
HETATM   11  C2  UNL     1      24.570  22.182  -0.981  1.00  0.00    -0.031 C 
HETATM   12  C1  UNL     1      24.809  23.433  -1.787  1.00  0.00     0.036 C 
ENDBRANCH   9  10
ENDBRANCH   1   8
BRANCH   7  13
HETATM   13  O2  UNL     1      21.822  21.137   3.512  1.00  0.00    -0.359 OA
ATOM     14  H2  UNL     1      20.936  20.898   3.760  1.00  0.00     0.217 HD
ENDBRANCH   7  13
BRANCH   4  15
HETATM   15  S1  UNL     1      26.192  19.192   6.916  1.00  0.00    -0.042 SA
HETATM   16  S2  UNL     1      26.758  20.922   7.999  1.00  0.00    -0.007 SA
ENDBRANCH   4  15
BRANCH   6  17
HETATM   17  C12 UNL     1      21.244  20.346   6.060  1.00  0.00    -0.072 C 
HETATM   18  C13 UNL     1      20.254  19.242   5.859  1.00  0.00     0.044 C 
HETATM   19  C14 UNL     1      20.984  21.198   7.232  1.00  0.00     0.044 C 
ENDBRANCH   6  17
BRANCH   5  20
HETATM   20  O1  UNL     1      23.423  19.209   7.577  1.00  0.00    -0.358 OA
ATOM     21  H1  UNL     1      22.947  19.737   8.207  1.00  0.00     0.217 HD
ENDBRANCH   5  20
TORSDOF 6
ENDMDL
MODEL 2
REMARK VINA RESULT: -6.002458079      1.612      1.886
REMARK  6 active torsions:
REMARK  status: ('A' for Active; 'I' for Inactive)
REMARK    1  A    between atoms: C3_3  and  C4_4 
REMARK    2  A    between atoms: C5_5  and  C6_6 
REMARK    3  A    between atoms: C9_9  and  S1_10 
REMARK    4  A    between atoms: C10_12  and  O1_13 
REMARK    5  A    between atoms: C11_15  and  C12_16 
REMARK    6  A    between atoms: C15_19  and  O2_20 
ROOT
HETATM    1  C6  UNL     1      23.585  21.252   3.304  1.00  0.00     0.005 A 
HETATM    2  C7  UNL     1      24.823  20.872   3.721  1.00  0.00    -0.029 A 
HETATM    3  C8  UNL     1      26.042  21.065   2.907  1.00  0.00     0.050 C 
HETATM    4  C9  UNL     1      25.030  20.166   4.934  1.00  0.00     0.053 A 
HETATM    5  C10 UNL     1      23.941  19.842   5.709  1.00  0.00     0.097 A 
HETATM    6  C11 UNL     1      22.679  20.187   5.352  1.00  0.00     0.034 A 
HETATM    7  C15 UNL     1      22.489  20.895   4.143  1.00  0.00     0.089 A 
ENDROOT
BRANCH   1   8
HETATM    8  C5  UNL     1      23.318  22.151   2.204  1.00  0.00     0.015 C 
HETATM    9  C4  UNL     1      23.341  23.451   2.097  1.00  0.00     0.001 C 
BRANCH   9  10
HETATM   10  C3  UNL     1      22.997  24.004   0.769  1.00  0.00    -0.004 C 
HETATM   11  C2  UNL     1      21.931  24.701   0.466  1.00  0.00    -0.031 C 
HETATM   12  C1  UNL     1      21.786  25.161  -0.962  1.00  0.00     0.036 C 
ENDBRANCH   9  10
ENDBRANCH   1   8
BRANCH   7  13
HETATM   13  O2  UNL     1      21.234  21.245   3.754  1.00  0.00    -0.359 OA
ATOM     14  H2  UNL     1      20.510  20.680   3.997  1.00  0.00     0.217 HD
ENDBRANCH   7  13
BRANCH   4  15
HETATM   15  S1  UNL     1      26.607  19.631   5.484  1.00  0.00    -0.042 SA
HETATM   16  S2  UNL     1      27.236  21.269   6.669  1.00  0.00    -0.007 SA
ENDBRANCH   4  15
BRANCH   6  17
HETATM   17  C12 UNL     1      21.527  20.089   6.209  1.00  0.00    -0.072 C 
HETATM   18  C13 UNL     1      21.187  21.240   7.103  1.00  0.00     0.044 C 
HETATM   19  C14 UNL     1      20.376  19.261   5.811  1.00  0.00     0.044 C 
ENDBRANCH   6  17
BRANCH   5  20
HETATM   20  O1  UNL     1      24.172  19.141   6.875  1.00  0.00    -0.358 OA
ATOM     21  H1  UNL     1      24.295  18.202   6.807  1.00  0.00     0.217 HD
ENDBRANCH   5  20
TORSDOF 6
ENDMDL
MODEL 3
REMARK VINA RESULT: -5.830732131      2.671      5.985
REMARK  6 active torsions:
REMARK  status: ('A' for Active; 'I' for Inactive)
REMARK    1  A    between atoms: C3_3  and  C4_4 
REMARK    2  A    between atoms: C5_5  and  C6_6 
REMARK    3  A    between atoms: C9_9  and  S1_10 
REMARK    4  A    between atoms: C10_12  and  O1_13 
REMARK    5  A    between atoms: C11_15  and  C12_16 
REMARK    6  A    between atoms: C15_19  and  O2_20 
ROOT
HETATM    1  C6  UNL     1      23.779  21.492   2.993  1.00  0.00     0.005 A 
HETATM    2  C7  UNL     1      25.043  20.985   2.994  1.00  0.00    -0.029 A 
HETATM    3  C8  UNL     1      25.497  19.955   3.952  1.00  0.00     0.050 C 
HETATM    4  C9  UNL     1      26.058  21.481   2.136  1.00  0.00     0.053 A 
HETATM    5  C10 UNL     1      25.760  22.518   1.283  1.00  0.00     0.097 A 
HETATM    6  C11 UNL     1      24.523  23.072   1.232  1.00  0.00     0.034 A 
HETATM    7  C15 UNL     1      23.520  22.564   2.090  1.00  0.00     0.089 A 
ENDROOT
BRANCH   1   8
HETATM    8  C5  UNL     1      22.647  20.903   3.673  1.00  0.00     0.015 C 
HETATM    9  C4  UNL     1      22.209  20.987   4.899  1.00  0.00     0.001 C 
BRANCH   9  10
HETATM   10  C3  UNL     1      20.987  20.214   5.209  1.00  0.00    -0.004 C 
HETATM   11  C2  UNL     1      20.346  19.409   4.400  1.00  0.00    -0.031 C 
HETATM   12  C1  UNL     1      19.113  18.724   4.934  1.00  0.00     0.036 C 
ENDBRANCH   9  10
ENDBRANCH   1   8
BRANCH   7  13
HETATM   13  O2  UNL     1      22.273  23.106   2.069  1.00  0.00    -0.359 OA
ATOM     14  H2  UNL     1      22.115  23.856   1.509  1.00  0.00     0.217 HD
ENDBRANCH   7  13
BRANCH   4  15
HETATM   15  S1  UNL     1      27.704  20.876   2.136  1.00  0.00    -0.042 SA
HETATM   16  S2  UNL     1      28.645  22.167   3.526  1.00  0.00    -0.007 SA
ENDBRANCH   4  15
BRANCH   6  17
HETATM   17  C12 UNL     1      24.075  23.991   0.220  1.00  0.00    -0.072 C 
HETATM   18  C13 UNL     1      24.395  25.446   0.366  1.00  0.00     0.044 C 
HETATM   19  C14 UNL     1      23.908  23.536  -1.171  1.00  0.00     0.044 C 
ENDBRANCH   6  17
BRANCH   5  20
HETATM   20  O1  UNL     1      26.772  22.990   0.472  1.00  0.00    -0.358 OA
ATOM     21  H1  UNL     1      27.641  23.060   0.849  1.00  0.00     0.217 HD
ENDBRANCH   5  20
TORSDOF 6
ENDMDL
MODEL 4
REMARK VINA RESULT: -5.812300616      2.499      5.924
REMARK  6 active torsions:
REMARK  status: ('A' for Active; 'I' for Inactive)
REMARK    1  A    between atoms: C3_3  and  C4_4 
REMARK    2  A    between atoms: C5_5  and  C6_6 
REMARK    3  A    between atoms: C9_9  and  S1_10 
REMARK    4  A    between atoms: C10_12  and  O1_13 
REMARK    5  A    between atoms: C11_15  and  C12_16 
REMARK    6  A    between atoms: C15_19  and  O2_20 
ROOT
HETATM    1  C6  UNL     1      24.055  21.177   3.233  1.00  0.00     0.005 A 
HETATM    2  C7  UNL     1      25.308  20.759   3.560  1.00  0.00    -0.029 A 
HETATM    3  C8  UNL     1      25.606  19.990   4.787  1.00  0.00     0.050 C 
HETATM    4  C9  UNL     1      26.450  21.116   2.797  1.00  0.00     0.053 A 
HETATM    5  C10 UNL     1      26.287  21.924   1.695  1.00  0.00     0.097 A 
HETATM    6  C11 UNL     1      25.068  22.379   1.314  1.00  0.00     0.034 A 
HETATM    7  C15 UNL     1      23.939  22.010   2.082  1.00  0.00     0.089 A 
ENDROOT
BRANCH   1   8
HETATM    8  C5  UNL     1      22.833  20.684   3.826  1.00  0.00     0.015 C 
HETATM    9  C4  UNL     1      22.193  20.991   4.921  1.00  0.00     0.001 C 
BRANCH   9  10
HETATM   10  C3  UNL     1      20.946  20.239   5.181  1.00  0.00    -0.004 C 
HETATM   11  C2  UNL     1      20.382  19.366   4.387  1.00  0.00    -0.031 C 
HETATM   12  C1  UNL     1      19.104  18.721   4.861  1.00  0.00     0.036 C 
ENDBRANCH   9  10
ENDBRANCH   1   8
BRANCH   7  13
HETATM   13  O2  UNL     1      22.705  22.460   1.730  1.00  0.00    -0.359 OA
ATOM     14  H2  UNL     1      22.481  22.493   0.807  1.00  0.00     0.217 HD
ENDBRANCH   7  13
BRANCH   4  15
HETATM   15  S1  UNL     1      28.081  20.624   3.210  1.00  0.00    -0.042 SA
HETATM   16  S2  UNL     1      28.206  18.715   2.301  1.00  0.00    -0.007 SA
ENDBRANCH   4  15
BRANCH   6  17
HETATM   17  C12 UNL     1      24.788  23.028   0.060  1.00  0.00    -0.072 C 
HETATM   18  C13 UNL     1      25.139  24.473  -0.104  1.00  0.00     0.044 C 
HETATM   19  C14 UNL     1      24.786  22.251  -1.191  1.00  0.00     0.044 C 
ENDBRANCH   6  17
BRANCH   5  20
HETATM   20  O1  UNL     1      27.417  22.267   0.982  1.00  0.00    -0.358 OA
ATOM     21  H1  UNL     1      27.373  22.212   0.035  1.00  0.00     0.217 HD
ENDBRANCH   5  20
TORSDOF 6
ENDMDL
MODEL 5
REMARK VINA RESULT: -5.464467619      1.987      5.374
REMARK  6 active torsions:
REMARK  status: ('A' for Active; 'I' for Inactive)
REMARK    1  A    between atoms: C3_3  and  C4_4 
REMARK    2  A    between atoms: C5_5  and  C6_6 
REMARK    3  A    between atoms: C9_9  and  S1_10 
REMARK    4  A    between atoms: C10_12  and  O1_13 
REMARK    5  A    between atoms: C11_15  and  C12_16 
REMARK    6  A    between atoms: C15_19  and  O2_20 
ROOT
HETATM    1  C6  UNL     1      22.009  20.267   4.714  1.00  0.00     0.005 A 
HETATM    2  C7  UNL     1      22.544  20.131   5.959  1.00  0.00    -0.029 A 
HETATM    3  C8  UNL     1      21.722  19.949   7.173  1.00  0.00     0.050 C 
HETATM    4  C9  UNL     1      23.936  20.254   6.202  1.00  0.00     0.053 A 
HETATM    5  C10 UNL     1      24.774  20.534   5.148  1.00  0.00     0.097 A 
HETATM    6  C11 UNL     1      24.308  20.685   3.883  1.00  0.00     0.034 A 
HETATM    7  C15 UNL     1      22.919  20.554   3.655  1.00  0.00     0.089 A 
ENDROOT
BRANCH   1   8
HETATM    8  C5  UNL     1      20.647  19.944   4.355  1.00  0.00     0.015 C 
HETATM    9  C4  UNL     1      20.039  18.816   4.108  1.00  0.00     0.001 C 
BRANCH   9  10
HETATM   10  C3  UNL     1      18.603  18.909   3.768  1.00  0.00    -0.004 C 
HETATM   11  C2  UNL     1      17.599  18.511   4.506  1.00  0.00    -0.031 C 
HETATM   12  C1  UNL     1      16.210  18.705   3.952  1.00  0.00     0.036 C 
ENDBRANCH   9  10
ENDBRANCH   1   8
BRANCH   7  13
HETATM   13  O2  UNL     1      22.422  20.711   2.399  1.00  0.00    -0.359 OA
ATOM     14  H2  UNL     1      22.322  19.940   1.852  1.00  0.00     0.217 HD
ENDBRANCH   7  13
BRANCH   4  15
HETATM   15  S1  UNL     1      24.654  20.120   7.796  1.00  0.00    -0.042 SA
HETATM   16  S2  UNL     1      25.478  18.171   7.742  1.00  0.00    -0.007 SA
ENDBRANCH   4  15
BRANCH   6  17
HETATM   17  C12 UNL     1      25.133  20.749   2.705  1.00  0.00    -0.072 C 
HETATM   18  C13 UNL     1      25.313  22.064   2.014  1.00  0.00     0.044 C 
HETATM   19  C14 UNL     1      26.254  19.808   2.535  1.00  0.00     0.044 C 
ENDBRANCH   6  17
BRANCH   5  20
HETATM   20  O1  UNL     1      26.121  20.664   5.418  1.00  0.00    -0.358 OA
ATOM     21  H1  UNL     1      26.502  21.532   5.350  1.00  0.00     0.217 HD
ENDBRANCH   5  20
TORSDOF 6
ENDMDL
