MODEL 1
REMARK VINA RESULT: -7.905370091      0.000      0.000
REMARK  6 active torsions:
REMARK  status: ('A' for Active; 'I' for Inactive)
REMARK    1  A    between atoms: C2_2  and  O1_3 
REMARK    2  A    between atoms: C2_2  and  C3_5 
REMARK    3  A    between atoms: C3_5  and  O2_7 
REMARK    4  A    between atoms: C3_5  and  C5_9 
REMARK    5  A    between atoms: C5_9  and  O3_10 
REMARK    6  A    between atoms: C5_9  and  C6_12 
ROOT
HETATM    1  C6  UNL     1     -22.019  19.985  18.833  1.00  0.00     0.140 C 
HETATM    2  C7  UNL     1     -20.683  19.874  18.131  1.00  0.00     0.195 C 
HETATM    3  O4  UNL     1     -20.908  19.252  16.882  1.00  0.00    -0.387 OA
HETATM    4  C8  UNL     1     -19.828  19.596  16.074  1.00  0.00     0.195 C 
HETATM    5  C9  UNL     1     -19.820  18.857  14.767  1.00  0.00     0.258 C 
HETATM    6  N1  UNL     1     -18.576  18.131  14.548  1.00  0.00    -0.073 N 
ATOM      7  H11 UNL     1     -17.812  18.766  14.314  1.00  0.00     0.277 HD
ATOM      8  H12 UNL     1     -18.607  17.592  13.683  1.00  0.00     0.277 HD
HETATM    9  C10 UNL     1     -18.237  17.292  15.683  1.00  0.00     0.234 C 
HETATM   10  C11 UNL     1     -17.923  15.878  15.270  1.00  0.00     0.047 C 
HETATM   11  C12 UNL     1     -18.819  14.935  16.059  1.00  0.00     0.124 C 
HETATM   12  N2  UNL     1     -18.775  13.603  15.495  1.00  0.00    -0.360 N 
ATOM     13  H2  UNL     1     -18.420  13.506  14.543  1.00  0.00     0.162 HD
HETATM   14  C13 UNL     1     -19.184  12.431  16.156  1.00  0.00     0.229 C 
HETATM   15  O5  UNL     1     -19.735  11.467  15.538  1.00  0.00    -0.273 OA
HETATM   16  C14 UNL     1     -18.983  12.284  17.613  1.00  0.00     0.211 C 
HETATM   17  S1  UNL     1     -20.597  12.147  18.381  1.00  0.00     0.023 S 
HETATM   18  O6  UNL     1     -21.257  10.636  18.057  1.00  0.00    -0.258 OA
HETATM   19  C15 UNL     1     -20.480  12.443  20.129  1.00  0.00     0.109 C 
HETATM   20  C16 UNL     1     -20.133  13.899  20.334  1.00  0.00     0.013 C 
HETATM   21  C17 UNL     1     -21.346  14.775  20.401  1.00  0.00     0.001 C 
HETATM   22  C18 UNL     1     -21.690  15.347  19.052  1.00  0.00     0.009 C 
HETATM   23  C19 UNL     1     -21.288  16.819  18.956  1.00  0.00     0.103 C 
HETATM   24  C20 UNL     1     -22.378  17.533  18.246  1.00  0.00     0.218 C 
HETATM   25  O7  UNL     1     -22.944  16.883  17.311  1.00  0.00    -0.274 OA
HETATM   26  N3  UNL     1     -22.826  18.839  18.514  1.00  0.00    -0.352 N 
ATOM     27  H3  UNL     1     -23.834  18.989  18.479  1.00  0.00     0.163 HD
ENDROOT
BRANCH   1  28
HETATM   28  C5  UNL     1     -21.840  20.261  20.287  1.00  0.00     0.179 C 
BRANCH  28  29
HETATM   29  C3  UNL     1     -23.137  20.411  21.029  1.00  0.00     0.107 C 
HETATM   30  C4  UNL     1     -23.693  19.121  21.527  1.00  0.00     0.051 C 
BRANCH  29  31
HETATM   31  C2  UNL     1     -23.054  21.379  22.194  1.00  0.00     0.150 C 
HETATM   32  C1  UNL     1     -23.898  20.962  23.372  1.00  0.00     0.042 C 
BRANCH  31  33
HETATM   33  O1  UNL     1     -23.602  22.590  21.707  1.00  0.00    -0.393 OA
ATOM     34  H1  UNL     1     -23.269  22.707  20.825  1.00  0.00     0.210 HD
ENDBRANCH  31  33
ENDBRANCH  29  31
BRANCH  29  35
HETATM   35  O2  UNL     1     -24.077  20.988  20.145  1.00  0.00    -0.385 OA
ATOM     36  H2  UNL     1     -24.809  20.382  20.138  1.00  0.00     0.210 HD
ENDBRANCH  29  35
ENDBRANCH  28  29
BRANCH  28  37
HETATM   37  O3  UNL     1     -21.136  21.475  20.382  1.00  0.00    -0.390 OA
ATOM     38  H3  UNL     1     -20.207  21.282  20.351  1.00  0.00     0.210 HD
ENDBRANCH  28  37
ENDBRANCH   1  28
TORSDOF 6
ENDMDL
MODEL 2
REMARK VINA RESULT: -7.894063032      5.686      8.356
REMARK  6 active torsions:
REMARK  status: ('A' for Active; 'I' for Inactive)
REMARK    1  A    between atoms: C2_2  and  O1_3 
REMARK    2  A    between atoms: C2_2  and  C3_5 
REMARK    3  A    between atoms: C3_5  and  O2_7 
REMARK    4  A    between atoms: C3_5  and  C5_9 
REMARK    5  A    between atoms: C5_9  and  O3_10 
REMARK    6  A    between atoms: C5_9  and  C6_12 
ROOT
HETATM    1  C6  UNL     1     -18.826  12.370  14.375  1.00  0.00     0.140 C 
HETATM    2  C7  UNL     1     -18.129  13.708  14.488  1.00  0.00     0.195 C 
HETATM    3  O4  UNL     1     -16.876  13.485  15.102  1.00  0.00    -0.387 OA
HETATM    4  C8  UNL     1     -16.073  14.569  14.758  1.00  0.00     0.195 C 
HETATM    5  C9  UNL     1     -14.763  14.579  15.490  1.00  0.00     0.258 C 
HETATM    6  N1  UNL     1     -14.545  15.822  16.219  1.00  0.00    -0.073 N 
ATOM      7  H11 UNL     1     -14.317  16.589  15.587  1.00  0.00     0.277 HD
ATOM      8  H12 UNL     1     -13.677  15.792  16.755  1.00  0.00     0.277 HD
HETATM    9  C10 UNL     1     -15.677  16.154  17.066  1.00  0.00     0.234 C 
HETATM   10  C11 UNL     1     -15.258  16.464  18.479  1.00  0.00     0.047 C 
HETATM   11  C12 UNL     1     -16.039  15.562  19.422  1.00  0.00     0.124 C 
HETATM   12  N2  UNL     1     -15.468  15.603  20.752  1.00  0.00    -0.360 N 
ATOM     13  H2  UNL     1     -14.518  15.961  20.845  1.00  0.00     0.162 HD
HETATM   14  C13 UNL     1     -16.122  15.188  21.925  1.00  0.00     0.229 C 
HETATM   15  O5  UNL     1     -15.498  14.636  22.885  1.00  0.00    -0.273 OA
HETATM   16  C14 UNL     1     -17.579  15.383  22.080  1.00  0.00     0.211 C 
HETATM   17  S1  UNL     1     -18.341  13.765  22.216  1.00  0.00     0.023 S 
HETATM   18  O6  UNL     1     -18.007  13.102  23.722  1.00  0.00    -0.258 OA
HETATM   19  C15 UNL     1     -20.090  13.877  21.929  1.00  0.00     0.109 C 
HETATM   20  C16 UNL     1     -20.304  14.229  20.475  1.00  0.00     0.013 C 
HETATM   21  C17 UNL     1     -20.371  13.019  19.595  1.00  0.00     0.001 C 
HETATM   22  C18 UNL     1     -19.023  12.681  19.015  1.00  0.00     0.009 C 
HETATM   23  C19 UNL     1     -18.936  13.088  17.544  1.00  0.00     0.103 C 
HETATM   24  C20 UNL     1     -18.226  12.004  16.823  1.00  0.00     0.218 C 
HETATM   25  O7  UNL     1     -17.286  11.440  17.467  1.00  0.00    -0.274 OA
HETATM   26  N3  UNL     1     -18.499  11.559  15.517  1.00  0.00    -0.352 N 
ATOM     27  H3  UNL     1     -18.461  10.552  15.363  1.00  0.00     0.163 HD
ENDROOT
BRANCH   1  28
HETATM   28  C5  UNL     1     -20.282  12.544  14.107  1.00  0.00     0.179 C 
BRANCH  28  29
HETATM   29  C3  UNL     1     -21.020  11.245  13.953  1.00  0.00     0.107 C 
HETATM   30  C4  UNL     1     -21.540  10.698  15.238  1.00  0.00     0.051 C 
BRANCH  29  31
HETATM   31  C2  UNL     1     -22.167  11.318  12.964  1.00  0.00     0.150 C 
HETATM   32  C1  UNL     1     -23.348  10.469  13.361  1.00  0.00     0.042 C 
BRANCH  31  33
HETATM   33  O1  UNL     1     -21.655  10.771  11.763  1.00  0.00    -0.393 OA
ATOM     34  H1  UNL     1     -20.959  10.172  12.009  1.00  0.00     0.210 HD
ENDBRANCH  31  33
ENDBRANCH  29  31
BRANCH  29  35
HETATM   35  O2  UNL     1     -20.124  10.302  13.400  1.00  0.00    -0.385 OA
ATOM     36  H2  UNL     1     -19.573  10.805  12.812  1.00  0.00     0.210 HD
ENDBRANCH  29  35
ENDBRANCH  28  29
BRANCH  28  37
HETATM   37  O3  UNL     1     -20.386  13.254  12.897  1.00  0.00    -0.390 OA
ATOM     38  H3  UNL     1     -21.255  13.636  12.851  1.00  0.00     0.210 HD
ENDBRANCH  28  37
ENDBRANCH   1  28
TORSDOF 6
ENDMDL
MODEL 3
REMARK VINA RESULT: -7.852363446      5.693      8.346
REMARK  6 active torsions:
REMARK  status: ('A' for Active; 'I' for Inactive)
REMARK    1  A    between atoms: C2_2  and  O1_3 
REMARK    2  A    between atoms: C2_2  and  C3_5 
REMARK    3  A    between atoms: C3_5  and  O2_7 
REMARK    4  A    between atoms: C3_5  and  C5_9 
REMARK    5  A    between atoms: C5_9  and  O3_10 
REMARK    6  A    between atoms: C5_9  and  C6_12 
ROOT
HETATM    1  C6  UNL     1     -14.302  15.570  21.966  1.00  0.00     0.140 C 
HETATM    2  C7  UNL     1     -14.424  16.248  20.619  1.00  0.00     0.195 C 
HETATM    3  O4  UNL     1     -15.049  17.498  20.826  1.00  0.00    -0.387 OA
HETATM    4  C8  UNL     1     -14.716  18.289  19.730  1.00  0.00     0.195 C 
HETATM    5  C9  UNL     1     -15.459  19.592  19.703  1.00  0.00     0.258 C 
HETATM    6  N1  UNL     1     -16.194  19.786  18.460  1.00  0.00    -0.073 N 
ATOM      7  H11 UNL     1     -15.565  20.010  17.689  1.00  0.00     0.277 HD
ATOM      8  H12 UNL     1     -16.736  20.650  18.480  1.00  0.00     0.277 HD
HETATM    9  C10 UNL     1     -17.031  18.642  18.147  1.00  0.00     0.234 C 
HETATM   10  C11 UNL     1     -18.448  19.045  17.834  1.00  0.00     0.047 C 
HETATM   11  C12 UNL     1     -19.382  18.269  18.750  1.00  0.00     0.124 C 
HETATM   12  N2  UNL     1     -20.717  18.827  18.705  1.00  0.00    -0.360 N 
ATOM     13  H2  UNL     1     -20.820  19.771  18.334  1.00  0.00     0.162 HD
HETATM   14  C13 UNL     1     -21.883  18.168  19.133  1.00  0.00     0.229 C 
HETATM   15  O5  UNL     1     -22.847  18.792  19.679  1.00  0.00    -0.273 OA
HETATM   16  C14 UNL     1     -22.026  16.708  18.959  1.00  0.00     0.211 C 
HETATM   17  S1  UNL     1     -22.151  15.967  20.587  1.00  0.00     0.023 S 
HETATM   18  O6  UNL     1     -23.658  16.297  21.251  1.00  0.00    -0.258 OA
HETATM   19  C15 UNL     1     -21.848  14.219  20.499  1.00  0.00     0.109 C 
HETATM   20  C16 UNL     1     -20.393  14.013  20.146  1.00  0.00     0.013 C 
HETATM   21  C17 UNL     1     -19.510  13.971  21.354  1.00  0.00     0.001 C 
HETATM   22  C18 UNL     1     -18.941  15.328  21.671  1.00  0.00     0.009 C 
HETATM   23  C19 UNL     1     -17.472  15.423  21.259  1.00  0.00     0.103 C 
HETATM   24  C20 UNL     1     -16.754  16.154  22.331  1.00  0.00     0.218 C 
HETATM   25  O7  UNL     1     -17.404  17.096  22.884  1.00  0.00    -0.274 OA
HETATM   26  N3  UNL     1     -15.444  15.899  22.776  1.00  0.00    -0.352 N 
ATOM     27  H3  UNL     1     -15.288  15.952  23.782  1.00  0.00     0.163 HD
ENDROOT
BRANCH   1  28
HETATM   28  C5  UNL     1     -14.022  14.115  21.812  1.00  0.00     0.179 C 
BRANCH  28  29
HETATM   29  C3  UNL     1     -13.914  13.385  23.121  1.00  0.00     0.107 C 
HETATM   30  C4  UNL     1     -15.224  12.915  23.652  1.00  0.00     0.051 C 
BRANCH  29  31
HETATM   31  C2  UNL     1     -12.963  12.205  23.074  1.00  0.00     0.150 C 
HETATM   32  C1  UNL     1     -13.414  11.047  23.930  1.00  0.00     0.042 C 
BRANCH  31  33
HETATM   33  O1  UNL     1     -11.755  12.682  23.636  1.00  0.00    -0.393 OA
ATOM     34  H1  UNL     1     -11.056  12.410  23.053  1.00  0.00     0.210 HD
ENDBRANCH  31  33
ENDBRANCH  29  31
BRANCH  29  35
HETATM   35  O2  UNL     1     -13.345  14.272  24.064  1.00  0.00    -0.385 OA
ATOM     36  H2  UNL     1     -13.653  13.960  24.907  1.00  0.00     0.210 HD
ENDBRANCH  29  35
ENDBRANCH  28  29
BRANCH  28  37
HETATM   37  O3  UNL     1     -12.785  14.011  21.149  1.00  0.00    -0.390 OA
ATOM     38  H3  UNL     1     -12.115  13.830  21.797  1.00  0.00     0.210 HD
ENDBRANCH  28  37
ENDBRANCH   1  28
TORSDOF 6
ENDMDL
MODEL 4
REMARK VINA RESULT: -7.648712172      5.545      8.541
REMARK  6 active torsions:
REMARK  status: ('A' for Active; 'I' for Inactive)
REMARK    1  A    between atoms: C2_2  and  O1_3 
REMARK    2  A    between atoms: C2_2  and  C3_5 
REMARK    3  A    between atoms: C3_5  and  O2_7 
REMARK    4  A    between atoms: C3_5  and  C5_9 
REMARK    5  A    between atoms: C5_9  and  O3_10 
REMARK    6  A    between atoms: C5_9  and  C6_12 
ROOT
HETATM    1  C6  UNL     1     -19.055  12.220  14.289  1.00  0.00     0.140 C 
HETATM    2  C7  UNL     1     -18.376  13.570  14.360  1.00  0.00     0.195 C 
HETATM    3  O4  UNL     1     -17.116  13.382  14.971  1.00  0.00    -0.387 OA
HETATM    4  C8  UNL     1     -16.331  14.467  14.592  1.00  0.00     0.195 C 
HETATM    5  C9  UNL     1     -15.017  14.516  15.314  1.00  0.00     0.258 C 
HETATM    6  N1  UNL     1     -14.812  15.781  16.008  1.00  0.00    -0.073 N 
ATOM      7  H11 UNL     1     -14.598  16.533  15.353  1.00  0.00     0.277 HD
ATOM      8  H12 UNL     1     -13.939  15.777  16.537  1.00  0.00     0.277 HD
HETATM    9  C10 UNL     1     -15.942  16.120  16.853  1.00  0.00     0.234 C 
HETATM   10  C11 UNL     1     -15.517  16.474  18.254  1.00  0.00     0.047 C 
HETATM   11  C12 UNL     1     -16.279  15.587  19.227  1.00  0.00     0.124 C 
HETATM   12  N2  UNL     1     -15.700  15.672  20.550  1.00  0.00    -0.360 N 
ATOM     13  H2  UNL     1     -14.754  16.046  20.627  1.00  0.00     0.162 HD
HETATM   14  C13 UNL     1     -16.340  15.279  21.740  1.00  0.00     0.229 C 
HETATM   15  O5  UNL     1     -15.701  14.763  22.709  1.00  0.00    -0.273 OA
HETATM   16  C14 UNL     1     -17.798  15.458  21.900  1.00  0.00     0.211 C 
HETATM   17  S1  UNL     1     -18.536  13.835  22.085  1.00  0.00     0.023 S 
HETATM   18  O6  UNL     1     -18.182  13.217  23.606  1.00  0.00    -0.258 OA
HETATM   19  C15 UNL     1     -20.288  13.914  21.808  1.00  0.00     0.109 C 
HETATM   20  C16 UNL     1     -20.518  14.223  20.346  1.00  0.00     0.013 C 
HETATM   21  C17 UNL     1     -20.573  12.989  19.500  1.00  0.00     0.001 C 
HETATM   22  C18 UNL     1     -19.225  12.655  18.920  1.00  0.00     0.009 C 
HETATM   23  C19 UNL     1     -19.154  13.023  17.438  1.00  0.00     0.103 C 
HETATM   24  C20 UNL     1     -18.433  11.929  16.741  1.00  0.00     0.218 C 
HETATM   25  O7  UNL     1     -17.481  11.396  17.393  1.00  0.00    -0.274 OA
HETATM   26  N3  UNL     1     -18.709  11.445  15.450  1.00  0.00    -0.352 N 
ATOM     27  H3  UNL     1     -18.657  10.435  15.323  1.00  0.00     0.163 HD
ENDROOT
BRANCH   1  28
HETATM   28  C5  UNL     1     -20.515  12.366  14.027  1.00  0.00     0.179 C 
BRANCH  28  29
HETATM   29  C3  UNL     1     -21.186  11.076  13.650  1.00  0.00     0.107 C 
HETATM   30  C4  UNL     1     -22.477  11.263  12.930  1.00  0.00     0.051 C 
BRANCH  29  31
HETATM   31  C2  UNL     1     -20.305  10.159  12.824  1.00  0.00     0.150 C 
HETATM   32  C1  UNL     1     -20.744  10.053  11.385  1.00  0.00     0.042 C 
BRANCH  31  33
HETATM   33  O1  UNL     1     -20.469   8.875  13.397  1.00  0.00    -0.393 OA
ATOM     34  H1  UNL     1     -19.812   8.793  14.078  1.00  0.00     0.210 HD
ENDBRANCH  31  33
ENDBRANCH  29  31
BRANCH  29  35
HETATM   35  O2  UNL     1     -21.442  10.358  14.840  1.00  0.00    -0.385 OA
ATOM     36  H2  UNL     1     -22.155   9.769  14.620  1.00  0.00     0.210 HD
ENDBRANCH  29  35
ENDBRANCH  28  29
BRANCH  28  37
HETATM   37  O3  UNL     1     -20.643  13.259  12.947  1.00  0.00    -0.390 OA
ATOM     38  H3  UNL     1     -19.781  13.601  12.742  1.00  0.00     0.210 HD
ENDBRANCH  28  37
ENDBRANCH   1  28
TORSDOF 6
ENDMDL
MODEL 5
REMARK VINA RESULT: -7.628560910      7.810     11.426
REMARK  6 active torsions:
REMARK  status: ('A' for Active; 'I' for Inactive)
REMARK    1  A    between atoms: C2_2  and  O1_3 
REMARK    2  A    between atoms: C2_2  and  C3_5 
REMARK    3  A    between atoms: C3_5  and  O2_7 
REMARK    4  A    between atoms: C3_5  and  C5_9 
REMARK    5  A    between atoms: C5_9  and  O3_10 
REMARK    6  A    between atoms: C5_9  and  C6_12 
ROOT
HETATM    1  C6  UNL     1     -13.662  16.637  15.719  1.00  0.00     0.140 C 
HETATM    2  C7  UNL     1     -14.828  17.554  15.420  1.00  0.00     0.195 C 
HETATM    3  O4  UNL     1     -14.951  17.642  14.015  1.00  0.00    -0.387 OA
HETATM    4  C8  UNL     1     -16.258  18.048  13.761  1.00  0.00     0.195 C 
HETATM    5  C9  UNL     1     -16.496  18.373  12.316  1.00  0.00     0.258 C 
HETATM    6  N1  UNL     1     -17.014  19.722  12.129  1.00  0.00    -0.073 N 
ATOM      7  H11 UNL     1     -17.991  19.788  12.413  1.00  0.00     0.277 HD
ATOM      8  H12 UNL     1     -17.119  19.947  11.139  1.00  0.00     0.277 HD
HETATM    9  C10 UNL     1     -16.197  20.710  12.811  1.00  0.00     0.234 C 
HETATM   10  C11 UNL     1     -15.811  21.850  11.906  1.00  0.00     0.047 C 
HETATM   11  C12 UNL     1     -14.296  21.987  11.923  1.00  0.00     0.124 C 
HETATM   12  N2  UNL     1     -13.853  22.857  10.856  1.00  0.00    -0.360 N 
ATOM     13  H2  UNL     1     -14.506  23.035  10.092  1.00  0.00     0.162 HD
HETATM   14  C13 UNL     1     -12.593  23.477  10.788  1.00  0.00     0.229 C 
HETATM   15  O5  UNL     1     -11.994  23.666   9.684  1.00  0.00    -0.273 OA
HETATM   16  C14 UNL     1     -11.916  23.935  12.020  1.00  0.00     0.211 C 
HETATM   17  S1  UNL     1     -10.394  23.004  12.192  1.00  0.00     0.023 S 
HETATM   18  O6  UNL     1      -9.268  23.536  11.066  1.00  0.00    -0.258 OA
HETATM   19  C15 UNL     1      -9.768  23.137  13.849  1.00  0.00     0.109 C 
HETATM   20  C16 UNL     1     -10.717  22.404  14.769  1.00  0.00     0.013 C 
HETATM   21  C17 UNL     1     -10.381  20.951  14.901  1.00  0.00     0.001 C 
HETATM   22  C18 UNL     1     -11.149  20.114  13.914  1.00  0.00     0.009 C 
HETATM   23  C19 UNL     1     -12.293  19.363  14.597  1.00  0.00     0.103 C 
HETATM   24  C20 UNL     1     -12.333  17.995  14.025  1.00  0.00     0.218 C 
HETATM   25  O7  UNL     1     -12.059  17.909  12.786  1.00  0.00    -0.274 OA
HETATM   26  N3  UNL     1     -12.642  16.813  14.722  1.00  0.00    -0.352 N 
ATOM     27  H3  UNL     1     -12.081  15.993  14.495  1.00  0.00     0.163 HD
ENDROOT
BRANCH   1  28
HETATM   28  C5  UNL     1     -13.212  16.785  17.132  1.00  0.00     0.179 C 
BRANCH  28  29
HETATM   29  C3  UNL     1     -13.584  15.619  18.003  1.00  0.00     0.107 C 
HETATM   30  C4  UNL     1     -12.419  14.986  18.683  1.00  0.00     0.051 C 
BRANCH  29  31
HETATM   31  C2  UNL     1     -14.625  15.961  19.052  1.00  0.00     0.150 C 
HETATM   32  C1  UNL     1     -14.656  14.980  20.197  1.00  0.00     0.042 C 
BRANCH  31  33
HETATM   33  O1  UNL     1     -15.869  15.852  18.387  1.00  0.00    -0.393 OA
ATOM     34  H1  UNL     1     -16.128  16.733  18.145  1.00  0.00     0.210 HD
ENDBRANCH  31  33
ENDBRANCH  29  31
BRANCH  29  35
HETATM   35  O2  UNL     1     -14.202  14.647  17.183  1.00  0.00    -0.385 OA
ATOM     36  H2  UNL     1     -13.578  13.932  17.142  1.00  0.00     0.210 HD
ENDBRANCH  29  35
ENDBRANCH  28  29
BRANCH  28  37
HETATM   37  O3  UNL     1     -13.848  17.933  17.639  1.00  0.00    -0.390 OA
ATOM     38  H3  UNL     1     -14.584  17.653  18.172  1.00  0.00     0.210 HD
ENDBRANCH  28  37
ENDBRANCH   1  28
TORSDOF 6
ENDMDL
