MODEL 1
REMARK VINA RESULT: -6.401723713      0.000      0.000
REMARK  8 active torsions:
REMARK  status: ('A' for Active; 'I' for Inactive)
REMARK    1  A    between atoms: C1_2  and  N2_4 
REMARK       I    between atoms: N2_4  and  C2_6 
REMARK       I    between atoms: C2_6  and  N7_25 
REMARK    2  A    between atoms: N3_7  and  C3_9 
REMARK    3  A    between atoms: C3_9  and  C4_14 
REMARK    4  A    between atoms: N4_10  and  O1_12 
REMARK    5  A    between atoms: N5_18  and  S2_19 
REMARK    6  A    between atoms: S2_19  and  N6_20 
REMARK    7  A    between atoms: N7_25  and  C8_27 
REMARK    8  A    between atoms: N8_30  and  O4_31 
ROOT
HETATM    1  N2  UNL     1     -10.923  19.812  14.178  1.00  0.00    -0.169 N 
ATOM      2  H2  UNL     1     -10.089  19.597  13.632  1.00  0.00     0.186 HD
HETATM    3  C2  UNL     1     -11.983  18.866  14.229  1.00  0.00     0.681 C 
HETATM    4  N3  UNL     1     -12.603  18.626  13.123  1.00  0.00    -0.177 N 
ATOM      5  H3  UNL     1     -13.369  17.954  13.125  1.00  0.00     0.185 HD
HETATM    6  N7  UNL     1     -12.307  18.243  15.455  1.00  0.00    -0.217 N 
ATOM      7  H7  UNL     1     -12.026  18.721  16.311  1.00  0.00     0.178 HD
ENDROOT
BRANCH   1   8
HETATM    8  C1  UNL     1     -11.001  21.048  14.871  1.00  0.00     0.199 C 
HETATM    9  N1  UNL     1     -12.163  21.423  15.573  1.00  0.00    -0.069 NA
HETATM   10  S1  UNL     1      -9.739  22.103  14.889  1.00  0.00    -0.044 SA
ENDBRANCH   1   8
BRANCH   4  11
HETATM   11  C3  UNL     1     -12.259  19.261  11.919  1.00  0.00     0.136 C 
HETATM   12  N4  UNL     1     -11.387  18.670  11.140  1.00  0.00    -0.255 N 
ATOM     13  H4  UNL     1     -10.996  17.777  11.441  1.00  0.00     0.195 HD
BRANCH  12  14
HETATM   14  O1  UNL     1     -10.978  19.181   9.958  1.00  0.00    -0.288 OA
ATOM     15  H1  UNL     1     -11.087  18.732   9.128  1.00  0.00     0.244 HD
ENDBRANCH  12  14
BRANCH  11  16
HETATM   16  C4  UNL     1     -12.791  20.539  11.446  1.00  0.00     0.145 C 
HETATM   17  C5  UNL     1     -14.248  20.682  11.905  1.00  0.00     0.030 C 
HETATM   18  C6  UNL     1     -14.423  22.197  11.733  1.00  0.00     0.018 C 
HETATM   19  C7  UNL     1     -13.101  22.689  12.292  1.00  0.00     0.110 C 
HETATM   20  N5  UNL     1     -12.117  21.691  11.984  1.00  0.00    -0.182 NA
BRANCH  20  21
HETATM   21  S2  UNL     1     -10.984  22.346  10.887  1.00  0.00     0.297 S 
HETATM   22  O2  UNL     1      -9.757  21.446  10.915  1.00  0.00    -0.189 OA
HETATM   23  O3  UNL     1     -11.592  22.325   9.513  1.00  0.00    -0.189 OA
BRANCH  21  24
HETATM   24  N6  UNL     1     -10.487  23.935  11.332  1.00  0.00    -0.316 N 
ATOM     25  H62 UNL     1     -11.146  24.688  11.530  1.00  0.00     0.170 HD
ATOM     26  H61 UNL     1      -9.472  24.026  11.371  1.00  0.00     0.170 HD
ENDBRANCH  21  24
ENDBRANCH  20  21
ENDBRANCH  11  16
ENDBRANCH   4  11
BRANCH   6  27
HETATM   27  C8  UNL     1     -12.991  17.004  15.595  1.00  0.00     0.152 C 
HETATM   28  C9  UNL     1     -12.627  16.199  16.791  1.00  0.00     0.047 C 
HETATM   29  C10 UNL     1     -13.820  16.377  17.707  1.00  0.00     0.126 C 
HETATM   30  N8  UNL     1     -14.914  16.242  16.746  1.00  0.00    -0.162 NA
HETATM   31  C11 UNL     1     -14.469  17.153  15.687  1.00  0.00     0.159 C 
HETATM   32  C12 UNL     1     -14.924  18.529  16.078  1.00  0.00     0.059 C 
HETATM   33  O5  UNL     1     -15.111  16.743  14.526  1.00  0.00    -0.361 OA
HETATM   34  C13 UNL     1     -16.362  18.406  16.571  1.00  0.00     0.006 C 
HETATM   35  C14 UNL     1     -17.118  17.624  15.517  1.00  0.00     0.026 C 
HETATM   36  C15 UNL     1     -16.270  17.441  14.276  1.00  0.00     0.170 C 
BRANCH  30  37
HETATM   37  O4  UNL     1     -14.830  14.974  16.255  1.00  0.00    -0.310 OA
ATOM     38  H4  UNL     1     -15.147  14.404  16.946  1.00  0.00     0.237 HD
ENDBRANCH  30  37
ENDBRANCH   6  27
TORSDOF 8
ENDMDL
MODEL 2
REMARK VINA RESULT: -6.278795787      2.846      3.888
REMARK  8 active torsions:
REMARK  status: ('A' for Active; 'I' for Inactive)
REMARK    1  A    between atoms: C1_2  and  N2_4 
REMARK       I    between atoms: N2_4  and  C2_6 
REMARK       I    between atoms: C2_6  and  N7_25 
REMARK    2  A    between atoms: N3_7  and  C3_9 
REMARK    3  A    between atoms: C3_9  and  C4_14 
REMARK    4  A    between atoms: N4_10  and  O1_12 
REMARK    5  A    between atoms: N5_18  and  S2_19 
REMARK    6  A    between atoms: S2_19  and  N6_20 
REMARK    7  A    between atoms: N7_25  and  C8_27 
REMARK    8  A    between atoms: N8_30  and  O4_31 
ROOT
HETATM    1  N2  UNL     1     -13.832  19.179  13.958  1.00  0.00    -0.169 N 
ATOM      2  H2  UNL     1     -13.705  18.435  13.272  1.00  0.00     0.186 HD
HETATM    3  C2  UNL     1     -15.109  19.787  14.096  1.00  0.00     0.681 C 
HETATM    4  N3  UNL     1     -15.546  20.459  13.084  1.00  0.00    -0.177 N 
ATOM      5  H3  UNL     1     -16.458  20.909  13.150  1.00  0.00     0.185 HD
HETATM    6  N7  UNL     1     -15.830  19.637  15.302  1.00  0.00    -0.217 N 
ATOM      7  H7  UNL     1     -15.296  19.407  16.140  1.00  0.00     0.178 HD
ENDROOT
BRANCH   1   8
HETATM    8  C1  UNL     1     -12.729  19.585  14.754  1.00  0.00     0.199 C 
HETATM    9  N1  UNL     1     -12.795  20.733  15.568  1.00  0.00    -0.069 NA
HETATM   10  S1  UNL     1     -11.321  18.736  14.766  1.00  0.00    -0.044 SA
ENDBRANCH   1   8
BRANCH   4  11
HETATM   11  C3  UNL     1     -14.807  20.591  11.897  1.00  0.00     0.136 C 
HETATM   12  N4  UNL     1     -14.880  19.625  11.016  1.00  0.00    -0.255 N 
ATOM     13  H4  UNL     1     -15.469  18.819  11.230  1.00  0.00     0.195 HD
BRANCH  12  14
HETATM   14  O1  UNL     1     -14.218  19.638   9.839  1.00  0.00    -0.288 OA
ATOM     15  H1  UNL     1     -14.472  19.113   9.089  1.00  0.00     0.244 HD
ENDBRANCH  12  14
BRANCH  11  16
HETATM   16  C4  UNL     1     -13.950  21.725  11.547  1.00  0.00     0.145 C 
HETATM   17  C5  UNL     1     -14.573  23.017  12.093  1.00  0.00     0.030 C 
HETATM   18  C6  UNL     1     -13.344  23.935  12.041  1.00  0.00     0.018 C 
HETATM   19  C7  UNL     1     -12.277  22.991  12.563  1.00  0.00     0.110 C 
HETATM   20  N5  UNL     1     -12.637  21.671  12.131  1.00  0.00    -0.182 NA
BRANCH  20  21
HETATM   21  S2  UNL     1     -11.463  21.107  11.027  1.00  0.00     0.297 S 
HETATM   22  O2  UNL     1     -11.921  21.513   9.634  1.00  0.00    -0.189 OA
HETATM   23  O3  UNL     1     -10.157  21.779  11.344  1.00  0.00    -0.189 OA
BRANCH  21  24
HETATM   24  N6  UNL     1     -11.311  19.390  11.056  1.00  0.00    -0.316 N 
ATOM     25  H62 UNL     1     -12.041  18.773  11.411  1.00  0.00     0.170 HD
ATOM     26  H61 UNL     1     -10.416  19.075  10.680  1.00  0.00     0.170 HD
ENDBRANCH  21  24
ENDBRANCH  20  21
ENDBRANCH  11  16
ENDBRANCH   4  11
BRANCH   6  27
HETATM   27  C8  UNL     1     -17.237  19.778  15.444  1.00  0.00     0.152 C 
HETATM   28  C9  UNL     1     -18.039  18.556  15.171  1.00  0.00     0.047 C 
HETATM   29  C10 UNL     1     -18.459  18.099  16.552  1.00  0.00     0.126 C 
HETATM   30  N8  UNL     1     -18.824  19.380  17.155  1.00  0.00    -0.162 NA
HETATM   31  C11 UNL     1     -17.654  20.194  16.811  1.00  0.00     0.159 C 
HETATM   32  C12 UNL     1     -16.622  19.939  17.870  1.00  0.00     0.059 C 
HETATM   33  O5  UNL     1     -18.074  21.517  16.853  1.00  0.00    -0.361 OA
HETATM   34  C13 UNL     1     -17.338  19.973  19.217  1.00  0.00     0.006 C 
HETATM   35  C14 UNL     1     -18.159  21.247  19.241  1.00  0.00     0.026 C 
HETATM   36  C15 UNL     1     -17.815  22.126  18.058  1.00  0.00     0.170 C 
BRANCH  30  37
HETATM   37  O4  UNL     1     -19.876  19.852  16.429  1.00  0.00    -0.310 OA
ATOM     38  H4  UNL     1     -20.018  20.744  16.723  1.00  0.00     0.237 HD
ENDBRANCH  30  37
ENDBRANCH   6  27
TORSDOF 8
ENDMDL
MODEL 3
REMARK VINA RESULT: -6.205455582      3.517      4.594
REMARK  8 active torsions:
REMARK  status: ('A' for Active; 'I' for Inactive)
REMARK    1  A    between atoms: C1_2  and  N2_4 
REMARK       I    between atoms: N2_4  and  C2_6 
REMARK       I    between atoms: C2_6  and  N7_25 
REMARK    2  A    between atoms: N3_7  and  C3_9 
REMARK    3  A    between atoms: C3_9  and  C4_14 
REMARK    4  A    between atoms: N4_10  and  O1_12 
REMARK    5  A    between atoms: N5_18  and  S2_19 
REMARK    6  A    between atoms: S2_19  and  N6_20 
REMARK    7  A    between atoms: N7_25  and  C8_27 
REMARK    8  A    between atoms: N8_30  and  O4_31 
ROOT
HETATM    1  N2  UNL     1     -15.725  18.373  15.006  1.00  0.00    -0.169 N 
ATOM      2  H2  UNL     1     -15.687  19.108  15.711  1.00  0.00     0.186 HD
HETATM    3  C2  UNL     1     -14.643  17.456  14.898  1.00  0.00     0.681 C 
HETATM    4  N3  UNL     1     -13.506  17.940  14.529  1.00  0.00    -0.177 N 
ATOM      5  H3  UNL     1     -12.709  17.311  14.440  1.00  0.00     0.185 HD
HETATM    6  N7  UNL     1     -14.852  16.090  15.191  1.00  0.00    -0.217 N 
ATOM      7  H7  UNL     1     -15.807  15.739  15.130  1.00  0.00     0.178 HD
ENDROOT
BRANCH   1   8
HETATM    8  C1  UNL     1     -16.856  18.286  14.153  1.00  0.00     0.199 C 
HETATM    9  N1  UNL     1     -16.858  17.448  13.020  1.00  0.00    -0.069 NA
HETATM   10  S1  UNL     1     -18.219  19.159  14.444  1.00  0.00    -0.044 SA
ENDBRANCH   1   8
BRANCH   4  11
HETATM   11  C3  UNL     1     -13.327  19.304  14.245  1.00  0.00     0.136 C 
HETATM   12  N4  UNL     1     -13.144  20.123  15.251  1.00  0.00    -0.255 N 
ATOM     13  H4  UNL     1     -13.138  19.736  16.195  1.00  0.00     0.195 HD
BRANCH  12  14
HETATM   14  O1  UNL     1     -12.961  21.453  15.104  1.00  0.00    -0.288 OA
ATOM     15  H1  UNL     1     -12.697  22.027  15.814  1.00  0.00     0.244 HD
ENDBRANCH  12  14
BRANCH  11  16
HETATM   16  C4  UNL     1     -13.329  19.905  12.911  1.00  0.00     0.145 C 
HETATM   17  C5  UNL     1     -12.441  19.069  11.979  1.00  0.00     0.030 C 
HETATM   18  C6  UNL     1     -12.955  19.567  10.621  1.00  0.00     0.018 C 
HETATM   19  C7  UNL     1     -14.448  19.596  10.889  1.00  0.00     0.110 C 
HETATM   20  N5  UNL     1     -14.620  19.924  12.276  1.00  0.00    -0.182 NA
BRANCH  20  21
HETATM   21  S2  UNL     1     -15.377  21.449  12.399  1.00  0.00     0.297 S 
HETATM   22  O2  UNL     1     -16.782  21.303  11.835  1.00  0.00    -0.189 OA
HETATM   23  O3  UNL     1     -15.453  21.819  13.854  1.00  0.00    -0.189 OA
BRANCH  21  24
HETATM   24  N6  UNL     1     -14.560  22.659  11.484  1.00  0.00    -0.316 N 
ATOM     25  H62 UNL     1     -14.786  23.652  11.548  1.00  0.00     0.170 HD
ATOM     26  H61 UNL     1     -13.837  22.266  10.880  1.00  0.00     0.170 HD
ENDBRANCH  21  24
ENDBRANCH  20  21
ENDBRANCH  11  16
ENDBRANCH   4  11
BRANCH   6  27
HETATM   27  C8  UNL     1     -13.839  15.163  15.562  1.00  0.00     0.152 C 
HETATM   28  C9  UNL     1     -12.954  15.589  16.678  1.00  0.00     0.047 C 
HETATM   29  C10 UNL     1     -13.435  14.750  17.845  1.00  0.00     0.126 C 
HETATM   30  N8  UNL     1     -13.608  13.457  17.186  1.00  0.00    -0.162 NA
HETATM   31  C11 UNL     1     -14.377  13.846  16.001  1.00  0.00     0.159 C 
HETATM   32  C12 UNL     1     -15.820  13.879  16.412  1.00  0.00     0.059 C 
HETATM   33  O5  UNL     1     -14.165  12.851  15.055  1.00  0.00    -0.361 OA
HETATM   34  C13 UNL     1     -16.081  12.627  17.244  1.00  0.00     0.006 C 
HETATM   35  C14 UNL     1     -15.540  11.456  16.451  1.00  0.00     0.026 C 
HETATM   36  C15 UNL     1     -15.150  11.891  15.054  1.00  0.00     0.170 C 
BRANCH  30  37
HETATM   37  O4  UNL     1     -12.368  13.081  16.763  1.00  0.00    -0.310 OA
ATOM     38  H4  UNL     1     -12.362  13.212  15.821  1.00  0.00     0.237 HD
ENDBRANCH  30  37
ENDBRANCH   6  27
TORSDOF 8
ENDMDL
MODEL 4
REMARK VINA RESULT: -6.200216930      4.185      5.438
REMARK  8 active torsions:
REMARK  status: ('A' for Active; 'I' for Inactive)
REMARK    1  A    between atoms: C1_2  and  N2_4 
REMARK       I    between atoms: N2_4  and  C2_6 
REMARK       I    between atoms: C2_6  and  N7_25 
REMARK    2  A    between atoms: N3_7  and  C3_9 
REMARK    3  A    between atoms: C3_9  and  C4_14 
REMARK    4  A    between atoms: N4_10  and  O1_12 
REMARK    5  A    between atoms: N5_18  and  S2_19 
REMARK    6  A    between atoms: S2_19  and  N6_20 
REMARK    7  A    between atoms: N7_25  and  C8_27 
REMARK    8  A    between atoms: N8_30  and  O4_31 
ROOT
HETATM    1  N2  UNL     1     -15.972  19.334  15.695  1.00  0.00    -0.169 N 
ATOM      2  H2  UNL     1     -15.234  18.632  15.642  1.00  0.00     0.186 HD
HETATM    3  C2  UNL     1     -16.897  19.451  14.622  1.00  0.00     0.681 C 
HETATM    4  N3  UNL     1     -16.423  19.837  13.485  1.00  0.00    -0.177 N 
ATOM      5  H3  UNL     1     -17.059  19.934  12.694  1.00  0.00     0.185 HD
HETATM    6  N7  UNL     1     -18.261  19.149  14.836  1.00  0.00    -0.217 N 
ATOM      7  H7  UNL     1     -18.605  19.195  15.795  1.00  0.00     0.178 HD
ENDROOT
BRANCH   1   8
HETATM    8  C1  UNL     1     -16.055  20.171  16.838  1.00  0.00     0.199 C 
HETATM    9  N1  UNL     1     -16.897  21.300  16.860  1.00  0.00    -0.069 NA
HETATM   10  S1  UNL     1     -15.173  19.865  18.191  1.00  0.00    -0.044 SA
ENDBRANCH   1   8
BRANCH   4  11
HETATM   11  C3  UNL     1     -15.062  20.130  13.301  1.00  0.00     0.136 C 
HETATM   12  N4  UNL     1     -14.240  19.132  13.093  1.00  0.00    -0.255 N 
ATOM     13  H4  UNL     1     -14.624  18.186  13.074  1.00  0.00     0.195 HD
BRANCH  12  14
HETATM   14  O1  UNL     1     -12.912  19.288  12.902  1.00  0.00    -0.288 OA
ATOM     15  H1  UNL     1     -12.542  19.810  12.200  1.00  0.00     0.244 HD
ENDBRANCH  12  14
BRANCH  11  16
HETATM   16  C4  UNL     1     -14.467  21.467  13.321  1.00  0.00     0.145 C 
HETATM   17  C5  UNL     1     -15.310  22.409  12.451  1.00  0.00     0.030 C 
HETATM   18  C6  UNL     1     -14.816  23.761  12.984  1.00  0.00     0.018 C 
HETATM   19  C7  UNL     1     -14.780  23.470  14.472  1.00  0.00     0.110 C 
HETATM   20  N5  UNL     1     -14.446  22.082  14.621  1.00  0.00    -0.182 NA
BRANCH  20  21
HETATM   21  S2  UNL     1     -12.918  21.954  15.371  1.00  0.00     0.297 S 
HETATM   22  O2  UNL     1     -13.054  22.519  16.777  1.00  0.00    -0.189 OA
HETATM   23  O3  UNL     1     -12.553  20.498  15.447  1.00  0.00    -0.189 OA
BRANCH  21  24
HETATM   24  N6  UNL     1     -11.708  22.864  14.547  1.00  0.00    -0.316 N 
ATOM     25  H62 UNL     1     -11.361  23.761  14.886  1.00  0.00     0.170 HD
ATOM     26  H61 UNL     1     -11.390  22.403  13.695  1.00  0.00     0.170 HD
ENDBRANCH  21  24
ENDBRANCH  20  21
ENDBRANCH  11  16
ENDBRANCH   4  11
BRANCH   6  27
HETATM   27  C8  UNL     1     -19.193  18.786  13.825  1.00  0.00     0.152 C 
HETATM   28  C9  UNL     1     -18.777  17.671  12.935  1.00  0.00     0.047 C 
HETATM   29  C10 UNL     1     -19.620  16.508  13.415  1.00  0.00     0.126 C 
HETATM   30  N8  UNL     1     -20.910  17.173  13.594  1.00  0.00    -0.162 NA
HETATM   31  C11 UNL     1     -20.511  18.354  14.366  1.00  0.00     0.159 C 
HETATM   32  C12 UNL     1     -20.476  17.937  15.807  1.00  0.00     0.059 C 
HETATM   33  O5  UNL     1     -21.501  19.306  14.161  1.00  0.00    -0.361 OA
HETATM   34  C13 UNL     1     -21.731  17.111  16.070  1.00  0.00     0.006 C 
HETATM   35  C14 UNL     1     -22.900  17.913  15.535  1.00  0.00     0.026 C 
HETATM   36  C15 UNL     1     -22.458  19.309  15.149  1.00  0.00     0.170 C 
BRANCH  30  37
HETATM   37  O4  UNL     1     -21.286  17.603  12.357  1.00  0.00    -0.310 OA
ATOM     38  H4  UNL     1     -20.703  17.175  11.741  1.00  0.00     0.237 HD
ENDBRANCH  30  37
ENDBRANCH   6  27
TORSDOF 8
ENDMDL
MODEL 5
REMARK VINA RESULT: -6.194973569      4.209      5.561
REMARK  8 active torsions:
REMARK  status: ('A' for Active; 'I' for Inactive)
REMARK    1  A    between atoms: C1_2  and  N2_4 
REMARK       I    between atoms: N2_4  and  C2_6 
REMARK       I    between atoms: C2_6  and  N7_25 
REMARK    2  A    between atoms: N3_7  and  C3_9 
REMARK    3  A    between atoms: C3_9  and  C4_14 
REMARK    4  A    between atoms: N4_10  and  O1_12 
REMARK    5  A    between atoms: N5_18  and  S2_19 
REMARK    6  A    between atoms: S2_19  and  N6_20 
REMARK    7  A    between atoms: N7_25  and  C8_27 
REMARK    8  A    between atoms: N8_30  and  O4_31 
ROOT
HETATM    1  N2  UNL     1     -15.016  18.656  15.949  1.00  0.00    -0.169 N 
ATOM      2  H2  UNL     1     -15.714  18.703  15.208  1.00  0.00     0.186 HD
HETATM    3  C2  UNL     1     -14.910  19.730  16.874  1.00  0.00     0.681 C 
HETATM    4  N3  UNL     1     -14.530  20.869  16.401  1.00  0.00    -0.177 N 
ATOM      5  H3  UNL     1     -14.443  21.661  17.037  1.00  0.00     0.185 HD
HETATM    6  N7  UNL     1     -15.217  19.515  18.236  1.00  0.00    -0.217 N 
ATOM      7  H7  UNL     1     -15.166  18.556  18.581  1.00  0.00     0.178 HD
ENDROOT
BRANCH   1   8
HETATM    8  C1  UNL     1     -14.171  17.519  16.036  1.00  0.00     0.199 C 
HETATM    9  N1  UNL     1     -13.051  17.502  16.891  1.00  0.00    -0.069 NA
HETATM   10  S1  UNL     1     -14.456  16.167  15.145  1.00  0.00    -0.044 SA
ENDBRANCH   1   8
BRANCH   4  11
HETATM   11  C3  UNL     1     -14.232  21.055  15.041  1.00  0.00     0.136 C 
HETATM   12  N4  UNL     1     -15.228  21.256  14.215  1.00  0.00    -0.255 N 
ATOM     13  H4  UNL     1     -16.176  21.270  14.594  1.00  0.00     0.195 HD
BRANCH  12  14
HETATM   14  O1  UNL     1     -15.068  21.448  12.888  1.00  0.00    -0.288 OA
ATOM     15  H1  UNL     1     -14.720  20.786  12.301  1.00  0.00     0.244 HD
ENDBRANCH  12  14
BRANCH  11  16
HETATM   16  C4  UNL     1     -12.893  21.043  14.452  1.00  0.00     0.145 C 
HETATM   17  C5  UNL     1     -11.956  21.907  15.307  1.00  0.00     0.030 C 
HETATM   18  C6  UNL     1     -10.601  21.382  14.814  1.00  0.00     0.018 C 
HETATM   19  C7  UNL     1     -10.889  19.893  14.765  1.00  0.00     0.110 C 
HETATM   20  N5  UNL     1     -12.275  19.744  14.423  1.00  0.00    -0.182 NA
BRANCH  20  21
HETATM   21  S2  UNL     1     -12.395  19.007  12.888  1.00  0.00     0.297 S 
HETATM   22  O2  UNL     1     -11.821  17.603  13.014  1.00  0.00    -0.189 OA
HETATM   23  O3  UNL     1     -13.850  18.924  12.518  1.00  0.00    -0.189 OA
BRANCH  21  24
HETATM   24  N6  UNL     1     -11.487  19.846  11.688  1.00  0.00    -0.316 N 
ATOM     25  H62 UNL     1     -11.814  20.702  11.240  1.00  0.00     0.170 HD
ATOM     26  H61 UNL     1     -10.598  19.388  11.485  1.00  0.00     0.170 HD
ENDBRANCH  21  24
ENDBRANCH  20  21
ENDBRANCH  11  16
ENDBRANCH   4  11
BRANCH   6  27
HETATM   27  C8  UNL     1     -15.591  20.523  19.166  1.00  0.00     0.152 C 
HETATM   28  C9  UNL     1     -16.724  21.392  18.752  1.00  0.00     0.047 C 
HETATM   29  C10 UNL     1     -17.874  20.897  19.605  1.00  0.00     0.126 C 
HETATM   30  N8  UNL     1     -17.198  20.735  20.891  1.00  0.00    -0.162 NA
HETATM   31  C11 UNL     1     -16.007  19.982  20.489  1.00  0.00     0.159 C 
HETATM   32  C12 UNL     1     -16.399  18.533  20.463  1.00  0.00     0.059 C 
HETATM   33  O5  UNL     1     -15.053  20.207  21.472  1.00  0.00    -0.361 OA
HETATM   34  C13 UNL     1     -17.213  18.262  21.724  1.00  0.00     0.006 C 
HETATM   35  C14 UNL     1     -16.413  18.816  22.885  1.00  0.00     0.026 C 
HETATM   36  C15 UNL     1     -15.027  19.224  22.433  1.00  0.00     0.170 C 
BRANCH  30  37
HETATM   37  O4  UNL     1     -16.787  21.980  21.260  1.00  0.00    -0.310 OA
ATOM     38  H4  UNL     1     -16.668  21.949  22.202  1.00  0.00     0.237 HD
ENDBRANCH  30  37
ENDBRANCH   6  27
TORSDOF 8
ENDMDL
