MODEL 1
REMARK VINA RESULT: -8.340316623      0.000      0.000
REMARK  5 active torsions:
REMARK  status: ('A' for Active; 'I' for Inactive)
REMARK    1  A    between atoms: C2_3  and  C3_5 
REMARK    2  A    between atoms: C3_5  and  N2_6 
REMARK    3  A    between atoms: C3_5  and  C4_10 
REMARK    4  A    between atoms: C4_10  and  C5_11 
REMARK    5  A    between atoms: C5_11  and  C6_12 
REMARK       I    between atoms: C6_12  and  N3_14 
ROOT
HETATM    1  C1  UNL     1     -17.611   6.661  10.313  1.00  0.00     0.263 C 
HETATM    2  N1  UNL     1     -18.758   7.407  10.495  1.00  0.00    -0.419 NA
HETATM    3  C2  UNL     1     -19.878   8.136  10.672  1.00  0.00     0.316 C 
HETATM    4  O1  UNL     1     -20.503   8.829   9.824  1.00  0.00    -0.255 OA
ENDROOT
BRANCH   3   5
HETATM    5  C3  UNL     1     -20.518   8.163  12.057  1.00  0.00     0.289 C 
BRANCH   5   6
HETATM    6  N2  UNL     1     -19.905   7.164  12.892  1.00  0.00    -0.065 N 
ATOM      7  H23 UNL     1     -18.956   6.940  12.591  1.00  0.00     0.275 HD
ATOM      8  H22 UNL     1     -19.683   7.523  13.821  1.00  0.00     0.275 HD
ATOM      9  H21 UNL     1     -20.501   6.337  12.932  1.00  0.00     0.275 HD
ENDBRANCH   5   6
BRANCH   5  10
HETATM   10  C4  UNL     1     -20.729   9.498  12.608  1.00  0.00     0.053 C 
BRANCH  10  11
HETATM   11  C5  UNL     1     -19.540  10.352  12.904  1.00  0.00     0.105 C 
BRANCH  11  12
HETATM   12  C6  UNL     1     -19.797  11.001  14.219  1.00  0.00     0.220 C 
HETATM   13  O2  UNL     1     -20.951  10.917  14.755  1.00  0.00    -0.273 OA
HETATM   14  N3  UNL     1     -18.787  11.727  14.917  1.00  0.00    -0.349 N 
HETATM   15  C7  UNL     1     -19.097  12.341  16.189  1.00  0.00     0.153 C 
HETATM   16  C22 UNL     1     -17.476  11.831  14.368  1.00  0.00     0.152 C 
HETATM   17  C8  UNL     1     -19.496  11.316  17.251  1.00  0.00     0.252 C 
HETATM   18  N4  UNL     1     -20.622  11.864  18.006  1.00  0.00    -0.074 N 
HETATM   19  C9  UNL     1     -20.611  11.522  19.393  1.00  0.00     0.234 C 
ATOM     20  H42 UNL     1     -20.676  12.875  17.887  1.00  0.00     0.277 HD
ATOM     21  H41 UNL     1     -21.507  11.593  17.578  1.00  0.00     0.277 HD
HETATM   22  C10 UNL     1     -19.835  12.495  20.258  1.00  0.00     0.055 C 
HETATM   23  C11 UNL     1     -20.427  13.884  20.129  1.00  0.00     0.233 C 
HETATM   24  N5  UNL     1     -19.466  14.937  20.305  1.00  0.00    -0.075 N 
HETATM   25  C12 UNL     1     -18.272  14.432  20.908  1.00  0.00     0.232 C 
ATOM     26  H52 UNL     1     -19.272  15.423  19.429  1.00  0.00     0.277 HD
ATOM     27  H51 UNL     1     -19.854  15.720  20.831  1.00  0.00     0.277 HD
HETATM   28  C13 UNL     1     -17.530  15.501  21.695  1.00  0.00     0.029 C 
HETATM   29  C14 UNL     1     -16.225  14.937  22.197  1.00  0.00     0.029 C 
HETATM   30  C15 UNL     1     -15.090  15.802  21.682  1.00  0.00     0.232 C 
HETATM   31  N6  UNL     1     -14.770  15.491  20.299  1.00  0.00    -0.075 N 
HETATM   32  C16 UNL     1     -13.330  15.399  20.199  1.00  0.00     0.233 C 
ATOM     33  H62 UNL     1     -15.247  14.657  19.957  1.00  0.00     0.277 HD
ATOM     34  H61 UNL     1     -15.173  16.154  19.637  1.00  0.00     0.277 HD
HETATM   35  C17 UNL     1     -12.845  14.615  19.027  1.00  0.00     0.055 C 
HETATM   36  C18 UNL     1     -13.732  14.706  17.805  1.00  0.00     0.234 C 
HETATM   37  N7  UNL     1     -14.922  13.924  17.965  1.00  0.00    -0.073 N 
HETATM   38  C19 UNL     1     -15.102  13.080  16.776  1.00  0.00     0.258 C 
ATOM     39  H72 UNL     1     -14.917  13.382  18.830  1.00  0.00     0.277 HD
ATOM     40  H71 UNL     1     -15.741  14.499  18.162  1.00  0.00     0.277 HD
HETATM   41  C20 UNL     1     -15.359  13.932  15.556  1.00  0.00     0.195 C 
HETATM   42  O3  UNL     1     -16.690  13.975  15.195  1.00  0.00    -0.388 OA
HETATM   43  C21 UNL     1     -17.003  13.237  14.090  1.00  0.00     0.187 C 
ENDBRANCH  11  12
ENDBRANCH  10  11
ENDBRANCH   5  10
ENDBRANCH   3   5
TORSDOF 4
ENDMDL
MODEL 2
REMARK VINA RESULT: -8.324349339      1.036      1.090
REMARK  5 active torsions:
REMARK  status: ('A' for Active; 'I' for Inactive)
REMARK    1  A    between atoms: C2_3  and  C3_5 
REMARK    2  A    between atoms: C3_5  and  N2_6 
REMARK    3  A    between atoms: C3_5  and  C4_10 
REMARK    4  A    between atoms: C4_10  and  C5_11 
REMARK    5  A    between atoms: C5_11  and  C6_12 
REMARK       I    between atoms: C6_12  and  N3_14 
ROOT
HETATM    1  C1  UNL     1     -18.029   5.945  10.024  1.00  0.00     0.263 C 
HETATM    2  N1  UNL     1     -18.710   6.625  11.014  1.00  0.00    -0.419 NA
HETATM    3  C2  UNL     1     -19.374   7.289  11.980  1.00  0.00     0.316 C 
HETATM    4  O1  UNL     1     -19.804   6.847  13.080  1.00  0.00    -0.255 OA
ENDROOT
BRANCH   3   5
HETATM    5  C3  UNL     1     -19.672   8.771  11.773  1.00  0.00     0.289 C 
BRANCH   5   6
HETATM    6  N2  UNL     1     -20.550   8.934  10.643  1.00  0.00    -0.065 N 
ATOM      7  H23 UNL     1     -20.422   9.836  10.185  1.00  0.00     0.275 HD
ATOM      8  H22 UNL     1     -20.287   8.334   9.862  1.00  0.00     0.275 HD
ATOM      9  H21 UNL     1     -21.516   8.784  10.935  1.00  0.00     0.275 HD
ENDBRANCH   5   6
BRANCH   5  10
HETATM   10  C4  UNL     1     -19.965   9.513  12.995  1.00  0.00     0.053 C 
BRANCH  10  11
HETATM   11  C5  UNL     1     -19.772  10.994  13.002  1.00  0.00     0.105 C 
BRANCH  11  12
HETATM   12  C6  UNL     1     -19.998  11.447  14.403  1.00  0.00     0.220 C 
HETATM   13  O2  UNL     1     -21.117  11.224  14.971  1.00  0.00    -0.273 OA
HETATM   14  N3  UNL     1     -18.995  12.135  15.147  1.00  0.00    -0.349 N 
HETATM   15  C7  UNL     1     -19.273  12.556  16.503  1.00  0.00     0.153 C 
HETATM   16  C22 UNL     1     -17.721  12.390  14.563  1.00  0.00     0.152 C 
HETATM   17  C8  UNL     1     -19.562  11.378  17.434  1.00  0.00     0.252 C 
HETATM   18  N4  UNL     1     -20.676  11.752  18.303  1.00  0.00    -0.074 N 
HETATM   19  C9  UNL     1     -20.576  11.232  19.629  1.00  0.00     0.234 C 
ATOM     20  H42 UNL     1     -20.791  12.765  18.323  1.00  0.00     0.277 HD
ATOM     21  H41 UNL     1     -21.565  11.487  17.880  1.00  0.00     0.277 HD
HETATM   22  C10 UNL     1     -19.812  12.128  20.583  1.00  0.00     0.055 C 
HETATM   23  C11 UNL     1     -20.483  13.483  20.668  1.00  0.00     0.233 C 
HETATM   24  N5  UNL     1     -19.574  14.560  20.943  1.00  0.00    -0.075 N 
HETATM   25  C12 UNL     1     -18.325  14.053  21.421  1.00  0.00     0.232 C 
ATOM     26  H52 UNL     1     -19.451  15.168  20.133  1.00  0.00     0.277 HD
ATOM     27  H51 UNL     1     -19.977  15.242  21.586  1.00  0.00     0.277 HD
HETATM   28  C13 UNL     1     -17.604  15.051  22.312  1.00  0.00     0.029 C 
HETATM   29  C14 UNL     1     -16.246  14.507  22.678  1.00  0.00     0.029 C 
HETATM   30  C15 UNL     1     -15.187  15.498  22.235  1.00  0.00     0.232 C 
HETATM   31  N6  UNL     1     -14.921  15.393  20.810  1.00  0.00    -0.075 N 
HETATM   32  C16 UNL     1     -13.485  15.402  20.637  1.00  0.00     0.233 C 
ATOM     33  H62 UNL     1     -15.369  14.584  20.380  1.00  0.00     0.277 HD
ATOM     34  H61 UNL     1     -15.393  16.112  20.262  1.00  0.00     0.277 HD
HETATM   35  C17 UNL     1     -13.018  14.811  19.350  1.00  0.00     0.055 C 
HETATM   36  C18 UNL     1     -13.970  15.008  18.191  1.00  0.00     0.234 C 
HETATM   37  N7  UNL     1     -15.105  14.141  18.296  1.00  0.00    -0.073 N 
HETATM   38  C19 UNL     1     -15.300  13.452  17.012  1.00  0.00     0.258 C 
ATOM     39  H72 UNL     1     -15.027  13.491  19.078  1.00  0.00     0.277 HD
ATOM     40  H71 UNL     1     -15.943  14.634  18.602  1.00  0.00     0.277 HD
HETATM   41  C20 UNL     1     -15.664  14.440  15.931  1.00  0.00     0.195 C 
HETATM   42  O3  UNL     1     -17.012  14.450  15.636  1.00  0.00    -0.388 OA
HETATM   43  C21 UNL     1     -17.339  13.846  14.456  1.00  0.00     0.187 C 
ENDBRANCH  11  12
ENDBRANCH  10  11
ENDBRANCH   5  10
ENDBRANCH   3   5
TORSDOF 4
ENDMDL
MODEL 3
REMARK VINA RESULT: -8.161363105      4.911      7.979
REMARK  5 active torsions:
REMARK  status: ('A' for Active; 'I' for Inactive)
REMARK    1  A    between atoms: C2_3  and  C3_5 
REMARK    2  A    between atoms: C3_5  and  N2_6 
REMARK    3  A    between atoms: C3_5  and  C4_10 
REMARK    4  A    between atoms: C4_10  and  C5_11 
REMARK    5  A    between atoms: C5_11  and  C6_12 
REMARK       I    between atoms: C6_12  and  N3_14 
ROOT
HETATM    1  C1  UNL     1     -11.760   7.666  12.273  1.00  0.00     0.263 C 
HETATM    2  N1  UNL     1     -10.984   8.171  13.297  1.00  0.00    -0.419 NA
HETATM    3  C2  UNL     1     -10.226   8.663  14.297  1.00  0.00     0.316 C 
HETATM    4  O1  UNL     1      -8.974   8.599  14.434  1.00  0.00    -0.255 OA
ENDROOT
BRANCH   3   5
HETATM    5  C3  UNL     1     -10.917   9.404  15.437  1.00  0.00     0.289 C 
BRANCH   5   6
HETATM    6  N2  UNL     1     -10.021  10.388  15.987  1.00  0.00    -0.065 N 
ATOM      7  H23 UNL     1     -10.167  11.311  15.579  1.00  0.00     0.275 HD
ATOM      8  H22 UNL     1     -10.249  10.617  16.954  1.00  0.00     0.275 HD
ATOM      9  H21 UNL     1      -9.057  10.069  15.884  1.00  0.00     0.275 HD
ENDBRANCH   5   6
BRANCH   5  10
HETATM   10  C4  UNL     1     -12.297   9.792  15.167  1.00  0.00     0.053 C 
BRANCH  10  11
HETATM   11  C5  UNL     1     -13.188  10.135  16.316  1.00  0.00     0.105 C 
BRANCH  11  12
HETATM   12  C6  UNL     1     -13.300  11.620  16.342  1.00  0.00     0.220 C 
HETATM   13  O2  UNL     1     -12.289  12.329  16.659  1.00  0.00    -0.273 OA
HETATM   14  N3  UNL     1     -14.515  12.293  16.021  1.00  0.00    -0.349 N 
HETATM   15  C7  UNL     1     -14.566  13.738  16.068  1.00  0.00     0.153 C 
HETATM   16  C22 UNL     1     -15.667  11.546  15.641  1.00  0.00     0.152 C 
HETATM   17  C8  UNL     1     -13.608  14.390  15.072  1.00  0.00     0.252 C 
HETATM   18  N4  UNL     1     -12.975  15.530  15.733  1.00  0.00    -0.074 N 
HETATM   19  C9  UNL     1     -12.732  16.640  14.869  1.00  0.00     0.234 C 
ATOM     20  H42 UNL     1     -13.519  15.821  16.546  1.00  0.00     0.277 HD
ATOM     21  H41 UNL     1     -12.113  15.242  16.197  1.00  0.00     0.277 HD
HETATM   22  C10 UNL     1     -13.892  17.611  14.778  1.00  0.00     0.055 C 
HETATM   23  C11 UNL     1     -14.216  18.159  16.152  1.00  0.00     0.233 C 
HETATM   24  N5  UNL     1     -15.600  18.501  16.324  1.00  0.00    -0.075 N 
HETATM   25  C12 UNL     1     -16.259  18.580  15.058  1.00  0.00     0.232 C 
ATOM     26  H52 UNL     1     -16.073  17.857  16.959  1.00  0.00     0.277 HD
ATOM     27  H51 UNL     1     -15.714  19.359  16.864  1.00  0.00     0.277 HD
HETATM   28  C13 UNL     1     -17.449  19.524  15.088  1.00  0.00     0.029 C 
HETATM   29  C14 UNL     1     -18.169  19.465  13.764  1.00  0.00     0.029 C 
HETATM   30  C15 UNL     1     -19.615  19.077  14.012  1.00  0.00     0.232 C 
HETATM   31  N6  UNL     1     -19.751  17.645  14.228  1.00  0.00    -0.075 N 
HETATM   32  C16 UNL     1     -20.877  17.196  13.439  1.00  0.00     0.233 C 
ATOM     33  H62 UNL     1     -18.894  17.129  14.030  1.00  0.00     0.277 HD
ATOM     34  H61 UNL     1     -19.831  17.397  15.214  1.00  0.00     0.277 HD
HETATM   35  C17 UNL     1     -20.867  15.736  13.132  1.00  0.00     0.055 C 
HETATM   36  C18 UNL     1     -20.243  14.876  14.209  1.00  0.00     0.234 C 
HETATM   37  N7  UNL     1     -18.816  14.991  14.206  1.00  0.00    -0.073 N 
HETATM   38  C19 UNL     1     -18.228  13.644  14.217  1.00  0.00     0.258 C 
ATOM     39  H72 UNL     1     -18.473  15.558  13.431  1.00  0.00     0.277 HD
ATOM     40  H71 UNL     1     -18.471  15.571  14.971  1.00  0.00     0.277 HD
HETATM   41  C20 UNL     1     -18.559  12.933  15.508  1.00  0.00     0.195 C 
HETATM   42  O3  UNL     1     -17.512  12.927  16.407  1.00  0.00    -0.388 OA
HETATM   43  C21 UNL     1     -16.875  11.725  16.527  1.00  0.00     0.187 C 
ENDBRANCH  11  12
ENDBRANCH  10  11
ENDBRANCH   5  10
ENDBRANCH   3   5
TORSDOF 4
ENDMDL
MODEL 4
REMARK VINA RESULT: -8.130546314      7.411      8.541
REMARK  5 active torsions:
REMARK  status: ('A' for Active; 'I' for Inactive)
REMARK    1  A    between atoms: C2_3  and  C3_5 
REMARK    2  A    between atoms: C3_5  and  N2_6 
REMARK    3  A    between atoms: C3_5  and  C4_10 
REMARK    4  A    between atoms: C4_10  and  C5_11 
REMARK    5  A    between atoms: C5_11  and  C6_12 
REMARK       I    between atoms: C6_12  and  N3_14 
ROOT
HETATM    1  C1  UNL     1     -25.915  21.678  13.457  1.00  0.00     0.263 C 
HETATM    2  N1  UNL     1     -25.826  20.950  12.287  1.00  0.00    -0.419 NA
HETATM    3  C2  UNL     1     -25.741  20.239  11.146  1.00  0.00     0.316 C 
HETATM    4  O1  UNL     1     -26.157  20.550   9.996  1.00  0.00    -0.255 OA
ENDROOT
BRANCH   3   5
HETATM    5  C3  UNL     1     -25.062  18.873  11.187  1.00  0.00     0.289 C 
BRANCH   5   6
HETATM    6  N2  UNL     1     -24.253  18.699  10.009  1.00  0.00    -0.065 N 
ATOM      7  H23 UNL     1     -24.471  19.387   9.289  1.00  0.00     0.275 HD
ATOM      8  H22 UNL     1     -23.280  18.957  10.170  1.00  0.00     0.275 HD
ATOM      9  H21 UNL     1     -24.347  17.742   9.668  1.00  0.00     0.275 HD
ENDBRANCH   5   6
BRANCH   5  10
HETATM   10  C4  UNL     1     -24.493  18.512  12.482  1.00  0.00     0.053 C 
BRANCH  10  11
HETATM   11  C5  UNL     1     -23.008  18.510  12.642  1.00  0.00     0.105 C 
BRANCH  11  12
HETATM   12  C6  UNL     1     -22.725  19.045  14.003  1.00  0.00     0.220 C 
HETATM   13  O2  UNL     1     -23.662  19.575  14.686  1.00  0.00    -0.273 OA
HETATM   14  N3  UNL     1     -21.424  18.989  14.583  1.00  0.00    -0.349 N 
HETATM   15  C7  UNL     1     -21.207  19.530  15.907  1.00  0.00     0.153 C 
HETATM   16  C22 UNL     1     -20.349  18.388  13.867  1.00  0.00     0.152 C 
HETATM   17  C8  UNL     1     -22.027  18.807  16.976  1.00  0.00     0.252 C 
HETATM   18  N4  UNL     1     -22.558  19.812  17.895  1.00  0.00    -0.074 N 
HETATM   19  C9  UNL     1     -22.622  19.379  19.254  1.00  0.00     0.234 C 
ATOM     20  H42 UNL     1     -22.029  20.681  17.821  1.00  0.00     0.277 HD
ATOM     21  H41 UNL     1     -23.471  20.140  17.580  1.00  0.00     0.277 HD
HETATM   22  C10 UNL     1     -21.353  19.639  20.041  1.00  0.00     0.055 C 
HETATM   23  C11 UNL     1     -21.043  21.122  20.044  1.00  0.00     0.233 C 
HETATM   24  N5  UNL     1     -19.640  21.417  20.127  1.00  0.00    -0.075 N 
HETATM   25  C12 UNL     1     -18.908  20.262  20.544  1.00  0.00     0.232 C 
ATOM     26  H52 UNL     1     -19.281  21.797  19.251  1.00  0.00     0.277 HD
ATOM     27  H51 UNL     1     -19.456  22.220  20.728  1.00  0.00     0.277 HD
HETATM   28  C13 UNL     1     -17.619  20.628  21.262  1.00  0.00     0.029 C 
HETATM   29  C14 UNL     1     -16.839  19.373  21.563  1.00  0.00     0.029 C 
HETATM   30  C15 UNL     1     -15.465  19.488  20.931  1.00  0.00     0.232 C 
HETATM   31  N6  UNL     1     -15.509  19.202  19.507  1.00  0.00    -0.075 N 
HETATM   32  C16 UNL     1     -14.402  18.319  19.211  1.00  0.00     0.233 C 
ATOM     33  H62 UNL     1     -16.408  18.829  19.203  1.00  0.00     0.277 HD
ATOM     34  H61 UNL     1     -15.513  20.043  18.930  1.00  0.00     0.277 HD
HETATM   35  C17 UNL     1     -14.565  17.530  17.956  1.00  0.00     0.055 C 
HETATM   36  C18 UNL     1     -15.343  18.239  16.869  1.00  0.00     0.234 C 
HETATM   37  N7  UNL     1     -16.745  18.259  17.160  1.00  0.00    -0.073 N 
HETATM   38  C19 UNL     1     -17.485  17.801  15.976  1.00  0.00     0.258 C 
ATOM     39  H72 UNL     1     -16.976  17.722  17.995  1.00  0.00     0.277 HD
ATOM     40  H71 UNL     1     -17.061  19.172  17.486  1.00  0.00     0.277 HD
HETATM   41  C20 UNL     1     -17.311  18.773  14.834  1.00  0.00     0.195 C 
HETATM   42  O3  UNL     1     -18.399  19.603  14.658  1.00  0.00    -0.388 OA
HETATM   43  C21 UNL     1     -19.178  19.296  13.579  1.00  0.00     0.187 C 
ENDBRANCH  11  12
ENDBRANCH  10  11
ENDBRANCH   5  10
ENDBRANCH   3   5
TORSDOF 4
ENDMDL
MODEL 5
REMARK VINA RESULT: -8.125798381      4.614      6.238
REMARK  5 active torsions:
REMARK  status: ('A' for Active; 'I' for Inactive)
REMARK    1  A    between atoms: C2_3  and  C3_5 
REMARK    2  A    between atoms: C3_5  and  N2_6 
REMARK    3  A    between atoms: C3_5  and  C4_10 
REMARK    4  A    between atoms: C4_10  and  C5_11 
REMARK    5  A    between atoms: C5_11  and  C6_12 
REMARK       I    between atoms: C6_12  and  N3_14 
ROOT
HETATM    1  C1  UNL     1      -9.232   8.730  15.596  1.00  0.00     0.263 C 
HETATM    2  N1  UNL     1      -9.882   8.036  14.596  1.00  0.00    -0.419 NA
HETATM    3  C2  UNL     1     -10.515   7.358  13.618  1.00  0.00     0.316 C 
HETATM    4  O1  UNL     1     -10.342   6.163  13.255  1.00  0.00    -0.255 OA
ENDROOT
BRANCH   3   5
HETATM    5  C3  UNL     1     -11.594   8.078  12.815  1.00  0.00     0.289 C 
BRANCH   5   6
HETATM    6  N2  UNL     1     -11.603   7.581  11.464  1.00  0.00    -0.065 N 
ATOM      7  H23 UNL     1     -10.765   7.043  11.247  1.00  0.00     0.275 HD
ATOM      8  H22 UNL     1     -12.291   6.840  11.332  1.00  0.00     0.275 HD
ATOM      9  H21 UNL     1     -11.743   8.356  10.815  1.00  0.00     0.275 HD
ENDBRANCH   5   6
BRANCH   5  10
HETATM   10  C4  UNL     1     -12.869   8.238  13.507  1.00  0.00     0.053 C 
BRANCH  10  11
HETATM   11  C5  UNL     1     -12.922   9.085  14.736  1.00  0.00     0.105 C 
BRANCH  11  12
HETATM   12  C6  UNL     1     -13.926  10.153  14.475  1.00  0.00     0.220 C 
HETATM   13  O2  UNL     1     -14.720  10.052  13.483  1.00  0.00    -0.273 OA
HETATM   14  N3  UNL     1     -14.037  11.307  15.306  1.00  0.00    -0.349 N 
HETATM   15  C7  UNL     1     -15.028  12.315  15.000  1.00  0.00     0.153 C 
HETATM   16  C22 UNL     1     -13.186  11.456  16.438  1.00  0.00     0.152 C 
HETATM   17  C8  UNL     1     -16.456  11.773  15.073  1.00  0.00     0.252 C 
HETATM   18  N4  UNL     1     -17.207  12.326  13.948  1.00  0.00    -0.074 N 
HETATM   19  C9  UNL     1     -18.574  12.611  14.247  1.00  0.00     0.234 C 
ATOM     20  H42 UNL     1     -16.741  13.154  13.577  1.00  0.00     0.277 HD
ATOM     21  H41 UNL     1     -17.139  11.713  13.135  1.00  0.00     0.277 HD
HETATM   22  C10 UNL     1     -18.801  14.002  14.804  1.00  0.00     0.055 C 
HETATM   23  C11 UNL     1     -18.320  15.041  13.812  1.00  0.00     0.233 C 
HETATM   24  N5  UNL     1     -17.855  16.252  14.428  1.00  0.00    -0.075 N 
HETATM   25  C12 UNL     1     -18.289  16.324  15.788  1.00  0.00     0.232 C 
ATOM     26  H52 UNL     1     -16.843  16.354  14.347  1.00  0.00     0.277 HD
ATOM     27  H51 UNL     1     -18.134  17.078  13.897  1.00  0.00     0.277 HD
HETATM   28  C13 UNL     1     -18.420  17.758  16.274  1.00  0.00     0.029 C 
HETATM   29  C14 UNL     1     -18.759  17.760  17.743  1.00  0.00     0.029 C 
HETATM   30  C15 UNL     1     -17.701  18.553  18.487  1.00  0.00     0.232 C 
HETATM   31  N6  UNL     1     -16.496  17.767  18.695  1.00  0.00    -0.075 N 
HETATM   32  C16 UNL     1     -16.088  17.961  20.070  1.00  0.00     0.233 C 
ATOM     33  H62 UNL     1     -16.613  16.785  18.448  1.00  0.00     0.277 HD
ATOM     34  H61 UNL     1     -15.757  17.984  18.026  1.00  0.00     0.277 HD
HETATM   35  C17 UNL     1     -15.205  16.884  20.605  1.00  0.00     0.055 C 
HETATM   36  C18 UNL     1     -14.294  16.254  19.575  1.00  0.00     0.234 C 
HETATM   37  N7  UNL     1     -15.017  15.372  18.708  1.00  0.00    -0.073 N 
HETATM   38  C19 UNL     1     -14.305  14.089  18.630  1.00  0.00     0.258 C 
ATOM     39  H72 UNL     1     -15.990  15.261  18.991  1.00  0.00     0.277 HD
ATOM     40  H71 UNL     1     -15.182  15.781  17.788  1.00  0.00     0.277 HD
HETATM   41  C20 UNL     1     -12.960  14.270  17.967  1.00  0.00     0.195 C 
HETATM   42  O3  UNL     1     -12.946  13.864  16.649  1.00  0.00    -0.388 OA
HETATM   43  C21 UNL     1     -12.303  12.680  16.426  1.00  0.00     0.187 C 
ENDBRANCH  11  12
ENDBRANCH  10  11
ENDBRANCH   5  10
ENDBRANCH   3   5
TORSDOF 4
ENDMDL
