MODEL 1
REMARK VINA RESULT: -7.304686608      0.000      0.000
REMARK  3 active torsions:
REMARK  status: ('A' for Active; 'I' for Inactive)
REMARK    1  A    between atoms: C2_2  and  C4_4 
REMARK    2  A    between atoms: C4_4  and  N1_5 
REMARK    3  A    between atoms: C9_16  and  C10_17 
ROOT
HETATM    1  C10 UNL     1     -16.677  14.937  17.022  1.00  0.00     0.116 C 
HETATM    2  N4  UNL     1     -17.813  14.855  16.193  1.00  0.00    -0.384 N 
ATOM      3  H4  UNL     1     -17.901  14.170  15.443  1.00  0.00     0.159 HD
HETATM    4  C11 UNL     1     -18.837  15.818  16.495  1.00  0.00     0.146 C 
HETATM    5  C12 UNL     1     -18.941  16.952  15.490  1.00  0.00     0.187 C 
HETATM    6  O3  UNL     1     -20.245  17.475  15.658  1.00  0.00    -0.387 OA
HETATM    7  C13 UNL     1     -20.504  17.879  16.938  1.00  0.00     0.193 C 
HETATM    8  C14 UNL     1     -21.407  17.002  17.732  1.00  0.00     0.193 C 
HETATM    9  O4  UNL     1     -22.319  17.731  18.532  1.00  0.00    -0.387 OA
HETATM   10  C15 UNL     1     -22.983  16.835  19.366  1.00  0.00     0.195 C 
HETATM   11  C16 UNL     1     -22.132  16.254  20.443  1.00  0.00     0.258 C 
HETATM   12  N5  UNL     1     -22.067  14.804  20.305  1.00  0.00    -0.073 N 
ATOM     13  H51 UNL     1     -21.899  14.538  19.335  1.00  0.00     0.277 HD
ATOM     14  H52 UNL     1     -22.987  14.385  20.436  1.00  0.00     0.277 HD
HETATM   15  C17 UNL     1     -21.102  14.198  21.175  1.00  0.00     0.232 C 
HETATM   16  C18 UNL     1     -20.778  12.822  20.711  1.00  0.00     0.029 C 
HETATM   17  C19 UNL     1     -19.377  12.666  20.165  1.00  0.00     0.021 C 
HETATM   18  C20 UNL     1     -19.139  13.485  18.907  1.00  0.00     0.123 C 
HETATM   19  N6  UNL     1     -18.060  14.417  19.160  1.00  0.00    -0.356 N 
ATOM     20  H6  UNL     1     -18.183  15.011  19.979  1.00  0.00     0.162 HD
HETATM   21  C21 UNL     1     -16.887  14.622  18.457  1.00  0.00     0.267 C 
HETATM   22  O5  UNL     1     -15.787  14.535  19.122  1.00  0.00    -0.266 OA
ENDROOT
BRANCH   1  23
HETATM   23  C9  UNL     1     -15.399  14.366  16.555  1.00  0.00     0.243 C 
HETATM   24  N1  UNL     1     -15.289  12.974  16.317  1.00  0.00    -0.303 N 
HETATM   25  C5  UNL     1     -14.076  12.173  16.374  1.00  0.00     0.243 C 
HETATM   26  O1  UNL     1     -14.340  10.936  16.585  1.00  0.00    -0.271 OA
HETATM   27  C6  UNL     1     -12.615  12.411  16.253  1.00  0.00     0.225 C 
HETATM   28  N2  UNL     1     -12.341  13.760  16.695  1.00  0.00    -0.351 N 
HETATM   29  C7  UNL     1     -12.793  15.064  16.334  1.00  0.00     0.235 C 
ATOM     30  H2  UNL     1     -11.656  13.786  17.450  1.00  0.00     0.163 HD
HETATM   31  O2  UNL     1     -12.267  15.967  17.081  1.00  0.00    -0.272 OA
HETATM   32  C8  UNL     1     -13.714  15.614  15.312  1.00  0.00     0.219 C 
HETATM   33  N3  UNL     1     -15.006  15.026  15.325  1.00  0.00    -0.388 N 
ATOM     34  H3  UNL     1     -15.624  15.066  14.514  1.00  0.00     0.156 HD
BRANCH  24  35
HETATM   35  C4  UNL     1     -16.367  12.139  15.984  1.00  0.00     0.073 C 
BRANCH  35  36
HETATM   36  C2  UNL     1     -16.795  12.140  14.536  1.00  0.00     0.016 C 
HETATM   37  C1  UNL     1     -18.256  11.693  14.403  1.00  0.00     0.015 C 
HETATM   38  C3  UNL     1     -16.003  11.191  13.664  1.00  0.00     0.015 C 
ENDBRANCH  35  36
ENDBRANCH  24  35
ENDBRANCH   1  23
TORSDOF 3
ENDMDL
MODEL 2
REMARK VINA RESULT: -7.303266484      4.514      6.943
REMARK  3 active torsions:
REMARK  status: ('A' for Active; 'I' for Inactive)
REMARK    1  A    between atoms: C2_2  and  C4_4 
REMARK    2  A    between atoms: C4_4  and  N1_5 
REMARK    3  A    between atoms: C9_16  and  C10_17 
ROOT
HETATM    1  C10 UNL     1     -17.012  17.700  19.435  1.00  0.00     0.116 C 
HETATM    2  N4  UNL     1     -16.178  16.569  19.519  1.00  0.00    -0.384 N 
ATOM      3  H4  UNL     1     -15.425  16.485  20.203  1.00  0.00     0.159 HD
HETATM    4  C11 UNL     1     -16.478  15.539  18.560  1.00  0.00     0.146 C 
HETATM    5  C12 UNL     1     -15.475  15.437  17.424  1.00  0.00     0.187 C 
HETATM    6  O3  UNL     1     -15.639  14.130  16.906  1.00  0.00    -0.387 OA
HETATM    7  C13 UNL     1     -16.918  13.864  16.505  1.00  0.00     0.193 C 
HETATM    8  C14 UNL     1     -17.706  12.961  17.387  1.00  0.00     0.193 C 
HETATM    9  O4  UNL     1     -18.504  12.043  16.663  1.00  0.00    -0.387 OA
HETATM   10  C15 UNL     1     -19.333  11.378  17.563  1.00  0.00     0.195 C 
HETATM   11  C16 UNL     1     -20.412  12.226  18.144  1.00  0.00     0.258 C 
HETATM   12  N5  UNL     1     -20.271  12.296  19.593  1.00  0.00    -0.073 N 
ATOM     13  H51 UNL     1     -19.301  12.470  19.856  1.00  0.00     0.277 HD
ATOM     14  H52 UNL     1     -20.397  11.377  20.016  1.00  0.00     0.277 HD
HETATM   15  C17 UNL     1     -21.144  13.260  20.198  1.00  0.00     0.232 C 
HETATM   16  C18 UNL     1     -20.678  13.590  21.573  1.00  0.00     0.029 C 
HETATM   17  C19 UNL     1     -20.137  14.994  21.722  1.00  0.00     0.021 C 
HETATM   18  C20 UNL     1     -18.883  15.234  20.900  1.00  0.00     0.123 C 
HETATM   19  N6  UNL     1     -19.142  16.310  19.966  1.00  0.00    -0.356 N 
ATOM     20  H6  UNL     1     -19.963  16.181  19.373  1.00  0.00     0.162 HD
HETATM   21  C21 UNL     1     -18.446  17.485  19.755  1.00  0.00     0.267 C 
HETATM   22  O5  UNL     1     -19.115  18.583  19.840  1.00  0.00    -0.266 OA
ENDROOT
BRANCH   1  23
HETATM   23  C9  UNL     1     -16.549  18.982  20.002  1.00  0.00     0.243 C 
HETATM   24  N1  UNL     1     -16.308  19.097  21.392  1.00  0.00    -0.303 N 
HETATM   25  C5  UNL     1     -16.368  20.313  22.190  1.00  0.00     0.243 C 
HETATM   26  O1  UNL     1     -16.575  20.052  23.428  1.00  0.00    -0.271 OA
HETATM   27  C6  UNL     1     -16.255  21.774  21.947  1.00  0.00     0.225 C 
HETATM   28  N2  UNL     1     -16.701  22.042  20.599  1.00  0.00    -0.351 N 
HETATM   29  C7  UNL     1     -16.342  21.587  19.295  1.00  0.00     0.235 C 
ATOM     30  H2  UNL     1     -17.459  22.723  20.573  1.00  0.00     0.163 HD
HETATM   31  O2  UNL     1     -17.093  22.107  18.392  1.00  0.00    -0.272 OA
HETATM   32  C8  UNL     1     -15.318  20.669  18.745  1.00  0.00     0.219 C 
HETATM   33  N3  UNL     1     -15.323  19.378  19.337  1.00  0.00    -0.388 N 
ATOM     34  H3  UNL     1     -14.510  18.764  19.297  1.00  0.00     0.156 HD
BRANCH  24  35
HETATM   35  C4  UNL     1     -15.968  18.024  22.230  1.00  0.00     0.073 C 
BRANCH  35  36
HETATM   36  C2  UNL     1     -14.519  17.601  22.225  1.00  0.00     0.016 C 
HETATM   37  C1  UNL     1     -14.382  16.133  22.645  1.00  0.00     0.015 C 
HETATM   38  C3  UNL     1     -13.652  18.379  23.189  1.00  0.00     0.015 C 
ENDBRANCH  35  36
ENDBRANCH  24  35
ENDBRANCH   1  23
TORSDOF 3
ENDMDL
MODEL 3
REMARK VINA RESULT: -7.174225705      4.410      6.818
REMARK  3 active torsions:
REMARK  status: ('A' for Active; 'I' for Inactive)
REMARK    1  A    between atoms: C2_2  and  C4_4 
REMARK    2  A    between atoms: C4_4  and  N1_5 
REMARK    3  A    between atoms: C9_16  and  C10_17 
ROOT
HETATM    1  C10 UNL     1     -19.292  17.204  16.700  1.00  0.00     0.116 C 
HETATM    2  N4  UNL     1     -19.391  18.036  17.832  1.00  0.00    -0.384 N 
ATOM      3  H4  UNL     1     -20.082  18.782  17.912  1.00  0.00     0.159 HD
HETATM    4  C11 UNL     1     -18.434  17.745  18.866  1.00  0.00     0.146 C 
HETATM    5  C12 UNL     1     -17.310  18.758  18.976  1.00  0.00     0.187 C 
HETATM    6  O3  UNL     1     -16.797  18.598  20.286  1.00  0.00    -0.387 OA
HETATM    7  C13 UNL     1     -16.385  17.322  20.552  1.00  0.00     0.193 C 
HETATM    8  C14 UNL     1     -17.264  16.525  21.450  1.00  0.00     0.193 C 
HETATM    9  O4  UNL     1     -16.537  15.732  22.370  1.00  0.00    -0.387 OA
HETATM   10  C15 UNL     1     -17.432  14.893  23.029  1.00  0.00     0.195 C 
HETATM   11  C16 UNL     1     -17.998  13.810  22.177  1.00  0.00     0.258 C 
HETATM   12  N5  UNL     1     -19.449  13.937  22.099  1.00  0.00    -0.073 N 
ATOM     13  H51 UNL     1     -19.720  14.905  21.925  1.00  0.00     0.277 HD
ATOM     14  H52 UNL     1     -19.875  13.805  23.016  1.00  0.00     0.277 HD
HETATM   15  C17 UNL     1     -20.039  13.059  21.131  1.00  0.00     0.232 C 
HETATM   16  C18 UNL     1     -21.417  13.512  20.794  1.00  0.00     0.029 C 
HETATM   17  C19 UNL     1     -21.564  14.053  19.390  1.00  0.00     0.021 C 
HETATM   18  C20 UNL     1     -20.753  15.316  19.155  1.00  0.00     0.123 C 
HETATM   19  N6  UNL     1     -19.809  15.067  18.085  1.00  0.00    -0.356 N 
ATOM     20  H6  UNL     1     -19.210  14.252  18.216  1.00  0.00     0.162 HD
HETATM   21  C21 UNL     1     -19.599  15.767  16.912  1.00  0.00     0.267 C 
HETATM   22  O5  UNL     1     -19.671  15.098  15.813  1.00  0.00    -0.266 OA
ENDROOT
BRANCH   1  23
HETATM   23  C9  UNL     1     -19.856  17.664  15.415  1.00  0.00     0.243 C 
HETATM   24  N1  UNL     1     -21.248  17.893  15.294  1.00  0.00    -0.303 N 
HETATM   25  C5  UNL     1     -22.039  17.827  14.074  1.00  0.00     0.243 C 
HETATM   26  O1  UNL     1     -23.277  17.610  14.328  1.00  0.00    -0.271 OA
HETATM   27  C6  UNL     1     -21.791  17.944  12.614  1.00  0.00     0.225 C 
HETATM   28  N2  UNL     1     -20.437  17.508  12.353  1.00  0.00    -0.351 N 
HETATM   29  C7  UNL     1     -19.139  17.879  12.814  1.00  0.00     0.235 C 
ATOM     30  H2  UNL     1     -20.401  16.751  11.671  1.00  0.00     0.163 HD
HETATM   31  O2  UNL     1     -18.227  17.135  12.298  1.00  0.00    -0.272 OA
HETATM   32  C8  UNL     1     -18.602  18.907  13.736  1.00  0.00     0.219 C 
HETATM   33  N3  UNL     1     -19.200  18.895  15.023  1.00  0.00    -0.388 N 
ATOM     34  H3  UNL     1     -19.170  19.709  15.638  1.00  0.00     0.156 HD
BRANCH  24  35
HETATM   35  C4  UNL     1     -22.094  18.225  16.363  1.00  0.00     0.073 C 
BRANCH  35  36
HETATM   36  C2  UNL     1     -22.081  19.668  16.807  1.00  0.00     0.016 C 
HETATM   37  C1  UNL     1     -22.541  19.790  18.264  1.00  0.00     0.015 C 
HETATM   38  C3  UNL     1     -23.009  20.560  16.014  1.00  0.00     0.015 C 
ENDBRANCH  35  36
ENDBRANCH  24  35
ENDBRANCH   1  23
TORSDOF 3
ENDMDL
MODEL 4
REMARK VINA RESULT: -6.981177118      2.583      3.381
REMARK  3 active torsions:
REMARK  status: ('A' for Active; 'I' for Inactive)
REMARK    1  A    between atoms: C2_2  and  C4_4 
REMARK    2  A    between atoms: C4_4  and  N1_5 
REMARK    3  A    between atoms: C9_16  and  C10_17 
ROOT
HETATM    1  C10 UNL     1     -16.712  16.116  16.010  1.00  0.00     0.116 C 
HETATM    2  N4  UNL     1     -17.499  15.204  15.281  1.00  0.00    -0.384 N 
ATOM      3  H4  UNL     1     -17.377  14.193  15.345  1.00  0.00     0.159 HD
HETATM    4  C11 UNL     1     -18.491  15.818  14.439  1.00  0.00     0.146 C 
HETATM    5  C12 UNL     1     -18.161  15.778  12.958  1.00  0.00     0.187 C 
HETATM    6  O3  UNL     1     -19.402  15.951  12.299  1.00  0.00    -0.387 OA
HETATM    7  C13 UNL     1     -20.051  17.097  12.664  1.00  0.00     0.193 C 
HETATM    8  C14 UNL     1     -21.233  16.926  13.551  1.00  0.00     0.193 C 
HETATM    9  O4  UNL     1     -22.306  17.784  13.211  1.00  0.00    -0.387 OA
HETATM   10  C15 UNL     1     -23.280  17.683  14.201  1.00  0.00     0.195 C 
HETATM   11  C16 UNL     1     -22.893  18.292  15.505  1.00  0.00     0.258 C 
HETATM   12  N5  UNL     1     -22.893  17.279  16.553  1.00  0.00    -0.073 N 
ATOM     13  H51 UNL     1     -22.424  16.429  16.238  1.00  0.00     0.277 HD
ATOM     14  H52 UNL     1     -23.831  16.907  16.700  1.00  0.00     0.277 HD
HETATM   15  C17 UNL     1     -22.330  17.745  17.787  1.00  0.00     0.232 C 
HETATM   16  C18 UNL     1     -21.971  16.593  18.660  1.00  0.00     0.029 C 
HETATM   17  C19 UNL     1     -20.483  16.396  18.843  1.00  0.00     0.021 C 
HETATM   18  C20 UNL     1     -19.771  16.042  17.548  1.00  0.00     0.123 C 
HETATM   19  N6  UNL     1     -18.776  17.059  17.276  1.00  0.00    -0.356 N 
ATOM     20  H6  UNL     1     -19.127  18.017  17.264  1.00  0.00     0.162 HD
HETATM   21  C21 UNL     1     -17.422  16.928  17.030  1.00  0.00     0.267 C 
HETATM   22  O5  UNL     1     -16.624  17.603  17.783  1.00  0.00    -0.266 OA
ENDROOT
BRANCH   1  23
HETATM   23  C9  UNL     1     -15.397  15.685  16.524  1.00  0.00     0.243 C 
HETATM   24  N1  UNL     1     -15.322  14.712  17.551  1.00  0.00    -0.303 N 
HETATM   25  C5  UNL     1     -14.246  14.547  18.517  1.00  0.00     0.243 C 
HETATM   26  O1  UNL     1     -14.652  13.939  19.571  1.00  0.00    -0.271 OA
HETATM   27  C6  UNL     1     -12.806  14.896  18.604  1.00  0.00     0.225 C 
HETATM   28  N2  UNL     1     -12.583  16.085  17.812  1.00  0.00    -0.351 N 
HETATM   29  C7  UNL     1     -12.806  16.464  16.454  1.00  0.00     0.235 C 
ATOM     30  H2  UNL     1     -12.163  16.838  18.357  1.00  0.00     0.163 HD
HETATM   31  O2  UNL     1     -12.470  17.686  16.246  1.00  0.00    -0.272 OA
HETATM   32  C8  UNL     1     -13.326  15.786  15.244  1.00  0.00     0.219 C 
HETATM   33  N3  UNL     1     -14.599  15.184  15.423  1.00  0.00    -0.388 N 
ATOM     34  H3  UNL     1     -14.933  14.439  14.810  1.00  0.00     0.156 HD
BRANCH  24  35
HETATM   35  C4  UNL     1     -16.303  13.739  17.796  1.00  0.00     0.073 C 
BRANCH  35  36
HETATM   36  C2  UNL     1     -16.315  12.549  16.867  1.00  0.00     0.016 C 
HETATM   37  C1  UNL     1     -17.489  11.619  17.195  1.00  0.00     0.015 C 
HETATM   38  C3  UNL     1     -15.078  11.686  16.964  1.00  0.00     0.015 C 
ENDBRANCH  35  36
ENDBRANCH  24  35
ENDBRANCH   1  23
TORSDOF 3
ENDMDL
MODEL 5
REMARK VINA RESULT: -6.974539527      5.567      7.900
REMARK  3 active torsions:
REMARK  status: ('A' for Active; 'I' for Inactive)
REMARK    1  A    between atoms: C2_2  and  C4_4 
REMARK    2  A    between atoms: C4_4  and  N1_5 
REMARK    3  A    between atoms: C9_16  and  C10_17 
ROOT
HETATM    1  C10 UNL     1     -13.005  20.126  14.735  1.00  0.00     0.116 C 
HETATM    2  N4  UNL     1     -14.365  20.240  15.080  1.00  0.00    -0.384 N 
ATOM      3  H4  UNL     1     -15.108  20.317  14.386  1.00  0.00     0.159 HD
HETATM    4  C11 UNL     1     -14.619  20.236  16.497  1.00  0.00     0.146 C 
HETATM    5  C12 UNL     1     -14.991  21.594  17.065  1.00  0.00     0.187 C 
HETATM    6  O3  UNL     1     -15.661  21.313  18.280  1.00  0.00    -0.387 OA
HETATM    7  C13 UNL     1     -14.915  20.565  19.147  1.00  0.00     0.193 C 
HETATM    8  C14 UNL     1     -15.318  19.141  19.297  1.00  0.00     0.193 C 
HETATM    9  O4  UNL     1     -15.245  18.686  20.636  1.00  0.00    -0.387 OA
HETATM   10  C15 UNL     1     -15.458  17.310  20.644  1.00  0.00     0.195 C 
HETATM   11  C16 UNL     1     -14.341  16.514  20.060  1.00  0.00     0.258 C 
HETATM   12  N5  UNL     1     -14.814  15.752  18.910  1.00  0.00    -0.073 N 
ATOM     13  H51 UNL     1     -15.388  16.334  18.299  1.00  0.00     0.277 HD
ATOM     14  H52 UNL     1     -15.513  15.065  19.192  1.00  0.00     0.277 HD
HETATM   15  C17 UNL     1     -13.754  15.128  18.173  1.00  0.00     0.232 C 
HETATM   16  C18 UNL     1     -14.227  14.735  16.818  1.00  0.00     0.029 C 
HETATM   17  C19 UNL     1     -13.619  15.541  15.692  1.00  0.00     0.021 C 
HETATM   18  C20 UNL     1     -14.002  17.010  15.744  1.00  0.00     0.123 C 
HETATM   19  N6  UNL     1     -12.794  17.798  15.869  1.00  0.00    -0.356 N 
ATOM     20  H6  UNL     1     -12.185  17.539  16.646  1.00  0.00     0.162 HD
HETATM   21  C21 UNL     1     -12.340  18.849  15.094  1.00  0.00     0.267 C 
HETATM   22  O5  UNL     1     -11.158  18.735  14.592  1.00  0.00    -0.266 OA
ENDROOT
BRANCH   1  23
HETATM   23  C9  UNL     1     -12.559  20.578  13.402  1.00  0.00     0.243 C 
HETATM   24  N1  UNL     1     -13.019  19.916  12.238  1.00  0.00    -0.303 N 
HETATM   25  C5  UNL     1     -12.342  19.842  10.952  1.00  0.00     0.243 C 
HETATM   26  O1  UNL     1     -12.733  18.828  10.274  1.00  0.00    -0.271 OA
HETATM   27  C6  UNL     1     -11.318  20.631  10.221  1.00  0.00     0.225 C 
HETATM   28  N2  UNL     1     -10.465  21.274  11.195  1.00  0.00    -0.351 N 
HETATM   29  C7  UNL     1     -10.660  22.159  12.296  1.00  0.00     0.235 C 
ATOM     30  H2  UNL     1      -9.482  21.036  11.062  1.00  0.00     0.163 HD
HETATM   31  O2  UNL     1      -9.553  22.412  12.898  1.00  0.00    -0.272 OA
HETATM   32  C8  UNL     1     -11.824  22.847  12.901  1.00  0.00     0.219 C 
HETATM   33  N3  UNL     1     -12.895  21.979  13.240  1.00  0.00    -0.388 N 
ATOM     34  H3  UNL     1     -13.848  22.322  13.362  1.00  0.00     0.156 HD
BRANCH  24  35
HETATM   35  C4  UNL     1     -14.230  19.212  12.152  1.00  0.00     0.073 C 
BRANCH  35  36
HETATM   36  C2  UNL     1     -15.308  19.832  11.297  1.00  0.00     0.016 C 
HETATM   37  C1  UNL     1     -16.109  20.864  12.098  1.00  0.00     0.015 C 
HETATM   38  C3  UNL     1     -16.327  18.840  10.785  1.00  0.00     0.015 C 
ENDBRANCH  35  36
ENDBRANCH  24  35
ENDBRANCH   1  23
TORSDOF 3
ENDMDL
