MODEL 1
REMARK VINA RESULT: -6.043131144      0.000      0.000
REMARK  11 active torsions:
REMARK  status: ('A' for Active; 'I' for Inactive)
REMARK    1  A    between atoms: O1_2  and  C2_3 
REMARK    2  A    between atoms: C6_8  and  N2_11 
REMARK    3  A    between atoms: C9_16  and  N4_17 
REMARK    4  A    between atoms: N4_17  and  C10_18 
REMARK    5  A    between atoms: N4_17  and  C12_22 
REMARK    6  A    between atoms: C10_18  and  C11_19 
REMARK    7  A    between atoms: C11_19  and  O3_20 
REMARK    8  A    between atoms: C12_22  and  C13_23 
REMARK    9  A    between atoms: C13_23  and  O4_24 
REMARK   10  A    between atoms: C14_28  and  N6_29 
REMARK   11  A    between atoms: N6_29  and  N7_31 
ROOT
HETATM    1  C2  UNL     1      15.277 -48.340  10.708  1.00  0.00     0.059 C 
HETATM    2  C3  UNL     1      15.781 -49.288   9.944  1.00  0.00     0.017 C 
HETATM    3  C4  UNL     1      16.282 -50.620  10.455  1.00  0.00     0.055 C 
HETATM    4  C5  UNL     1      15.777 -48.832   8.566  1.00  0.00     0.201 C 
HETATM    5  O2  UNL     1      16.510 -49.347   7.657  1.00  0.00    -0.289 OA
HETATM    6  C6  UNL     1      14.797 -47.720   8.477  1.00  0.00     0.206 C 
HETATM    7  C7  UNL     1      13.432 -48.226   8.242  1.00  0.00     0.100 C 
HETATM    8  N1  UNL     1      12.363 -48.600   8.065  1.00  0.00    -0.194 NA
HETATM    9  C15 UNL     1      14.884 -47.175   9.910  1.00  0.00     0.121 C 
ENDROOT
BRANCH   6  10
HETATM   10  N2  UNL     1      15.244 -46.746   7.580  1.00  0.00    -0.195 N 
HETATM   11  C8  UNL     1      15.366 -46.655   6.333  1.00  0.00     0.709 A 
HETATM   12  N3  UNL     1      15.866 -45.488   5.791  1.00  0.00    -0.021 N 
HETATM   13  N8  UNL     1      15.028 -47.651   5.509  1.00  0.00    -0.020 N 
HETATM   14  C9  UNL     1      16.016 -45.341   4.484  1.00  0.00     0.709 A 
ATOM     15  H3  UNL     1      16.126 -44.721   6.411  1.00  0.00     0.203 HD
HETATM   16  N5  UNL     1      15.677 -46.339   3.668  1.00  0.00    -0.020 N 
HETATM   17  C14 UNL     1      15.190 -47.481   4.164  1.00  0.00     0.725 A 
ATOM     18  H5  UNL     1      15.791 -46.231   2.660  1.00  0.00     0.203 HD
ATOM     19  H8  UNL     1      14.655 -48.525   5.879  1.00  0.00     0.203 HD
ATOM     20  H2  UNL     1      15.547 -45.897   8.057  1.00  0.00     0.180 HD
BRANCH  14  21
HETATM   21  N4  UNL     1      16.487 -44.118   3.948  1.00  0.00    -0.213 N 
BRANCH  21  22
HETATM   22  C10 UNL     1      15.481 -43.238   3.324  1.00  0.00     0.167 C 
BRANCH  22  23
HETATM   23  C11 UNL     1      14.119 -43.882   3.259  1.00  0.00     0.184 C 
BRANCH  23  24
HETATM   24  O3  UNL     1      13.678 -43.949   4.600  1.00  0.00    -0.399 OA
ATOM     25  H3  UNL     1      12.852 -44.418   4.567  1.00  0.00     0.209 HD
ENDBRANCH  23  24
ENDBRANCH  22  23
ENDBRANCH  21  22
BRANCH  21  26
HETATM   26  C12 UNL     1      17.809 -43.609   3.939  1.00  0.00     0.167 C 
BRANCH  26  27
HETATM   27  C13 UNL     1      18.268 -42.739   5.036  1.00  0.00     0.184 C 
BRANCH  27  28
HETATM   28  O4  UNL     1      18.991 -43.368   6.047  1.00  0.00    -0.399 OA
ATOM     29  H4  UNL     1      19.600 -42.817   6.525  1.00  0.00     0.209 HD
ENDBRANCH  27  28
ENDBRANCH  26  27
ENDBRANCH  21  26
ENDBRANCH  14  21
BRANCH  17  30
HETATM   30  N6  UNL     1      14.852 -48.469   3.409  1.00  0.00    -0.138 N 
ATOM     31  H6  UNL     1      14.136 -49.122   3.724  1.00  0.00     0.205 HD
BRANCH  30  32
HETATM   32  N7  UNL     1      15.447 -48.652   2.184  1.00  0.00    -0.331 N 
ATOM     33  H72 UNL     1      16.116 -49.414   2.074  1.00  0.00     0.177 HD
ATOM     34  H71 UNL     1      15.226 -48.038   1.401  1.00  0.00     0.177 HD
ENDBRANCH  30  32
ENDBRANCH  17  30
ENDBRANCH   6  10
BRANCH   1  35
HETATM   35  O1  UNL     1      15.133 -48.431  12.112  1.00  0.00    -0.359 OA
HETATM   36  C1  UNL     1      15.349 -47.296  12.903  1.00  0.00     0.209 C 
ENDBRANCH   1  35
TORSDOF 11
ENDMDL
MODEL 2
REMARK VINA RESULT: -5.511323168      0.204      2.096
REMARK  11 active torsions:
REMARK  status: ('A' for Active; 'I' for Inactive)
REMARK    1  A    between atoms: O1_2  and  C2_3 
REMARK    2  A    between atoms: C6_8  and  N2_11 
REMARK    3  A    between atoms: C9_16  and  N4_17 
REMARK    4  A    between atoms: N4_17  and  C10_18 
REMARK    5  A    between atoms: N4_17  and  C12_22 
REMARK    6  A    between atoms: C10_18  and  C11_19 
REMARK    7  A    between atoms: C11_19  and  O3_20 
REMARK    8  A    between atoms: C12_22  and  C13_23 
REMARK    9  A    between atoms: C13_23  and  O4_24 
REMARK   10  A    between atoms: C14_28  and  N6_29 
REMARK   11  A    between atoms: N6_29  and  N7_31 
ROOT
HETATM    1  C2  UNL     1      15.288 -48.436  10.725  1.00  0.00     0.059 C 
HETATM    2  C3  UNL     1      15.821 -49.370   9.965  1.00  0.00     0.017 C 
HETATM    3  C4  UNL     1      16.351 -50.690  10.480  1.00  0.00     0.055 C 
HETATM    4  C5  UNL     1      15.816 -48.913   8.588  1.00  0.00     0.201 C 
HETATM    5  O2  UNL     1      16.569 -49.409   7.684  1.00  0.00    -0.289 OA
HETATM    6  C6  UNL     1      14.810 -47.825   8.492  1.00  0.00     0.206 C 
HETATM    7  C7  UNL     1      13.459 -48.365   8.245  1.00  0.00     0.100 C 
HETATM    8  N1  UNL     1      12.402 -48.765   8.060  1.00  0.00    -0.194 NA
HETATM    9  C15 UNL     1      14.872 -47.280   9.925  1.00  0.00     0.121 C 
ENDROOT
BRANCH   6  10
HETATM   10  N2  UNL     1      15.239 -46.840   7.599  1.00  0.00    -0.195 N 
HETATM   11  C8  UNL     1      15.383 -46.750   6.354  1.00  0.00     0.709 A 
HETATM   12  N3  UNL     1      15.851 -45.568   5.816  1.00  0.00    -0.021 N 
HETATM   13  N8  UNL     1      15.098 -47.762   5.529  1.00  0.00    -0.020 N 
HETATM   14  C9  UNL     1      16.022 -45.422   4.511  1.00  0.00     0.709 A 
ATOM     15  H3  UNL     1      16.071 -44.789   6.437  1.00  0.00     0.203 HD
HETATM   16  N5  UNL     1      15.737 -46.435   3.694  1.00  0.00    -0.020 N 
HETATM   17  C14 UNL     1      15.281 -47.592   4.186  1.00  0.00     0.725 A 
ATOM     18  H5  UNL     1      15.867 -46.328   2.688  1.00  0.00     0.203 HD
ATOM     19  H8  UNL     1      14.749 -48.647   5.896  1.00  0.00     0.203 HD
ATOM     20  H2  UNL     1      15.501 -45.979   8.077  1.00  0.00     0.180 HD
BRANCH  14  21
HETATM   21  N4  UNL     1      16.460 -44.185   3.979  1.00  0.00    -0.213 N 
BRANCH  21  22
HETATM   22  C10 UNL     1      17.894 -43.872   4.130  1.00  0.00     0.167 C 
BRANCH  22  23
HETATM   23  C11 UNL     1      18.137 -42.774   5.134  1.00  0.00     0.184 C 
BRANCH  23  24
HETATM   24  O3  UNL     1      19.025 -43.329   6.083  1.00  0.00    -0.399 OA
ATOM     25  H3  UNL     1      19.865 -42.922   5.906  1.00  0.00     0.209 HD
ENDBRANCH  23  24
ENDBRANCH  22  23
ENDBRANCH  21  22
BRANCH  21  26
HETATM   26  C12 UNL     1      15.704 -43.197   3.302  1.00  0.00     0.167 C 
BRANCH  26  27
HETATM   27  C13 UNL     1      14.269 -43.418   3.046  1.00  0.00     0.184 C 
BRANCH  27  28
HETATM   28  O4  UNL     1      13.558 -44.036   4.073  1.00  0.00    -0.399 OA
ATOM     29  H4  UNL     1      12.785 -44.520   3.808  1.00  0.00     0.209 HD
ENDBRANCH  27  28
ENDBRANCH  26  27
ENDBRANCH  21  26
ENDBRANCH  14  21
BRANCH  17  30
HETATM   30  N6  UNL     1      14.995 -48.595   3.430  1.00  0.00    -0.138 N 
ATOM     31  H6  UNL     1      14.516 -49.403   3.825  1.00  0.00     0.205 HD
BRANCH  30  32
HETATM   32  N7  UNL     1      15.328 -48.586   2.097  1.00  0.00    -0.331 N 
ATOM     33  H72 UNL     1      15.346 -49.472   1.592  1.00  0.00     0.177 HD
ATOM     34  H71 UNL     1      15.554 -47.712   1.622  1.00  0.00     0.177 HD
ENDBRANCH  30  32
ENDBRANCH  17  30
ENDBRANCH   6  10
BRANCH   1  35
HETATM   35  O1  UNL     1      15.135 -48.531  12.128  1.00  0.00    -0.359 OA
HETATM   36  C1  UNL     1      15.525 -47.459  12.940  1.00  0.00     0.209 C 
ENDBRANCH   1  35
TORSDOF 11
ENDMDL
MODEL 3
REMARK VINA RESULT: -4.834822021     12.304     14.980
REMARK  11 active torsions:
REMARK  status: ('A' for Active; 'I' for Inactive)
REMARK    1  A    between atoms: O1_2  and  C2_3 
REMARK    2  A    between atoms: C6_8  and  N2_11 
REMARK    3  A    between atoms: C9_16  and  N4_17 
REMARK    4  A    between atoms: N4_17  and  C10_18 
REMARK    5  A    between atoms: N4_17  and  C12_22 
REMARK    6  A    between atoms: C10_18  and  C11_19 
REMARK    7  A    between atoms: C11_19  and  O3_20 
REMARK    8  A    between atoms: C12_22  and  C13_23 
REMARK    9  A    between atoms: C13_23  and  O4_24 
REMARK   10  A    between atoms: C14_28  and  N6_29 
REMARK   11  A    between atoms: N6_29  and  N7_31 
ROOT
HETATM    1  C2  UNL     1       9.561 -37.455  15.164  1.00  0.00     0.059 C 
HETATM    2  C3  UNL     1       9.903 -37.039  16.367  1.00  0.00     0.017 C 
HETATM    3  C4  UNL     1      10.595 -35.726  16.652  1.00  0.00     0.055 C 
HETATM    4  C5  UNL     1       9.514 -38.046  17.337  1.00  0.00     0.201 C 
HETATM    5  O2  UNL     1      10.014 -38.116  18.510  1.00  0.00    -0.289 OA
HETATM    6  C6  UNL     1       8.483 -38.899  16.694  1.00  0.00     0.206 C 
HETATM    7  C7  UNL     1       7.135 -38.323  16.854  1.00  0.00     0.100 C 
HETATM    8  N1  UNL     1       6.080 -37.889  16.963  1.00  0.00    -0.194 NA
HETATM    9  C15 UNL     1       8.908 -38.765  15.225  1.00  0.00     0.121 C 
ENDROOT
BRANCH   6  10
HETATM   10  N2  UNL     1       8.625 -40.228  17.101  1.00  0.00    -0.195 N 
HETATM   11  C8  UNL     1       8.250 -41.348  16.675  1.00  0.00     0.709 A 
HETATM   12  N3  UNL     1       8.597 -42.485  17.377  1.00  0.00    -0.021 N 
HETATM   13  N8  UNL     1       7.523 -41.480  15.561  1.00  0.00    -0.020 N 
HETATM   14  C9  UNL     1       8.226 -43.690  16.971  1.00  0.00     0.709 A 
ATOM     15  H3  UNL     1       9.153 -42.396  18.229  1.00  0.00     0.203 HD
HETATM   16  N5  UNL     1       7.501 -43.813  15.860  1.00  0.00    -0.020 N 
HETATM   17  C14 UNL     1       7.149 -42.731  15.159  1.00  0.00     0.725 A 
ATOM     18  H5  UNL     1       7.212 -44.739  15.544  1.00  0.00     0.203 HD
ATOM     19  H8  UNL     1       7.252 -40.660  15.020  1.00  0.00     0.203 HD
ATOM     20  H2  UNL     1       9.170 -40.309  17.960  1.00  0.00     0.180 HD
BRANCH  14  21
HETATM   21  N4  UNL     1       8.633 -44.843  17.683  1.00  0.00    -0.213 N 
BRANCH  21  22
HETATM   22  C10 UNL     1       9.431 -44.619  18.905  1.00  0.00     0.167 C 
BRANCH  22  23
HETATM   23  C11 UNL     1      10.449 -45.707  19.131  1.00  0.00     0.184 C 
BRANCH  23  24
HETATM   24  O3  UNL     1      11.486 -45.095  19.870  1.00  0.00    -0.399 OA
ATOM     25  H3  UNL     1      12.199 -45.723  19.867  1.00  0.00     0.209 HD
ENDBRANCH  23  24
ENDBRANCH  22  23
ENDBRANCH  21  22
BRANCH  21  26
HETATM   26  C12 UNL     1       8.368 -46.203  17.389  1.00  0.00     0.167 C 
BRANCH  26  27
HETATM   27  C13 UNL     1       7.067 -46.793  17.755  1.00  0.00     0.184 C 
BRANCH  27  28
HETATM   28  O4  UNL     1       6.726 -47.969  17.090  1.00  0.00    -0.399 OA
ATOM     29  H4  UNL     1       5.843 -48.007  16.742  1.00  0.00     0.209 HD
ENDBRANCH  27  28
ENDBRANCH  26  27
ENDBRANCH  21  26
ENDBRANCH  14  21
BRANCH  17  30
HETATM   30  N6  UNL     1       6.448 -42.808  14.081  1.00  0.00    -0.138 N 
ATOM     31  H6  UNL     1       5.572 -42.292  14.011  1.00  0.00     0.205 HD
BRANCH  30  32
HETATM   32  N7  UNL     1       6.869 -43.579  13.024  1.00  0.00    -0.331 N 
ATOM     33  H72 UNL     1       7.267 -43.115  12.208  1.00  0.00     0.177 HD
ATOM     34  H71 UNL     1       6.786 -44.596  13.055  1.00  0.00     0.177 HD
ENDBRANCH  30  32
ENDBRANCH  17  30
ENDBRANCH   6  10
BRANCH   1  35
HETATM   35  O1  UNL     1       9.793 -36.734  13.969  1.00  0.00    -0.359 OA
HETATM   36  C1  UNL     1       8.705 -36.265  13.223  1.00  0.00     0.209 C 
ENDBRANCH   1  35
TORSDOF 11
ENDMDL
MODEL 4
REMARK VINA RESULT: -4.565144534      2.155      7.122
REMARK  11 active torsions:
REMARK  status: ('A' for Active; 'I' for Inactive)
REMARK    1  A    between atoms: O1_2  and  C2_3 
REMARK    2  A    between atoms: C6_8  and  N2_11 
REMARK    3  A    between atoms: C9_16  and  N4_17 
REMARK    4  A    between atoms: N4_17  and  C10_18 
REMARK    5  A    between atoms: N4_17  and  C12_22 
REMARK    6  A    between atoms: C10_18  and  C11_19 
REMARK    7  A    between atoms: C11_19  and  O3_20 
REMARK    8  A    between atoms: C12_22  and  C13_23 
REMARK    9  A    between atoms: C13_23  and  O4_24 
REMARK   10  A    between atoms: C14_28  and  N6_29 
REMARK   11  A    between atoms: N6_29  and  N7_31 
ROOT
HETATM    1  C2  UNL     1      14.530 -44.766   3.565  1.00  0.00     0.059 C 
HETATM    2  C3  UNL     1      15.067 -45.919   3.222  1.00  0.00     0.017 C 
HETATM    3  C4  UNL     1      14.884 -46.578   1.873  1.00  0.00     0.055 C 
HETATM    4  C5  UNL     1      15.835 -46.431   4.342  1.00  0.00     0.201 C 
HETATM    5  O2  UNL     1      16.166 -47.659   4.460  1.00  0.00    -0.289 OA
HETATM    6  C6  UNL     1      16.119 -45.282   5.239  1.00  0.00     0.206 C 
HETATM    7  C7  UNL     1      17.338 -44.565   4.819  1.00  0.00     0.100 C 
HETATM    8  N1  UNL     1      18.279 -43.991   4.507  1.00  0.00    -0.194 NA
HETATM    9  C15 UNL     1      14.898 -44.403   4.937  1.00  0.00     0.121 C 
ENDROOT
BRANCH   6  10
HETATM   10  N2  UNL     1      16.085 -45.686   6.576  1.00  0.00    -0.195 N 
HETATM   11  C8  UNL     1      15.380 -46.464   7.266  1.00  0.00     0.709 A 
HETATM   12  N3  UNL     1      15.659 -46.607   8.611  1.00  0.00    -0.021 N 
HETATM   13  N8  UNL     1      14.366 -47.160   6.744  1.00  0.00    -0.020 N 
HETATM   14  C9  UNL     1      14.947 -47.413   9.383  1.00  0.00     0.709 A 
ATOM     15  H3  UNL     1      16.432 -46.081   9.019  1.00  0.00     0.203 HD
HETATM   16  N5  UNL     1      13.936 -48.103   8.856  1.00  0.00    -0.020 N 
HETATM   17  C14 UNL     1      13.642 -47.985   7.557  1.00  0.00     0.725 A 
ATOM     18  H5  UNL     1      13.384 -48.725   9.447  1.00  0.00     0.203 HD
ATOM     19  H8  UNL     1      14.136 -47.076   5.754  1.00  0.00     0.203 HD
ATOM     20  H2  UNL     1      16.813 -45.237   7.130  1.00  0.00     0.180 HD
BRANCH  14  21
HETATM   21  N4  UNL     1      15.281 -47.578  10.748  1.00  0.00    -0.213 N 
BRANCH  21  22
HETATM   22  C10 UNL     1      15.111 -46.398  11.618  1.00  0.00     0.167 C 
BRANCH  22  23
HETATM   23  C11 UNL     1      15.863 -46.531  12.917  1.00  0.00     0.184 C 
BRANCH  23  24
HETATM   24  O3  UNL     1      15.518 -45.383  13.664  1.00  0.00    -0.399 OA
ATOM     25  H3  UNL     1      14.582 -45.277  13.540  1.00  0.00     0.209 HD
ENDBRANCH  23  24
ENDBRANCH  22  23
ENDBRANCH  21  22
BRANCH  21  26
HETATM   26  C12 UNL     1      15.752 -48.739  11.409  1.00  0.00     0.167 C 
BRANCH  26  27
HETATM   27  C13 UNL     1      15.715 -50.042  10.719  1.00  0.00     0.184 C 
BRANCH  27  28
HETATM   28  O4  UNL     1      16.328 -51.100  11.388  1.00  0.00    -0.399 OA
ATOM     29  H4  UNL     1      16.953 -51.604  10.880  1.00  0.00     0.209 HD
ENDBRANCH  27  28
ENDBRANCH  26  27
ENDBRANCH  21  26
ENDBRANCH  14  21
BRANCH  17  30
HETATM   30  N6  UNL     1      12.674 -48.635   7.010  1.00  0.00    -0.138 N 
ATOM     31  H6  UNL     1      11.967 -49.075   7.598  1.00  0.00     0.205 HD
BRANCH  30  32
HETATM   32  N7  UNL     1      12.583 -48.740   5.643  1.00  0.00    -0.331 N 
ATOM     33  H72 UNL     1      13.377 -48.445   5.076  1.00  0.00     0.177 HD
ATOM     34  H71 UNL     1      11.738 -49.107   5.204  1.00  0.00     0.177 HD
ENDBRANCH  30  32
ENDBRANCH  17  30
ENDBRANCH   6  10
BRANCH   1  35
HETATM   35  O1  UNL     1      13.707 -43.981   2.725  1.00  0.00    -0.359 OA
HETATM   36  C1  UNL     1      12.670 -43.225   3.285  1.00  0.00     0.209 C 
ENDBRANCH   1  35
TORSDOF 11
ENDMDL
MODEL 5
REMARK VINA RESULT: -4.520614402      2.209      7.242
REMARK  11 active torsions:
REMARK  status: ('A' for Active; 'I' for Inactive)
REMARK    1  A    between atoms: O1_2  and  C2_3 
REMARK    2  A    between atoms: C6_8  and  N2_11 
REMARK    3  A    between atoms: C9_16  and  N4_17 
REMARK    4  A    between atoms: N4_17  and  C10_18 
REMARK    5  A    between atoms: N4_17  and  C12_22 
REMARK    6  A    between atoms: C10_18  and  C11_19 
REMARK    7  A    between atoms: C11_19  and  O3_20 
REMARK    8  A    between atoms: C12_22  and  C13_23 
REMARK    9  A    between atoms: C13_23  and  O4_24 
REMARK   10  A    between atoms: C14_28  and  N6_29 
REMARK   11  A    between atoms: N6_29  and  N7_31 
ROOT
HETATM    1  C2  UNL     1      17.879 -43.602   4.465  1.00  0.00     0.059 C 
HETATM    2  C3  UNL     1      17.600 -42.575   5.242  1.00  0.00     0.017 C 
HETATM    3  C4  UNL     1      18.070 -41.161   4.989  1.00  0.00     0.055 C 
HETATM    4  C5  UNL     1      16.793 -43.037   6.357  1.00  0.00     0.201 C 
HETATM    5  O2  UNL     1      16.668 -42.384   7.447  1.00  0.00    -0.289 OA
HETATM    6  C6  UNL     1      16.198 -44.337   5.957  1.00  0.00     0.206 C 
HETATM    7  C7  UNL     1      14.938 -44.144   5.214  1.00  0.00     0.100 C 
HETATM    8  N1  UNL     1      13.961 -44.015   4.630  1.00  0.00    -0.194 NA
HETATM    9  C15 UNL     1      17.276 -44.834   4.984  1.00  0.00     0.121 C 
ENDROOT
BRANCH   6  10
HETATM   10  N2  UNL     1      16.126 -45.200   7.054  1.00  0.00    -0.195 N 
HETATM   11  C8  UNL     1      15.413 -46.178   7.388  1.00  0.00     0.709 A 
HETATM   12  N3  UNL     1      15.650 -46.800   8.598  1.00  0.00    -0.021 N 
HETATM   13  N8  UNL     1      14.428 -46.640   6.613  1.00  0.00    -0.020 N 
HETATM   14  C9  UNL     1      14.927 -47.834   8.998  1.00  0.00     0.709 A 
ATOM     15  H3  UNL     1      16.401 -46.456   9.197  1.00  0.00     0.203 HD
HETATM   16  N5  UNL     1      13.945 -48.289   8.220  1.00  0.00    -0.020 N 
HETATM   17  C14 UNL     1      13.691 -47.707   7.043  1.00  0.00     0.725 A 
ATOM     18  H5  UNL     1      13.384 -49.085   8.524  1.00  0.00     0.203 HD
ATOM     19  H8  UNL     1      14.228 -46.203   5.713  1.00  0.00     0.203 HD
ATOM     20  H2  UNL     1      16.829 -44.981   7.759  1.00  0.00     0.180 HD
BRANCH  14  21
HETATM   21  N4  UNL     1      15.219 -48.484  10.221  1.00  0.00    -0.213 N 
BRANCH  21  22
HETATM   22  C10 UNL     1      15.516 -49.927  10.148  1.00  0.00     0.167 C 
BRANCH  22  23
HETATM   23  C11 UNL     1      15.649 -50.554  11.512  1.00  0.00     0.184 C 
BRANCH  23  24
HETATM   24  O3  UNL     1      16.440 -51.708  11.313  1.00  0.00    -0.399 OA
ATOM     25  H3  UNL     1      16.684 -51.996  12.185  1.00  0.00     0.209 HD
ENDBRANCH  23  24
ENDBRANCH  22  23
ENDBRANCH  21  22
BRANCH  21  26
HETATM   26  C12 UNL     1      15.278 -47.930  11.524  1.00  0.00     0.167 C 
BRANCH  26  27
HETATM   27  C13 UNL     1      15.286 -46.467  11.700  1.00  0.00     0.184 C 
BRANCH  27  28
HETATM   28  O4  UNL     1      15.305 -46.014  13.018  1.00  0.00    -0.399 OA
ATOM     29  H4  UNL     1      15.237 -46.685  13.686  1.00  0.00     0.209 HD
ENDBRANCH  27  28
ENDBRANCH  26  27
ENDBRANCH  21  26
ENDBRANCH  14  21
BRANCH  17  30
HETATM   30  N6  UNL     1      12.752 -48.116   6.263  1.00  0.00    -0.138 N 
ATOM     31  H6  UNL     1      11.902 -48.512   6.662  1.00  0.00     0.205 HD
BRANCH  30  32
HETATM   32  N7  UNL     1      12.883 -48.025   4.898  1.00  0.00    -0.331 N 
ATOM     33  H72 UNL     1      13.820 -47.978   4.499  1.00  0.00     0.177 HD
ATOM     34  H71 UNL     1      12.060 -48.005   4.296  1.00  0.00     0.177 HD
ENDBRANCH  30  32
ENDBRANCH  17  30
ENDBRANCH   6  10
BRANCH   1  35
HETATM   35  O1  UNL     1      18.656 -43.530   3.286  1.00  0.00    -0.359 OA
HETATM   36  C1  UNL     1      20.028 -43.798   3.345  1.00  0.00     0.209 C 
ENDBRANCH   1  35
TORSDOF 11
ENDMDL
