MODEL 1
REMARK VINA RESULT: -6.838196466      0.000      0.000
REMARK  10 active torsions:
REMARK  status: ('A' for Active; 'I' for Inactive)
REMARK    1  A    between atoms: O1_2  and  C2_3 
REMARK    2  A    between atoms: C2_3  and  O2_4 
REMARK    3  A    between atoms: O2_4  and  C3_5 
REMARK    4  A    between atoms: C3_5  and  C4_7 
REMARK    5  A    between atoms: C13_18  and  O5_19 
REMARK    6  A    between atoms: C13_18  and  C14_27 
REMARK    7  A    between atoms: O5_19  and  N1_20 
REMARK    8  A    between atoms: N1_20  and  N2_21 
REMARK    9  A    between atoms: N1_20  and  N3_24 
REMARK       I    between atoms: C14_27  and  N4_29 
REMARK   10  A    between atoms: N4_29  and  N5_31 
ROOT
HETATM    1  C4  UNL     1      15.683 -45.584   4.449  1.00  0.00     0.166 C 
HETATM    2  C5  UNL     1      15.052 -46.690   5.239  1.00  0.00     0.035 C 
HETATM    3  C6  UNL     1      13.663 -46.459   5.695  1.00  0.00     0.008 C 
HETATM    4  C7  UNL     1      13.244 -47.254   6.909  1.00  0.00     0.001 C 
HETATM    5  C8  UNL     1      13.534 -48.723   6.788  1.00  0.00     0.001 C 
HETATM    6  C9  UNL     1      14.134 -49.307   8.041  1.00  0.00     0.010 C 
HETATM    7  C10 UNL     1      15.618 -49.390   8.022  1.00  0.00     0.074 C 
HETATM    8  S1  UNL     1      16.370 -49.276   6.408  1.00  0.00    -0.167 SA
HETATM    9  C11 UNL     1      17.109 -47.640   6.126  1.00  0.00     0.106 C 
HETATM   10  C12 UNL     1      15.977 -46.652   6.450  1.00  0.00     0.140 C 
HETATM   11  O4  UNL     1      16.393 -45.385   6.650  1.00  0.00    -0.339 OA
HETATM   12  C13 UNL     1      16.163 -44.611   5.481  1.00  0.00     0.284 C 
ENDROOT
BRANCH  12  13
HETATM   13  O5  UNL     1      15.294 -43.642   5.877  1.00  0.00    -0.215 OA
BRANCH  13  14
HETATM   14  N1  UNL     1      15.307 -43.185   7.099  1.00  0.00    -0.012 NA
BRANCH  14  15
HETATM   15  N2  UNL     1      16.465 -42.501   7.478  1.00  0.00    -0.322 NA
ATOM     16  H22 UNL     1      17.216 -43.079   7.103  1.00  0.00     0.175 HD
ATOM     17  H21 UNL     1      16.564 -41.558   7.101  1.00  0.00     0.175 HD
ENDBRANCH  14  15
BRANCH  14  18
HETATM   18  N3  UNL     1      15.266 -44.291   7.995  1.00  0.00    -0.322 NA
ATOM     19  H32 UNL     1      14.673 -43.959   8.756  1.00  0.00     0.175 HD
ATOM     20  H31 UNL     1      16.222 -44.533   8.254  1.00  0.00     0.175 HD
ENDBRANCH  14  18
ENDBRANCH  13  14
ENDBRANCH  12  13
BRANCH  12  21
HETATM   21  C14 UNL     1      17.512 -44.079   5.136  1.00  0.00     0.301 C 
HETATM   22  O6  UNL     1      17.968 -44.192   3.964  1.00  0.00    -0.265 OA
HETATM   23  N4  UNL     1      18.331 -43.432   6.102  1.00  0.00    -0.272 N 
ATOM     24  H4  UNL     1      17.984 -43.329   7.055  1.00  0.00     0.189 HD
BRANCH  23  25
HETATM   25  N5  UNL     1      19.596 -42.935   5.782  1.00  0.00    -0.342 N 
ATOM     26  H52 UNL     1      20.121 -43.400   5.042  1.00  0.00     0.176 HD
ATOM     27  H51 UNL     1      19.997 -42.131   6.266  1.00  0.00     0.176 HD
ENDBRANCH  23  25
ENDBRANCH  12  21
BRANCH   1  28
HETATM   28  C3  UNL     1      14.928 -45.081   3.327  1.00  0.00     0.271 C 
HETATM   29  O3  UNL     1      14.413 -43.918   3.255  1.00  0.00    -0.265 OA
BRANCH  28  30
HETATM   30  O2  UNL     1      14.696 -45.855   2.194  1.00  0.00    -0.295 OA
BRANCH  30  31
HETATM   31  C2  UNL     1      14.668 -47.269   2.221  1.00  0.00     0.347 C 
BRANCH  31  32
HETATM   32  O1  UNL     1      15.223 -47.829   1.085  1.00  0.00    -0.371 OA
HETATM   33  C1  UNL     1      15.472 -49.164   1.319  1.00  0.00     0.204 C 
ENDBRANCH  31  32
ENDBRANCH  30  31
ENDBRANCH  28  30
ENDBRANCH   1  28
TORSDOF 10
ENDMDL
MODEL 2
REMARK VINA RESULT: -6.169261252      4.314      6.587
REMARK  10 active torsions:
REMARK  status: ('A' for Active; 'I' for Inactive)
REMARK    1  A    between atoms: O1_2  and  C2_3 
REMARK    2  A    between atoms: C2_3  and  O2_4 
REMARK    3  A    between atoms: O2_4  and  C3_5 
REMARK    4  A    between atoms: C3_5  and  C4_7 
REMARK    5  A    between atoms: C13_18  and  O5_19 
REMARK    6  A    between atoms: C13_18  and  C14_27 
REMARK    7  A    between atoms: O5_19  and  N1_20 
REMARK    8  A    between atoms: N1_20  and  N2_21 
REMARK    9  A    between atoms: N1_20  and  N3_24 
REMARK       I    between atoms: C14_27  and  N4_29 
REMARK   10  A    between atoms: N4_29  and  N5_31 
ROOT
HETATM    1  C4  UNL     1      15.216 -47.004   8.328  1.00  0.00     0.166 C 
HETATM    2  C5  UNL     1      15.045 -46.060   7.177  1.00  0.00     0.035 C 
HETATM    3  C6  UNL     1      13.657 -45.642   6.874  1.00  0.00     0.008 C 
HETATM    4  C7  UNL     1      13.418 -45.191   5.453  1.00  0.00     0.001 C 
HETATM    5  C8  UNL     1      14.405 -44.162   4.979  1.00  0.00     0.001 C 
HETATM    6  C9  UNL     1      14.914 -44.435   3.587  1.00  0.00     0.010 C 
HETATM    7  C10 UNL     1      16.210 -45.161   3.545  1.00  0.00     0.074 C 
HETATM    8  S1  UNL     1      17.153 -45.130   5.060  1.00  0.00    -0.167 SA
HETATM    9  C11 UNL     1      17.043 -46.710   5.951  1.00  0.00     0.106 C 
HETATM   10  C12 UNL     1      15.534 -46.978   6.063  1.00  0.00     0.140 C 
HETATM   11  O4  UNL     1      15.222 -48.252   6.372  1.00  0.00    -0.339 OA
HETATM   12  C13 UNL     1      14.914 -48.353   7.755  1.00  0.00     0.284 C 
ENDROOT
BRANCH  12  13
HETATM   13  O5  UNL     1      13.620 -48.771   7.788  1.00  0.00    -0.215 OA
BRANCH  13  14
HETATM   14  N1  UNL     1      13.148 -49.576   6.876  1.00  0.00    -0.012 NA
BRANCH  14  15
HETATM   15  N2  UNL     1      12.570 -48.957   5.764  1.00  0.00    -0.322 NA
ATOM     16  H22 UNL     1      12.469 -49.719   5.094  1.00  0.00     0.175 HD
ATOM     17  H21 UNL     1      11.652 -48.540   5.919  1.00  0.00     0.175 HD
ENDBRANCH  14  15
BRANCH  14  18
HETATM   18  N3  UNL     1      12.073 -50.319   7.440  1.00  0.00    -0.322 NA
ATOM     19  H32 UNL     1      12.144 -50.119   8.438  1.00  0.00     0.175 HD
ATOM     20  H31 UNL     1      12.183 -51.298   7.177  1.00  0.00     0.175 HD
ENDBRANCH  14  18
ENDBRANCH  13  14
ENDBRANCH  12  13
BRANCH  12  21
HETATM   21  C14 UNL     1      15.871 -49.381   8.257  1.00  0.00     0.301 C 
HETATM   22  O6  UNL     1      16.733 -49.887   7.486  1.00  0.00    -0.265 OA
HETATM   23  N4  UNL     1      15.851 -49.827   9.606  1.00  0.00    -0.272 N 
ATOM     24  H4  UNL     1      15.164 -49.432  10.248  1.00  0.00     0.189 HD
BRANCH  23  25
HETATM   25  N5  UNL     1      16.745 -50.790  10.078  1.00  0.00    -0.342 N 
ATOM     26  H52 UNL     1      17.732 -50.540  10.138  1.00  0.00     0.176 HD
ATOM     27  H51 UNL     1      16.436 -51.721  10.358  1.00  0.00     0.176 HD
ENDBRANCH  23  25
ENDBRANCH  12  21
BRANCH   1  28
HETATM   28  C3  UNL     1      14.587 -46.627   9.571  1.00  0.00     0.271 C 
HETATM   29  O3  UNL     1      13.443 -47.028   9.962  1.00  0.00    -0.265 OA
BRANCH  28  30
HETATM   30  O2  UNL     1      15.204 -45.764  10.472  1.00  0.00    -0.295 OA
BRANCH  30  31
HETATM   31  C2  UNL     1      15.042 -45.871  11.872  1.00  0.00     0.347 C 
BRANCH  31  32
HETATM   32  O1  UNL     1      16.103 -46.518  12.479  1.00  0.00    -0.371 OA
HETATM   33  C1  UNL     1      15.853 -47.873  12.495  1.00  0.00     0.204 C 
ENDBRANCH  31  32
ENDBRANCH  30  31
ENDBRANCH  28  30
ENDBRANCH   1  28
TORSDOF 10
ENDMDL
MODEL 3
REMARK VINA RESULT: -6.106675266      3.962      6.188
REMARK  10 active torsions:
REMARK  status: ('A' for Active; 'I' for Inactive)
REMARK    1  A    between atoms: O1_2  and  C2_3 
REMARK    2  A    between atoms: C2_3  and  O2_4 
REMARK    3  A    between atoms: O2_4  and  C3_5 
REMARK    4  A    between atoms: C3_5  and  C4_7 
REMARK    5  A    between atoms: C13_18  and  O5_19 
REMARK    6  A    between atoms: C13_18  and  C14_27 
REMARK    7  A    between atoms: O5_19  and  N1_20 
REMARK    8  A    between atoms: N1_20  and  N2_21 
REMARK    9  A    between atoms: N1_20  and  N3_24 
REMARK       I    between atoms: C14_27  and  N4_29 
REMARK   10  A    between atoms: N4_29  and  N5_31 
ROOT
HETATM    1  C4  UNL     1      15.033 -47.095   7.109  1.00  0.00     0.166 C 
HETATM    2  C5  UNL     1      14.799 -45.905   6.230  1.00  0.00     0.035 C 
HETATM    3  C6  UNL     1      13.502 -45.862   5.518  1.00  0.00     0.008 C 
HETATM    4  C7  UNL     1      13.488 -45.029   4.258  1.00  0.00     0.001 C 
HETATM    5  C8  UNL     1      14.042 -43.647   4.451  1.00  0.00     0.001 C 
HETATM    6  C9  UNL     1      14.972 -43.227   3.342  1.00  0.00     0.010 C 
HETATM    7  C10 UNL     1      16.412 -43.445   3.640  1.00  0.00     0.074 C 
HETATM    8  S1  UNL     1      16.809 -43.668   5.366  1.00  0.00    -0.167 SA
HETATM    9  C11 UNL     1      17.135 -45.412   5.759  1.00  0.00     0.106 C 
HETATM   10  C12 UNL     1      15.907 -46.159   5.215  1.00  0.00     0.140 C 
HETATM   11  O4  UNL     1      16.087 -47.488   5.079  1.00  0.00    -0.339 OA
HETATM   12  C13 UNL     1      15.490 -48.171   6.173  1.00  0.00     0.284 C 
ENDROOT
BRANCH  12  13
HETATM   13  O5  UNL     1      14.532 -48.954   5.607  1.00  0.00    -0.215 OA
BRANCH  13  14
HETATM   14  N1  UNL     1      13.782 -48.506   4.638  1.00  0.00    -0.012 NA
BRANCH  14  15
HETATM   15  N2  UNL     1      12.486 -49.025   4.588  1.00  0.00    -0.322 NA
ATOM     16  H22 UNL     1      11.913 -48.214   4.356  1.00  0.00     0.175 HD
ATOM     17  H21 UNL     1      12.326 -49.746   3.884  1.00  0.00     0.175 HD
ENDBRANCH  14  15
BRANCH  14  18
HETATM   18  N3  UNL     1      14.352 -48.914   3.399  1.00  0.00    -0.322 NA
ATOM     19  H32 UNL     1      13.539 -49.085   2.808  1.00  0.00     0.175 HD
ATOM     20  H31 UNL     1      14.951 -49.722   3.570  1.00  0.00     0.175 HD
ENDBRANCH  14  18
ENDBRANCH  13  14
ENDBRANCH  12  13
BRANCH  12  21
HETATM   21  C14 UNL     1      16.615 -48.955   6.758  1.00  0.00     0.301 C 
HETATM   22  O6  UNL     1      17.771 -48.894   6.254  1.00  0.00    -0.265 OA
HETATM   23  N4  UNL     1      16.433 -49.794   7.891  1.00  0.00    -0.272 N 
ATOM     24  H4  UNL     1      15.508 -49.859   8.316  1.00  0.00     0.189 HD
BRANCH  23  25
HETATM   25  N5  UNL     1      17.485 -50.531   8.440  1.00  0.00    -0.342 N 
ATOM     26  H52 UNL     1      18.246 -50.021   8.886  1.00  0.00     0.176 HD
ATOM     27  H51 UNL     1      17.505 -51.550   8.402  1.00  0.00     0.176 HD
ENDBRANCH  23  25
ENDBRANCH  12  21
BRANCH   1  28
HETATM   28  C3  UNL     1      13.996 -47.407   8.063  1.00  0.00     0.271 C 
HETATM   29  O3  UNL     1      12.975 -48.130   7.821  1.00  0.00    -0.265 OA
BRANCH  28  30
HETATM   30  O2  UNL     1      14.031 -46.925   9.367  1.00  0.00    -0.295 OA
BRANCH  30  31
HETATM   31  C2  UNL     1      15.210 -46.899  10.147  1.00  0.00     0.347 C 
BRANCH  31  32
HETATM   32  O1  UNL     1      15.189 -45.900  11.103  1.00  0.00    -0.371 OA
HETATM   33  C1  UNL     1      15.533 -46.440  12.323  1.00  0.00     0.204 C 
ENDBRANCH  31  32
ENDBRANCH  30  31
ENDBRANCH  28  30
ENDBRANCH   1  28
TORSDOF 10
ENDMDL
MODEL 4
REMARK VINA RESULT: -5.739169074      3.572      5.715
REMARK  10 active torsions:
REMARK  status: ('A' for Active; 'I' for Inactive)
REMARK    1  A    between atoms: O1_2  and  C2_3 
REMARK    2  A    between atoms: C2_3  and  O2_4 
REMARK    3  A    between atoms: O2_4  and  C3_5 
REMARK    4  A    between atoms: C3_5  and  C4_7 
REMARK    5  A    between atoms: C13_18  and  O5_19 
REMARK    6  A    between atoms: C13_18  and  C14_27 
REMARK    7  A    between atoms: O5_19  and  N1_20 
REMARK    8  A    between atoms: N1_20  and  N2_21 
REMARK    9  A    between atoms: N1_20  and  N3_24 
REMARK       I    between atoms: C14_27  and  N4_29 
REMARK   10  A    between atoms: N4_29  and  N5_31 
ROOT
HETATM    1  C4  UNL     1      16.038 -46.964   5.123  1.00  0.00     0.166 C 
HETATM    2  C5  UNL     1      16.370 -45.671   5.802  1.00  0.00     0.035 C 
HETATM    3  C6  UNL     1      15.507 -45.290   6.942  1.00  0.00     0.008 C 
HETATM    4  C7  UNL     1      15.459 -43.810   7.245  1.00  0.00     0.001 C 
HETATM    5  C8  UNL     1      16.818 -43.182   7.365  1.00  0.00     0.001 C 
HETATM    6  C9  UNL     1      16.918 -41.860   6.649  1.00  0.00     0.010 C 
HETATM    7  C10 UNL     1      17.488 -41.951   5.280  1.00  0.00     0.074 C 
HETATM    8  S1  UNL     1      18.392 -43.449   4.927  1.00  0.00    -0.167 SA
HETATM    9  C11 UNL     1      17.425 -44.590   3.895  1.00  0.00     0.106 C 
HETATM   10  C12 UNL     1      16.087 -44.730   4.637  1.00  0.00     0.140 C 
HETATM   11  O4  UNL     1      15.092 -45.243   3.886  1.00  0.00    -0.339 OA
HETATM   12  C13 UNL     1      14.920 -46.621   4.187  1.00  0.00     0.284 C 
ENDROOT
BRANCH  12  13
HETATM   13  O5  UNL     1      13.651 -46.711   4.670  1.00  0.00    -0.215 OA
BRANCH  13  14
HETATM   14  N1  UNL     1      13.197 -47.830   5.164  1.00  0.00    -0.012 NA
BRANCH  14  15
HETATM   15  N2  UNL     1      12.348 -48.560   4.328  1.00  0.00    -0.322 NA
ATOM     16  H22 UNL     1      12.856 -49.431   4.177  1.00  0.00     0.175 HD
ATOM     17  H21 UNL     1      11.431 -48.782   4.714  1.00  0.00     0.175 HD
ENDBRANCH  14  15
BRANCH  14  18
HETATM   18  N3  UNL     1      12.376 -47.527   6.287  1.00  0.00    -0.322 NA
ATOM     19  H32 UNL     1      11.787 -48.354   6.382  1.00  0.00     0.175 HD
ATOM     20  H31 UNL     1      11.885 -46.653   6.102  1.00  0.00     0.175 HD
ENDBRANCH  14  18
ENDBRANCH  13  14
ENDBRANCH  12  13
BRANCH  12  21
HETATM   21  C14 UNL     1      15.092 -47.297   2.869  1.00  0.00     0.301 C 
HETATM   22  O6  UNL     1      14.958 -46.649   1.793  1.00  0.00    -0.265 OA
HETATM   23  N4  UNL     1      15.407 -48.679   2.771  1.00  0.00    -0.272 N 
ATOM     24  H4  UNL     1      15.520 -49.222   3.627  1.00  0.00     0.189 HD
BRANCH  23  25
HETATM   25  N5  UNL     1      15.567 -49.314   1.538  1.00  0.00    -0.342 N 
ATOM     26  H52 UNL     1      15.214 -48.841   0.706  1.00  0.00     0.176 HD
ATOM     27  H51 UNL     1      16.020 -50.224   1.455  1.00  0.00     0.176 HD
ENDBRANCH  23  25
ENDBRANCH  12  21
BRANCH   1  28
HETATM   28  C3  UNL     1      15.893 -48.121   5.973  1.00  0.00     0.271 C 
HETATM   29  O3  UNL     1      16.118 -49.323   5.617  1.00  0.00    -0.265 OA
BRANCH  28  30
HETATM   30  O2  UNL     1      15.481 -48.010   7.297  1.00  0.00    -0.295 OA
BRANCH  30  31
HETATM   31  C2  UNL     1      15.331 -49.126   8.153  1.00  0.00     0.347 C 
BRANCH  31  32
HETATM   32  O1  UNL     1      15.366 -48.775   9.490  1.00  0.00    -0.371 OA
HETATM   33  C1  UNL     1      15.752 -49.870  10.231  1.00  0.00     0.204 C 
ENDBRANCH  31  32
ENDBRANCH  30  31
ENDBRANCH  28  30
ENDBRANCH   1  28
TORSDOF 10
ENDMDL
MODEL 5
REMARK VINA RESULT: -5.737495998     13.714     15.644
REMARK  10 active torsions:
REMARK  status: ('A' for Active; 'I' for Inactive)
REMARK    1  A    between atoms: O1_2  and  C2_3 
REMARK    2  A    between atoms: C2_3  and  O2_4 
REMARK    3  A    between atoms: O2_4  and  C3_5 
REMARK    4  A    between atoms: C3_5  and  C4_7 
REMARK    5  A    between atoms: C13_18  and  O5_19 
REMARK    6  A    between atoms: C13_18  and  C14_27 
REMARK    7  A    between atoms: O5_19  and  N1_20 
REMARK    8  A    between atoms: N1_20  and  N2_21 
REMARK    9  A    between atoms: N1_20  and  N3_24 
REMARK       I    between atoms: C14_27  and  N4_29 
REMARK   10  A    between atoms: N4_29  and  N5_31 
ROOT
HETATM    1  C4  UNL     1       7.011 -40.556  17.041  1.00  0.00     0.166 C 
HETATM    2  C5  UNL     1       6.630 -41.902  17.577  1.00  0.00     0.035 C 
HETATM    3  C6  UNL     1       6.528 -42.014  19.050  1.00  0.00     0.008 C 
HETATM    4  C7  UNL     1       6.712 -43.408  19.601  1.00  0.00     0.001 C 
HETATM    5  C8  UNL     1       5.853 -44.436  18.923  1.00  0.00     0.001 C 
HETATM    6  C9  UNL     1       6.598 -45.708  18.606  1.00  0.00     0.010 C 
HETATM    7  C10 UNL     1       7.129 -45.772  17.219  1.00  0.00     0.074 C 
HETATM    8  S1  UNL     1       6.390 -44.630  16.065  1.00  0.00    -0.167 SA
HETATM    9  C11 UNL     1       7.484 -43.221  15.720  1.00  0.00     0.106 C 
HETATM   10  C12 UNL     1       7.855 -42.680  17.110  1.00  0.00     0.140 C 
HETATM   11  O4  UNL     1       8.927 -41.863  17.116  1.00  0.00    -0.339 OA
HETATM   12  C13 UNL     1       8.502 -40.508  17.167  1.00  0.00     0.284 C 
ENDROOT
BRANCH  12  13
HETATM   13  O5  UNL     1       9.016 -40.032  18.333  1.00  0.00    -0.215 OA
BRANCH  13  14
HETATM   14  N1  UNL     1       9.167 -38.751  18.529  1.00  0.00    -0.012 NA
BRANCH  14  15
HETATM   15  N2  UNL     1      10.487 -38.292  18.539  1.00  0.00    -0.322 NA
ATOM     16  H22 UNL     1      10.854 -38.606  17.641  1.00  0.00     0.175 HD
ATOM     17  H21 UNL     1      10.602 -37.281  18.600  1.00  0.00     0.175 HD
ENDBRANCH  14  15
BRANCH  14  18
HETATM   18  N3  UNL     1       8.695 -38.434  19.834  1.00  0.00    -0.322 NA
ATOM     19  H32 UNL     1       7.800 -37.978  19.659  1.00  0.00     0.175 HD
ATOM     20  H31 UNL     1       9.398 -37.863  20.302  1.00  0.00     0.175 HD
ENDBRANCH  14  18
ENDBRANCH  13  14
ENDBRANCH  12  13
BRANCH  12  21
HETATM   21  C14 UNL     1       9.128 -39.895  15.961  1.00  0.00     0.301 C 
HETATM   22  O6  UNL     1      10.382 -39.772  15.880  1.00  0.00    -0.265 OA
HETATM   23  N4  UNL     1       8.348 -39.428  14.868  1.00  0.00    -0.272 N 
ATOM     24  H4  UNL     1       7.333 -39.517  14.911  1.00  0.00     0.189 HD
BRANCH  23  25
HETATM   25  N5  UNL     1       8.932 -38.851  13.738  1.00  0.00    -0.342 N 
ATOM     26  H52 UNL     1       9.576 -38.073  13.875  1.00  0.00     0.176 HD
ATOM     27  H51 UNL     1       8.730 -39.187  12.796  1.00  0.00     0.176 HD
ENDBRANCH  23  25
ENDBRANCH  12  21
BRANCH   1  28
HETATM   28  C3  UNL     1       6.244 -39.430  17.518  1.00  0.00     0.271 C 
HETATM   29  O3  UNL     1       5.820 -39.288  18.710  1.00  0.00    -0.265 OA
BRANCH  28  30
HETATM   30  O2  UNL     1       5.894 -38.375  16.681  1.00  0.00    -0.295 OA
BRANCH  30  31
HETATM   31  C2  UNL     1       6.480 -37.091  16.777  1.00  0.00     0.347 C 
BRANCH  31  32
HETATM   32  O1  UNL     1       7.394 -36.851  15.767  1.00  0.00    -0.371 OA
HETATM   33  C1  UNL     1       8.397 -36.041  16.252  1.00  0.00     0.204 C 
ENDBRANCH  31  32
ENDBRANCH  30  31
ENDBRANCH  28  30
ENDBRANCH   1  28
TORSDOF 10
ENDMDL
