MODEL 1
REMARK VINA RESULT: -7.241956952      0.000      0.000
REMARK  8 active torsions:
REMARK  status: ('A' for Active; 'I' for Inactive)
REMARK       I    between atoms: C2_2  and  N1_4 
REMARK    1  A    between atoms: N1_4  and  C3_6 
REMARK    2  A    between atoms: C3_6  and  C4_7 
REMARK    3  A    between atoms: C3_6  and  C5_10 
REMARK    4  A    between atoms: C5_10  and  O3_11 
REMARK    5  A    between atoms: C5_10  and  C7_15 
REMARK    6  A    between atoms: O3_11  and  C6_12 
REMARK       I    between atoms: C7_15  and  N4_17 
REMARK    7  A    between atoms: N4_17  and  C8_19 
REMARK    8  A    between atoms: C11_24  and  C12_25 
ROOT
HETATM    1  C7  UNL     1      14.989 -47.068   5.048  1.00  0.00     0.256 C 
HETATM    2  O5  UNL     1      16.178 -47.433   5.345  1.00  0.00    -0.270 OA
HETATM    3  N4  UNL     1      14.067 -46.976   6.094  1.00  0.00    -0.305 N 
ATOM      4  H4  UNL     1      13.107 -46.688   5.907  1.00  0.00     0.171 HD
ENDROOT
BRANCH   1   5
HETATM    5  C5  UNL     1      14.724 -46.782   3.606  1.00  0.00     0.256 C 
BRANCH   5   6
HETATM    6  C3  UNL     1      15.097 -45.369   3.307  1.00  0.00     0.212 C 
BRANCH   6   7
HETATM    7  N1  UNL     1      16.359 -45.032   3.924  1.00  0.00    -0.345 N 
HETATM    8  C2  UNL     1      16.901 -43.718   3.944  1.00  0.00     0.214 C 
HETATM    9  C1  UNL     1      18.230 -43.464   4.604  1.00  0.00     0.117 C 
HETATM   10  O1  UNL     1      16.350 -42.724   3.446  1.00  0.00    -0.274 OA
ATOM     11  H1  UNL     1      16.892 -45.779   4.370  1.00  0.00     0.163 HD
ENDBRANCH   6   7
BRANCH   6  12
HETATM   12  C4  UNL     1      14.039 -44.369   3.563  1.00  0.00     0.257 C 
HETATM   13  N2  UNL     1      13.502 -44.163   4.875  1.00  0.00    -0.060 NA
HETATM   14  O2  UNL     1      13.570 -43.664   2.645  1.00  0.00    -0.274 OA
ENDBRANCH   6  12
ENDBRANCH   5   6
BRANCH   5  15
HETATM   15  O3  UNL     1      15.612 -47.643   2.889  1.00  0.00    -0.289 OA
BRANCH  15  16
HETATM   16  C6  UNL     1      15.249 -48.016   1.585  1.00  0.00     0.373 C 
HETATM   17  N3  UNL     1      15.556 -49.331   1.147  1.00  0.00    -0.032 NA
HETATM   18  O4  UNL     1      14.673 -47.165   0.881  1.00  0.00    -0.242 OA
ENDBRANCH  15  16
ENDBRANCH   5  15
ENDBRANCH   1   5
BRANCH   3  19
HETATM   19  C8  UNL     1      14.474 -47.285   7.426  1.00  0.00     0.152 A 
HETATM   20  N5  UNL     1      14.813 -48.449   7.961  1.00  0.00    -0.339 N 
HETATM   21  C9  UNL     1      15.158 -48.524   9.205  1.00  0.00     0.028 A 
ATOM     22  H5  UNL     1      14.801 -49.292   7.387  1.00  0.00     0.168 HD
HETATM   23  C10 UNL     1      15.556 -49.836   9.869  1.00  0.00     0.070 C 
HETATM   24  C11 UNL     1      15.158 -47.361   9.934  1.00  0.00     0.076 A 
HETATM   25  S1  UNL     1      14.654 -46.228   8.763  1.00  0.00    -0.048 SA
BRANCH  24  26
HETATM   26  C12 UNL     1      15.499 -47.149  11.343  1.00  0.00     0.150 A 
HETATM   27  N6  UNL     1      15.412 -45.990  12.018  1.00  0.00    -0.269 N 
HETATM   28  N7  UNL     1      15.808 -46.202  13.264  1.00  0.00    -0.007 NA
ATOM     29  H6  UNL     1      15.095 -45.099  11.635  1.00  0.00     0.185 HD
HETATM   30  N8  UNL     1      16.137 -47.481  13.360  1.00  0.00    -0.007 NA
HETATM   31  N9  UNL     1      15.947 -48.062  12.181  1.00  0.00    -0.269 N 
ATOM     32  H9  UNL     1      16.118 -49.043  11.961  1.00  0.00     0.185 HD
ENDBRANCH  24  26
ENDBRANCH   3  19
TORSDOF 8
ENDMDL
MODEL 2
REMARK VINA RESULT: -6.635932157      2.087      4.025
REMARK  8 active torsions:
REMARK  status: ('A' for Active; 'I' for Inactive)
REMARK       I    between atoms: C2_2  and  N1_4 
REMARK    1  A    between atoms: N1_4  and  C3_6 
REMARK    2  A    between atoms: C3_6  and  C4_7 
REMARK    3  A    between atoms: C3_6  and  C5_10 
REMARK    4  A    between atoms: C5_10  and  O3_11 
REMARK    5  A    between atoms: C5_10  and  C7_15 
REMARK    6  A    between atoms: O3_11  and  C6_12 
REMARK       I    between atoms: C7_15  and  N4_17 
REMARK    7  A    between atoms: N4_17  and  C8_19 
REMARK    8  A    between atoms: C11_24  and  C12_25 
ROOT
HETATM    1  C7  UNL     1      15.975 -46.149   6.086  1.00  0.00     0.256 C 
HETATM    2  O5  UNL     1      17.076 -46.763   6.298  1.00  0.00    -0.270 OA
HETATM    3  N4  UNL     1      14.949 -46.334   7.016  1.00  0.00    -0.305 N 
ATOM      4  H4  UNL     1      14.052 -45.865   6.890  1.00  0.00     0.171 HD
ENDROOT
BRANCH   1   5
HETATM    5  C5  UNL     1      15.915 -45.299   4.858  1.00  0.00     0.256 C 
BRANCH   5   6
HETATM    6  C3  UNL     1      14.648 -45.584   4.123  1.00  0.00     0.212 C 
BRANCH   6   7
HETATM    7  N1  UNL     1      14.914 -46.344   2.923  1.00  0.00    -0.345 N 
HETATM    8  C2  UNL     1      14.741 -47.751   2.827  1.00  0.00     0.214 C 
HETATM    9  C1  UNL     1      15.053 -48.459   1.536  1.00  0.00     0.117 C 
HETATM   10  O1  UNL     1      14.338 -48.473   3.752  1.00  0.00    -0.274 OA
ATOM     11  H1  UNL     1      15.245 -45.842   2.099  1.00  0.00     0.163 HD
ENDBRANCH   6   7
BRANCH   6  12
HETATM   12  C4  UNL     1      13.778 -44.413   3.889  1.00  0.00     0.257 C 
HETATM   13  N2  UNL     1      12.804 -43.997   4.852  1.00  0.00    -0.060 NA
HETATM   14  O2  UNL     1      13.856 -43.739   2.840  1.00  0.00    -0.274 OA
ENDBRANCH   6  12
ENDBRANCH   5   6
BRANCH   5  15
HETATM   15  O3  UNL     1      15.861 -43.955   5.343  1.00  0.00    -0.289 OA
BRANCH  15  16
HETATM   16  C6  UNL     1      17.077 -43.317   5.636  1.00  0.00     0.373 C 
HETATM   17  N3  UNL     1      18.175 -43.517   4.758  1.00  0.00    -0.032 NA
HETATM   18  O4  UNL     1      17.124 -42.607   6.658  1.00  0.00    -0.242 OA
ENDBRANCH  15  16
ENDBRANCH   5  15
ENDBRANCH   1   5
BRANCH   3  19
HETATM   19  C8  UNL     1      15.161 -47.182   8.144  1.00  0.00     0.152 A 
HETATM   20  N5  UNL     1      15.229 -46.879   9.432  1.00  0.00    -0.339 N 
HETATM   21  C9  UNL     1      15.430 -47.804  10.313  1.00  0.00     0.028 A 
ATOM     22  H5  UNL     1      15.123 -45.910   9.730  1.00  0.00     0.168 HD
HETATM   23  C10 UNL     1      15.516 -47.511  11.805  1.00  0.00     0.070 C 
HETATM   24  C11 UNL     1      15.566 -49.093   9.860  1.00  0.00     0.076 A 
HETATM   25  S1  UNL     1      15.394 -48.880   8.177  1.00  0.00    -0.048 SA
BRANCH  24  26
HETATM   26  C12 UNL     1      15.798 -50.324  10.621  1.00  0.00     0.150 A 
HETATM   27  N6  UNL     1      16.983 -50.924  10.822  1.00  0.00    -0.269 N 
HETATM   28  N7  UNL     1      16.781 -52.008  11.556  1.00  0.00    -0.007 NA
ATOM     29  H6  UNL     1      17.883 -50.600  10.470  1.00  0.00     0.185 HD
HETATM   30  N8  UNL     1      15.483 -52.078  11.808  1.00  0.00    -0.007 NA
HETATM   31  N9  UNL     1      14.880 -51.044  11.233  1.00  0.00    -0.269 N 
ATOM     32  H9  UNL     1      13.880 -50.842  11.260  1.00  0.00     0.185 HD
ENDBRANCH  24  26
ENDBRANCH   3  19
TORSDOF 8
ENDMDL
MODEL 3
REMARK VINA RESULT: -6.487597599      1.268      1.926
REMARK  8 active torsions:
REMARK  status: ('A' for Active; 'I' for Inactive)
REMARK       I    between atoms: C2_2  and  N1_4 
REMARK    1  A    between atoms: N1_4  and  C3_6 
REMARK    2  A    between atoms: C3_6  and  C4_7 
REMARK    3  A    between atoms: C3_6  and  C5_10 
REMARK    4  A    between atoms: C5_10  and  O3_11 
REMARK    5  A    between atoms: C5_10  and  C7_15 
REMARK    6  A    between atoms: O3_11  and  C6_12 
REMARK       I    between atoms: C7_15  and  N4_17 
REMARK    7  A    between atoms: N4_17  and  C8_19 
REMARK    8  A    between atoms: C11_24  and  C12_25 
ROOT
HETATM    1  C7  UNL     1      14.962 -47.035   5.018  1.00  0.00     0.256 C 
HETATM    2  O5  UNL     1      15.974 -47.792   5.210  1.00  0.00    -0.270 OA
HETATM    3  N4  UNL     1      14.201 -46.686   6.137  1.00  0.00    -0.305 N 
ATOM      4  H4  UNL     1      13.384 -46.084   6.033  1.00  0.00     0.171 HD
ENDROOT
BRANCH   1   5
HETATM    5  C5  UNL     1      14.710 -46.610   3.608  1.00  0.00     0.256 C 
BRANCH   5   6
HETATM    6  C3  UNL     1      15.093 -45.177   3.449  1.00  0.00     0.212 C 
BRANCH   6   7
HETATM    7  N1  UNL     1      16.238 -44.860   4.270  1.00  0.00    -0.345 N 
HETATM    8  C2  UNL     1      16.955 -43.636   4.184  1.00  0.00     0.214 C 
HETATM    9  C1  UNL     1      18.144 -43.397   5.076  1.00  0.00     0.117 C 
HETATM   10  O1  UNL     1      16.674 -42.711   3.405  1.00  0.00    -0.274 OA
ATOM     11  H1  UNL     1      16.549 -45.553   4.951  1.00  0.00     0.163 HD
ENDBRANCH   6   7
BRANCH   6  12
HETATM   12  C4  UNL     1      13.986 -44.208   3.595  1.00  0.00     0.257 C 
HETATM   13  N2  UNL     1      13.298 -44.035   4.838  1.00  0.00    -0.060 NA
HETATM   14  O2  UNL     1      13.605 -43.502   2.637  1.00  0.00    -0.274 OA
ENDBRANCH   6  12
ENDBRANCH   5   6
BRANCH   5  15
HETATM   15  O3  UNL     1      15.599 -47.404   2.818  1.00  0.00    -0.289 OA
BRANCH  15  16
HETATM   16  C6  UNL     1      15.176 -47.774   1.531  1.00  0.00     0.373 C 
HETATM   17  N3  UNL     1      15.398 -49.109   1.104  1.00  0.00    -0.032 NA
HETATM   18  O4  UNL     1      14.624 -46.903   0.833  1.00  0.00    -0.242 OA
ENDBRANCH  15  16
ENDBRANCH   5  15
ENDBRANCH   1   5
BRANCH   3  19
HETATM   19  C8  UNL     1      14.571 -47.176   7.425  1.00  0.00     0.152 A 
HETATM   20  N5  UNL     1      14.705 -46.527   8.572  1.00  0.00    -0.339 N 
HETATM   21  C9  UNL     1      15.053 -47.158   9.646  1.00  0.00     0.028 A 
ATOM     22  H5  UNL     1      14.531 -45.522   8.609  1.00  0.00     0.168 HD
HETATM   23  C10 UNL     1      15.220 -46.461  10.990  1.00  0.00     0.070 C 
HETATM   24  C11 UNL     1      15.275 -48.509   9.543  1.00  0.00     0.076 A 
HETATM   25  S1  UNL     1      14.962 -48.779   7.889  1.00  0.00    -0.048 SA
BRANCH  24  26
HETATM   26  C12 UNL     1      15.673 -49.466  10.580  1.00  0.00     0.150 A 
HETATM   27  N6  UNL     1      16.104 -50.722  10.380  1.00  0.00    -0.269 N 
HETATM   28  N7  UNL     1      16.367 -51.265  11.559  1.00  0.00    -0.007 NA
ATOM     29  H6  UNL     1      16.212 -51.179   9.475  1.00  0.00     0.185 HD
HETATM   30  N8  UNL     1      16.100 -50.353  12.481  1.00  0.00    -0.007 NA
HETATM   31  N9  UNL     1      15.674 -49.248  11.879  1.00  0.00    -0.269 N 
ATOM     32  H9  UNL     1      15.397 -48.382  12.342  1.00  0.00     0.185 HD
ENDBRANCH  24  26
ENDBRANCH   3  19
TORSDOF 8
ENDMDL
MODEL 4
REMARK VINA RESULT: -6.037857534      1.463      3.540
REMARK  8 active torsions:
REMARK  status: ('A' for Active; 'I' for Inactive)
REMARK       I    between atoms: C2_2  and  N1_4 
REMARK    1  A    between atoms: N1_4  and  C3_6 
REMARK    2  A    between atoms: C3_6  and  C4_7 
REMARK    3  A    between atoms: C3_6  and  C5_10 
REMARK    4  A    between atoms: C5_10  and  O3_11 
REMARK    5  A    between atoms: C5_10  and  C7_15 
REMARK    6  A    between atoms: O3_11  and  C6_12 
REMARK       I    between atoms: C7_15  and  N4_17 
REMARK    7  A    between atoms: N4_17  and  C8_19 
REMARK    8  A    between atoms: C11_24  and  C12_25 
ROOT
HETATM    1  C7  UNL     1      15.750 -46.666   5.167  1.00  0.00     0.256 C 
HETATM    2  O5  UNL     1      16.726 -47.382   5.577  1.00  0.00    -0.270 OA
HETATM    3  N4  UNL     1      14.809 -46.261   6.117  1.00  0.00    -0.305 N 
ATOM      4  H4  UNL     1      14.012 -45.688   5.838  1.00  0.00     0.171 HD
ENDROOT
BRANCH   1   5
HETATM    5  C5  UNL     1      15.729 -46.345   3.708  1.00  0.00     0.256 C 
BRANCH   5   6
HETATM    6  C3  UNL     1      14.667 -47.151   3.039  1.00  0.00     0.212 C 
BRANCH   6   7
HETATM    7  N1  UNL     1      14.229 -48.229   3.895  1.00  0.00    -0.345 N 
HETATM    8  C2  UNL     1      13.130 -48.128   4.791  1.00  0.00     0.214 C 
HETATM    9  C1  UNL     1      12.753 -49.304   5.652  1.00  0.00     0.117 C 
HETATM   10  O1  UNL     1      12.429 -47.114   4.929  1.00  0.00    -0.274 OA
ATOM     11  H1  UNL     1      14.737 -49.113   3.853  1.00  0.00     0.163 HD
ENDBRANCH   6   7
BRANCH   6  12
HETATM   12  C4  UNL     1      14.980 -47.590   1.663  1.00  0.00     0.257 C 
HETATM   13  N2  UNL     1      15.449 -48.914   1.386  1.00  0.00    -0.060 NA
HETATM   14  O2  UNL     1      14.850 -46.823   0.687  1.00  0.00    -0.274 OA
ENDBRANCH   6  12
ENDBRANCH   5   6
BRANCH   5  15
HETATM   15  O3  UNL     1      15.358 -44.965   3.639  1.00  0.00    -0.289 OA
BRANCH  15  16
HETATM   16  C6  UNL     1      16.149 -44.040   4.339  1.00  0.00     0.373 C 
HETATM   17  N3  UNL     1      17.500 -43.867   3.939  1.00  0.00    -0.032 NA
HETATM   18  O4  UNL     1      15.617 -43.419   5.278  1.00  0.00    -0.242 OA
ENDBRANCH  15  16
ENDBRANCH   5  15
ENDBRANCH   1   5
BRANCH   3  19
HETATM   19  C8  UNL     1      14.966 -46.652   7.480  1.00  0.00     0.152 A 
HETATM   20  N5  UNL     1      15.152 -47.856   8.001  1.00  0.00    -0.339 N 
HETATM   21  C9  UNL     1      15.275 -48.005   9.280  1.00  0.00     0.028 A 
ATOM     22  H5  UNL     1      15.199 -48.670   7.389  1.00  0.00     0.168 HD
HETATM   23  C10 UNL     1      15.490 -49.365   9.930  1.00  0.00     0.070 C 
HETATM   24  C11 UNL     1      15.204 -46.877  10.060  1.00  0.00     0.076 A 
HETATM   25  S1  UNL     1      14.964 -45.667   8.883  1.00  0.00    -0.048 SA
BRANCH  24  26
HETATM   26  C12 UNL     1      15.309 -46.748  11.516  1.00  0.00     0.150 A 
HETATM   27  N6  UNL     1      15.105 -45.630  12.232  1.00  0.00    -0.269 N 
HETATM   28  N7  UNL     1      15.292 -45.914  13.512  1.00  0.00    -0.007 NA
ATOM     29  H6  UNL     1      14.850 -44.717  11.854  1.00  0.00     0.185 HD
HETATM   30  N8  UNL     1      15.609 -47.198  13.588  1.00  0.00    -0.007 NA
HETATM   31  N9  UNL     1      15.619 -47.709  12.362  1.00  0.00    -0.269 N 
ATOM     32  H9  UNL     1      15.830 -48.677  12.117  1.00  0.00     0.185 HD
ENDBRANCH  24  26
ENDBRANCH   3  19
TORSDOF 8
ENDMDL
MODEL 5
REMARK VINA RESULT: -5.875602160      1.909      2.456
REMARK  8 active torsions:
REMARK  status: ('A' for Active; 'I' for Inactive)
REMARK       I    between atoms: C2_2  and  N1_4 
REMARK    1  A    between atoms: N1_4  and  C3_6 
REMARK    2  A    between atoms: C3_6  and  C4_7 
REMARK    3  A    between atoms: C3_6  and  C5_10 
REMARK    4  A    between atoms: C5_10  and  O3_11 
REMARK    5  A    between atoms: C5_10  and  C7_15 
REMARK    6  A    between atoms: O3_11  and  C6_12 
REMARK       I    between atoms: C7_15  and  N4_17 
REMARK    7  A    between atoms: N4_17  and  C8_19 
REMARK    8  A    between atoms: C11_24  and  C12_25 
ROOT
HETATM    1  C7  UNL     1      14.892 -46.977   5.530  1.00  0.00     0.256 C 
HETATM    2  O5  UNL     1      15.935 -47.716   5.543  1.00  0.00    -0.270 OA
HETATM    3  N4  UNL     1      14.169 -46.868   6.721  1.00  0.00    -0.305 N 
ATOM      4  H4  UNL     1      13.330 -46.290   6.760  1.00  0.00     0.171 HD
ENDROOT
BRANCH   1   5
HETATM    5  C5  UNL     1      14.566 -46.312   4.233  1.00  0.00     0.256 C 
BRANCH   5   6
HETATM    6  C3  UNL     1      14.955 -44.874   4.303  1.00  0.00     0.212 C 
BRANCH   6   7
HETATM    7  N1  UNL     1      16.379 -44.739   4.503  1.00  0.00    -0.345 N 
HETATM    8  C2  UNL     1      17.129 -43.604   4.090  1.00  0.00     0.214 C 
HETATM    9  C1  UNL     1      18.614 -43.556   4.332  1.00  0.00     0.117 C 
HETATM   10  O1  UNL     1      16.644 -42.610   3.526  1.00  0.00    -0.274 OA
ATOM     11  H1  UNL     1      16.875 -45.501   4.965  1.00  0.00     0.163 HD
ENDBRANCH   6   7
BRANCH   6  12
HETATM   12  C4  UNL     1      14.157 -44.050   5.235  1.00  0.00     0.257 C 
HETATM   13  N2  UNL     1      14.719 -43.522   6.442  1.00  0.00    -0.060 NA
HETATM   14  O2  UNL     1      12.958 -43.782   5.008  1.00  0.00    -0.274 OA
ENDBRANCH   6  12
ENDBRANCH   5   6
BRANCH   5  15
HETATM   15  O3  UNL     1      15.400 -46.957   3.267  1.00  0.00    -0.289 OA
BRANCH  15  16
HETATM   16  C6  UNL     1      14.818 -47.943   2.454  1.00  0.00     0.373 C 
HETATM   17  N3  UNL     1      15.208 -48.012   1.091  1.00  0.00    -0.032 NA
HETATM   18  O4  UNL     1      13.986 -48.707   2.979  1.00  0.00    -0.242 OA
ENDBRANCH  15  16
ENDBRANCH   5  15
ENDBRANCH   1   5
BRANCH   3  19
HETATM   19  C8  UNL     1      14.610 -47.569   7.883  1.00  0.00     0.152 A 
HETATM   20  N5  UNL     1      14.890 -47.111   9.095  1.00  0.00    -0.339 N 
HETATM   21  C9  UNL     1      15.280 -47.918  10.027  1.00  0.00     0.028 A 
ATOM     22  H5  UNL     1      14.797 -46.115   9.293  1.00  0.00     0.168 HD
HETATM   23  C10 UNL     1      15.614 -47.444  11.435  1.00  0.00     0.070 C 
HETATM   24  C11 UNL     1      15.389 -49.249   9.709  1.00  0.00     0.076 A 
HETATM   25  S1  UNL     1      14.916 -49.245   8.070  1.00  0.00    -0.048 SA
BRANCH  24  26
HETATM   26  C12 UNL     1      15.801 -50.374  10.553  1.00  0.00     0.150 A 
HETATM   27  N6  UNL     1      17.048 -50.855  10.684  1.00  0.00    -0.269 N 
HETATM   28  N7  UNL     1      17.016 -51.871  11.533  1.00  0.00    -0.007 NA
ATOM     29  H6  UNL     1      17.878 -50.499  10.210  1.00  0.00     0.185 HD
HETATM   30  N8  UNL     1      15.759 -52.017  11.925  1.00  0.00    -0.007 NA
HETATM   31  N9  UNL     1      15.014 -51.098  11.322  1.00  0.00    -0.269 N 
ATOM     32  H9  UNL     1      14.008 -50.973  11.435  1.00  0.00     0.185 HD
ENDBRANCH  24  26
ENDBRANCH   3  19
TORSDOF 8
ENDMDL
