MODEL 1
REMARK VINA RESULT: -8.645595194      0.000      0.000
REMARK  11 active torsions:
REMARK  status: ('A' for Active; 'I' for Inactive)
REMARK    1  A    between atoms: C3_5  and  N2_6 
REMARK    2  A    between atoms: N2_6  and  O1_8 
REMARK    3  A    between atoms: O1_8  and  C4_9 
REMARK    4  A    between atoms: C4_9  and  O2_10 
REMARK    5  A    between atoms: C5_14  and  N4_15 
REMARK    6  A    between atoms: N4_15  and  C6_17 
REMARK    7  A    between atoms: C6_17  and  C7_18 
REMARK    8  A    between atoms: C6_17  and  C8_26 
REMARK    9  A    between atoms: C7_18  and  O3_19 
REMARK   10  A    between atoms: O3_19  and  S1_20 
REMARK   11  A    between atoms: S1_20  and  N5_21 
ROOT
HETATM    1  N4  UNL     1      16.149 -46.915   5.459  1.00  0.00    -0.363 N 
ATOM      2  H4  UNL     1      16.759 -47.701   5.234  1.00  0.00     0.162 HD
ENDROOT
BRANCH   1   3
HETATM    3  C5  UNL     1      15.402 -47.267   6.354  1.00  0.00     0.144 A 
HETATM    4  N3  UNL     1      15.540 -46.666   7.576  1.00  0.00    -0.173 N 
HETATM    5  C3  UNL     1      14.751 -47.003   8.609  1.00  0.00     0.704 A 
ATOM      6  H3  UNL     1      16.254 -45.949   7.703  1.00  0.00     0.186 HD
HETATM    7  N1  UNL     1      13.791 -47.929   8.534  1.00  0.00    -0.192 N 
HETATM    8  C2  UNL     1      13.615 -48.548   7.361  1.00  0.00     0.050 A 
ATOM      9  H1  UNL     1      13.213 -48.157   9.342  1.00  0.00     0.184 HD
HETATM   10  C1  UNL     1      12.575 -49.602   7.144  1.00  0.00     0.071 C 
HETATM   11  C13 UNL     1      14.426 -48.212   6.268  1.00  0.00     0.113 A 
HETATM   12  N6  UNL     1      14.222 -48.879   5.034  1.00  0.00    -0.096 NA
BRANCH   5  13
HETATM   13  N2  UNL     1      14.914 -46.408   9.756  1.00  0.00    -0.094 N 
ATOM     14  H2  UNL     1      14.714 -45.408   9.810  1.00  0.00     0.213 HD
BRANCH  13  15
HETATM   15  O1  UNL     1      15.332 -47.037  10.879  1.00  0.00    -0.240 OA
BRANCH  15  16
HETATM   16  C4  UNL     1      15.570 -46.386  12.115  1.00  0.00     0.367 C 
BRANCH  16  17
HETATM   17  O2  UNL     1      15.209 -47.247  13.150  1.00  0.00    -0.375 OA
ATOM     18  H2  UNL     1      14.264 -47.345  13.150  1.00  0.00     0.212 HD
ENDBRANCH  16  17
ENDBRANCH  15  16
ENDBRANCH  13  15
ENDBRANCH   5  13
ENDBRANCH   1   3
BRANCH   1  19
HETATM   19  C6  UNL     1      16.488 -45.864   4.631  1.00  0.00     0.145 C 
BRANCH  19  20
HETATM   20  C7  UNL     1      17.519 -45.000   5.387  1.00  0.00     0.222 C 
BRANCH  20  21
HETATM   21  O3  UNL     1      17.699 -43.789   4.722  1.00  0.00    -0.257 OA
BRANCH  21  22
HETATM   22  S1  UNL     1      18.436 -42.641   5.656  1.00  0.00     0.355 S 
HETATM   23  O4  UNL     1      18.830 -41.463   4.813  1.00  0.00    -0.176 OA
HETATM   24  O5  UNL     1      19.665 -43.223   6.267  1.00  0.00    -0.176 OA
BRANCH  22  25
HETATM   25  N5  UNL     1      17.333 -42.177   6.911  1.00  0.00    -0.306 N 
ATOM     26  H52 UNL     1      16.404 -41.784   6.760  1.00  0.00     0.171 HD
ATOM     27  H51 UNL     1      17.777 -42.366   7.809  1.00  0.00     0.171 HD
ENDBRANCH  22  25
ENDBRANCH  21  22
ENDBRANCH  20  21
ENDBRANCH  19  20
BRANCH  19  28
HETATM   28  C8  UNL     1      15.291 -44.991   4.341  1.00  0.00     0.009 C 
HETATM   29  C9  UNL     1      14.796 -44.820   3.143  1.00  0.00    -0.013 C 
HETATM   30  C10 UNL     1      13.614 -43.897   3.199  1.00  0.00     0.035 C 
HETATM   31  C11 UNL     1      13.246 -43.872   4.671  1.00  0.00     0.087 C 
HETATM   32  C12 UNL     1      14.528 -44.229   5.316  1.00  0.00     0.157 C 
HETATM   33  O6  UNL     1      14.882 -43.919   6.504  1.00  0.00    -0.293 OA
ENDBRANCH  19  28
ENDBRANCH   1  19
TORSDOF 11
ENDMDL
MODEL 2
REMARK VINA RESULT: -8.345633889      2.760      3.837
REMARK  11 active torsions:
REMARK  status: ('A' for Active; 'I' for Inactive)
REMARK    1  A    between atoms: C3_5  and  N2_6 
REMARK    2  A    between atoms: N2_6  and  O1_8 
REMARK    3  A    between atoms: O1_8  and  C4_9 
REMARK    4  A    between atoms: C4_9  and  O2_10 
REMARK    5  A    between atoms: C5_14  and  N4_15 
REMARK    6  A    between atoms: N4_15  and  C6_17 
REMARK    7  A    between atoms: C6_17  and  C7_18 
REMARK    8  A    between atoms: C6_17  and  C8_26 
REMARK    9  A    between atoms: C7_18  and  O3_19 
REMARK   10  A    between atoms: O3_19  and  S1_20 
REMARK   11  A    between atoms: S1_20  and  N5_21 
ROOT
HETATM    1  N4  UNL     1      14.537 -45.211   5.736  1.00  0.00    -0.363 N 
ATOM      2  H4  UNL     1      13.864 -44.461   5.893  1.00  0.00     0.162 HD
ENDROOT
BRANCH   1   3
HETATM    3  C5  UNL     1      14.414 -46.019   6.638  1.00  0.00     0.144 A 
HETATM    4  N3  UNL     1      14.972 -45.716   7.850  1.00  0.00    -0.173 N 
HETATM    5  C3  UNL     1      14.875 -46.561   8.890  1.00  0.00     0.704 A 
ATOM      6  H3  UNL     1      15.469 -44.834   7.965  1.00  0.00     0.186 HD
HETATM    7  N1  UNL     1      14.244 -47.737   8.830  1.00  0.00    -0.192 N 
HETATM    8  C2  UNL     1      13.681 -48.081   7.667  1.00  0.00     0.050 A 
ATOM      9  H1  UNL     1      14.193 -48.350   9.643  1.00  0.00     0.184 HD
HETATM   10  C1  UNL     1      12.944 -49.369   7.468  1.00  0.00     0.071 C 
HETATM   11  C13 UNL     1      13.768 -47.216   6.567  1.00  0.00     0.113 A 
HETATM   12  N6  UNL     1      13.164 -47.600   5.344  1.00  0.00    -0.096 NA
BRANCH   5  13
HETATM   13  N2  UNL     1      15.420 -46.235  10.027  1.00  0.00    -0.094 N 
ATOM     14  H2  UNL     1      16.335 -45.785  10.010  1.00  0.00     0.213 HD
BRANCH  13  15
HETATM   15  O1  UNL     1      14.842 -46.460  11.232  1.00  0.00    -0.240 OA
BRANCH  15  16
HETATM   16  C4  UNL     1      15.562 -46.734  12.421  1.00  0.00     0.367 C 
BRANCH  16  17
HETATM   17  O2  UNL     1      15.298 -45.724  13.345  1.00  0.00    -0.375 OA
ATOM     18  H2  UNL     1      14.418 -45.843  13.683  1.00  0.00     0.212 HD
ENDBRANCH  16  17
ENDBRANCH  15  16
ENDBRANCH  13  15
ENDBRANCH   5  13
ENDBRANCH   1   3
BRANCH   1  19
HETATM   19  C6  UNL     1      15.237 -44.918   4.583  1.00  0.00     0.145 C 
BRANCH  19  20
HETATM   20  C7  UNL     1      15.737 -46.255   3.998  1.00  0.00     0.222 C 
BRANCH  20  21
HETATM   21  O3  UNL     1      14.993 -46.584   2.865  1.00  0.00    -0.257 OA
BRANCH  21  22
HETATM   22  S1  UNL     1      14.925 -48.211   2.584  1.00  0.00     0.355 S 
HETATM   23  O4  UNL     1      15.494 -48.527   1.232  1.00  0.00    -0.176 OA
HETATM   24  O5  UNL     1      13.502 -48.653   2.619  1.00  0.00    -0.176 OA
BRANCH  22  25
HETATM   25  N5  UNL     1      15.808 -49.013   3.843  1.00  0.00    -0.306 N 
ATOM     26  H52 UNL     1      15.444 -49.228   4.771  1.00  0.00     0.171 HD
ATOM     27  H51 UNL     1      16.741 -49.225   3.489  1.00  0.00     0.171 HD
ENDBRANCH  22  25
ENDBRANCH  21  22
ENDBRANCH  20  21
ENDBRANCH  19  20
BRANCH  19  28
HETATM   28  C8  UNL     1      16.452 -44.072   4.882  1.00  0.00     0.009 C 
HETATM   29  C9  UNL     1      17.525 -44.062   4.137  1.00  0.00    -0.013 C 
HETATM   30  C10 UNL     1      18.543 -43.119   4.709  1.00  0.00     0.035 C 
HETATM   31  C11 UNL     1      17.744 -42.275   5.683  1.00  0.00     0.087 C 
HETATM   32  C12 UNL     1      16.612 -43.168   6.010  1.00  0.00     0.157 C 
HETATM   33  O6  UNL     1      15.916 -43.138   7.081  1.00  0.00    -0.293 OA
ENDBRANCH  19  28
ENDBRANCH   1  19
TORSDOF 11
ENDMDL
MODEL 3
REMARK VINA RESULT: -8.175315344      2.908      4.149
REMARK  11 active torsions:
REMARK  status: ('A' for Active; 'I' for Inactive)
REMARK    1  A    between atoms: C3_5  and  N2_6 
REMARK    2  A    between atoms: N2_6  and  O1_8 
REMARK    3  A    between atoms: O1_8  and  C4_9 
REMARK    4  A    between atoms: C4_9  and  O2_10 
REMARK    5  A    between atoms: C5_14  and  N4_15 
REMARK    6  A    between atoms: N4_15  and  C6_17 
REMARK    7  A    between atoms: C6_17  and  C7_18 
REMARK    8  A    between atoms: C6_17  and  C8_26 
REMARK    9  A    between atoms: C7_18  and  O3_19 
REMARK   10  A    between atoms: O3_19  and  S1_20 
REMARK   11  A    between atoms: S1_20  and  N5_21 
ROOT
HETATM    1  N4  UNL     1      15.007 -47.323   7.954  1.00  0.00    -0.363 N 
ATOM      2  H4  UNL     1      14.015 -47.091   7.914  1.00  0.00     0.162 HD
ENDROOT
BRANCH   1   3
HETATM    3  C5  UNL     1      15.248 -47.739   9.072  1.00  0.00     0.144 A 
HETATM    4  N3  UNL     1      15.512 -49.074   9.216  1.00  0.00    -0.173 N 
HETATM    5  C3  UNL     1      15.787 -49.603  10.419  1.00  0.00     0.704 A 
ATOM      6  H3  UNL     1      15.500 -49.677   8.393  1.00  0.00     0.186 HD
HETATM    7  N1  UNL     1      15.824 -48.890  11.548  1.00  0.00    -0.192 N 
HETATM    8  C2  UNL     1      15.574 -47.579  11.464  1.00  0.00     0.050 A 
ATOM      9  H1  UNL     1      16.037 -49.330  12.443  1.00  0.00     0.184 HD
HETATM   10  C1  UNL     1      15.585 -46.669  12.652  1.00  0.00     0.071 C 
HETATM   11  C13 UNL     1      15.285 -47.004  10.218  1.00  0.00     0.113 A 
HETATM   12  N6  UNL     1      15.022 -45.613  10.151  1.00  0.00    -0.096 NA
BRANCH   5  13
HETATM   13  N2  UNL     1      16.033 -50.878  10.513  1.00  0.00    -0.094 N 
ATOM     14  H2  UNL     1      16.435 -51.351   9.703  1.00  0.00     0.213 HD
BRANCH  13  15
HETATM   15  O1  UNL     1      15.786 -51.614  11.623  1.00  0.00    -0.240 OA
BRANCH  15  16
HETATM   16  C4  UNL     1      16.362 -52.883  11.882  1.00  0.00     0.367 C 
BRANCH  16  17
HETATM   17  O2  UNL     1      17.693 -52.861  11.471  1.00  0.00    -0.375 OA
ATOM     18  H2  UNL     1      18.157 -53.569  11.904  1.00  0.00     0.212 HD
ENDBRANCH  16  17
ENDBRANCH  15  16
ENDBRANCH  13  15
ENDBRANCH   5  13
ENDBRANCH   1   3
BRANCH   1  19
HETATM   19  C6  UNL     1      15.559 -47.043   6.720  1.00  0.00     0.145 C 
BRANCH  19  20
HETATM   20  C7  UNL     1      15.661 -45.507   6.603  1.00  0.00     0.222 C 
BRANCH  20  21
HETATM   21  O3  UNL     1      16.889 -45.157   6.044  1.00  0.00    -0.257 OA
BRANCH  21  22
HETATM   22  S1  UNL     1      17.115 -43.522   5.950  1.00  0.00     0.355 S 
HETATM   23  O4  UNL     1      16.383 -42.833   7.064  1.00  0.00    -0.176 OA
HETATM   24  O5  UNL     1      16.580 -43.028   4.650  1.00  0.00    -0.176 OA
BRANCH  22  25
HETATM   25  N5  UNL     1      18.819 -43.209   6.028  1.00  0.00    -0.306 N 
ATOM     26  H52 UNL     1      19.485 -43.721   6.607  1.00  0.00     0.171 HD
ATOM     27  H51 UNL     1      19.028 -42.432   5.401  1.00  0.00     0.171 HD
ENDBRANCH  22  25
ENDBRANCH  21  22
ENDBRANCH  20  21
ENDBRANCH  19  20
BRANCH  19  28
HETATM   28  C8  UNL     1      14.666 -47.524   5.602  1.00  0.00     0.009 C 
HETATM   29  C9  UNL     1      14.953 -47.378   4.335  1.00  0.00    -0.013 C 
HETATM   30  C10 UNL     1      13.863 -47.963   3.487  1.00  0.00     0.035 C 
HETATM   31  C11 UNL     1      13.083 -48.835   4.453  1.00  0.00     0.087 C 
HETATM   32  C12 UNL     1      13.389 -48.203   5.755  1.00  0.00     0.157 C 
HETATM   33  O6  UNL     1      12.661 -48.254   6.804  1.00  0.00    -0.293 OA
ENDBRANCH  19  28
ENDBRANCH   1  19
TORSDOF 11
ENDMDL
MODEL 4
REMARK VINA RESULT: -8.173867816      3.355      7.112
REMARK  11 active torsions:
REMARK  status: ('A' for Active; 'I' for Inactive)
REMARK    1  A    between atoms: C3_5  and  N2_6 
REMARK    2  A    between atoms: N2_6  and  O1_8 
REMARK    3  A    between atoms: O1_8  and  C4_9 
REMARK    4  A    between atoms: C4_9  and  O2_10 
REMARK    5  A    between atoms: C5_14  and  N4_15 
REMARK    6  A    between atoms: N4_15  and  C6_17 
REMARK    7  A    between atoms: C6_17  and  C7_18 
REMARK    8  A    between atoms: C6_17  and  C8_26 
REMARK    9  A    between atoms: C7_18  and  O3_19 
REMARK   10  A    between atoms: O3_19  and  S1_20 
REMARK   11  A    between atoms: S1_20  and  N5_21 
ROOT
HETATM    1  N4  UNL     1      15.136 -45.852   7.247  1.00  0.00    -0.363 N 
ATOM      2  H4  UNL     1      14.892 -45.116   7.909  1.00  0.00     0.162 HD
ENDROOT
BRANCH   1   3
HETATM    3  C5  UNL     1      15.526 -45.320   6.224  1.00  0.00     0.144 A 
HETATM    4  N3  UNL     1      15.244 -45.934   5.035  1.00  0.00    -0.173 N 
HETATM    5  C3  UNL     1      15.643 -45.404   3.867  1.00  0.00     0.704 A 
ATOM      6  H3  UNL     1      14.721 -46.810   5.035  1.00  0.00     0.186 HD
HETATM    7  N1  UNL     1      16.332 -44.263   3.771  1.00  0.00    -0.192 N 
HETATM    8  C2  UNL     1      16.635 -43.622   4.905  1.00  0.00     0.050 A 
ATOM      9  H1  UNL     1      16.618 -43.894   2.864  1.00  0.00     0.184 HD
HETATM   10  C1  UNL     1      17.400 -42.336   4.935  1.00  0.00     0.071 C 
HETATM   11  C13 UNL     1      16.228 -44.156   6.136  1.00  0.00     0.113 A 
HETATM   12  N6  UNL     1      16.558 -43.461   7.326  1.00  0.00    -0.096 NA
BRANCH   5  13
HETATM   13  N2  UNL     1      15.355 -46.020   2.756  1.00  0.00    -0.094 N 
ATOM     14  H2  UNL     1      15.554 -45.542   1.877  1.00  0.00     0.213 HD
BRANCH  13  15
HETATM   15  O1  UNL     1      14.807 -47.257   2.700  1.00  0.00    -0.240 OA
BRANCH  15  16
HETATM   16  C4  UNL     1      14.966 -48.150   1.612  1.00  0.00     0.367 C 
BRANCH  16  17
HETATM   17  O2  UNL     1      15.930 -49.098   1.949  1.00  0.00    -0.375 OA
ATOM     18  H2  UNL     1      15.574 -49.669   2.620  1.00  0.00     0.212 HD
ENDBRANCH  16  17
ENDBRANCH  15  16
ENDBRANCH  13  15
ENDBRANCH   5  13
ENDBRANCH   1   3
BRANCH   1  19
HETATM   19  C6  UNL     1      14.896 -47.067   7.856  1.00  0.00     0.145 C 
BRANCH  19  20
HETATM   20  C7  UNL     1      13.405 -47.402   7.636  1.00  0.00     0.222 C 
BRANCH  20  21
HETATM   21  O3  UNL     1      13.104 -47.349   6.276  1.00  0.00    -0.257 OA
BRANCH  21  22
HETATM   22  S1  UNL     1      13.218 -48.819   5.529  1.00  0.00     0.355 S 
HETATM   23  O4  UNL     1      12.335 -48.853   4.316  1.00  0.00    -0.176 OA
HETATM   24  O5  UNL     1      12.775 -49.883   6.473  1.00  0.00    -0.176 OA
BRANCH  22  25
HETATM   25  N5  UNL     1      14.880 -49.080   5.105  1.00  0.00    -0.306 N 
ATOM     26  H52 UNL     1      15.203 -49.557   4.264  1.00  0.00     0.171 HD
ATOM     27  H51 UNL     1      15.461 -48.676   5.840  1.00  0.00     0.171 HD
ENDBRANCH  22  25
ENDBRANCH  21  22
ENDBRANCH  20  21
ENDBRANCH  19  20
BRANCH  19  28
HETATM   28  C8  UNL     1      15.127 -46.986   9.345  1.00  0.00     0.009 C 
HETATM   29  C9  UNL     1      15.106 -45.867  10.019  1.00  0.00    -0.013 C 
HETATM   30  C10 UNL     1      15.372 -46.132  11.472  1.00  0.00     0.035 C 
HETATM   31  C11 UNL     1      15.155 -47.626  11.611  1.00  0.00     0.087 C 
HETATM   32  C12 UNL     1      15.404 -48.104  10.233  1.00  0.00     0.157 C 
HETATM   33  O6  UNL     1      15.786 -49.278   9.903  1.00  0.00    -0.293 OA
ENDBRANCH  19  28
ENDBRANCH   1  19
TORSDOF 11
ENDMDL
MODEL 5
REMARK VINA RESULT: -8.017804939      2.717      3.912
REMARK  11 active torsions:
REMARK  status: ('A' for Active; 'I' for Inactive)
REMARK    1  A    between atoms: C3_5  and  N2_6 
REMARK    2  A    between atoms: N2_6  and  O1_8 
REMARK    3  A    between atoms: O1_8  and  C4_9 
REMARK    4  A    between atoms: C4_9  and  O2_10 
REMARK    5  A    between atoms: C5_14  and  N4_15 
REMARK    6  A    between atoms: N4_15  and  C6_17 
REMARK    7  A    between atoms: C6_17  and  C7_18 
REMARK    8  A    between atoms: C6_17  and  C8_26 
REMARK    9  A    between atoms: C7_18  and  O3_19 
REMARK   10  A    between atoms: O3_19  and  S1_20 
REMARK   11  A    between atoms: S1_20  and  N5_21 
ROOT
HETATM    1  N4  UNL     1      14.987 -46.405   6.711  1.00  0.00    -0.363 N 
ATOM      2  H4  UNL     1      15.275 -47.126   6.050  1.00  0.00     0.162 HD
ENDROOT
BRANCH   1   3
HETATM    3  C5  UNL     1      15.082 -46.868   7.833  1.00  0.00     0.144 A 
HETATM    4  N3  UNL     1      14.980 -46.008   8.892  1.00  0.00    -0.173 N 
HETATM    5  C3  UNL     1      15.075 -46.448  10.157  1.00  0.00     0.704 A 
ATOM      6  H3  UNL     1      14.829 -45.015   8.716  1.00  0.00     0.186 HD
HETATM    7  N1  UNL     1      15.272 -47.730  10.480  1.00  0.00    -0.192 N 
HETATM    8  C2  UNL     1      15.380 -48.613   9.481  1.00  0.00     0.050 A 
ATOM      9  H1  UNL     1      15.339 -48.024  11.454  1.00  0.00     0.184 HD
HETATM   10  C1  UNL     1      15.601 -50.076   9.708  1.00  0.00     0.071 C 
HETATM   11  C13 UNL     1      15.283 -48.177   8.152  1.00  0.00     0.113 A 
HETATM   12  N6  UNL     1      15.399 -49.129   7.109  1.00  0.00    -0.096 NA
BRANCH   5  13
HETATM   13  N2  UNL     1      14.972 -45.597  11.137  1.00  0.00    -0.094 N 
ATOM     14  H2  UNL     1      14.936 -44.604  10.908  1.00  0.00     0.213 HD
BRANCH  13  15
HETATM   15  O1  UNL     1      14.911 -45.954  12.442  1.00  0.00    -0.240 OA
BRANCH  15  16
HETATM   16  C4  UNL     1      16.039 -46.297  13.228  1.00  0.00     0.367 C 
BRANCH  16  17
HETATM   17  O2  UNL     1      16.279 -47.663  13.093  1.00  0.00    -0.375 OA
ATOM     18  H2  UNL     1      16.487 -48.021  13.948  1.00  0.00     0.212 HD
ENDBRANCH  16  17
ENDBRANCH  15  16
ENDBRANCH  13  15
ENDBRANCH   5  13
ENDBRANCH   1   3
BRANCH   1  19
HETATM   19  C6  UNL     1      14.640 -45.281   5.989  1.00  0.00     0.145 C 
BRANCH  19  20
HETATM   20  C7  UNL     1      13.877 -45.759   4.736  1.00  0.00     0.222 C 
BRANCH  20  21
HETATM   21  O3  UNL     1      13.649 -47.132   4.817  1.00  0.00    -0.257 OA
BRANCH  21  22
HETATM   22  S1  UNL     1      14.364 -47.980   3.591  1.00  0.00     0.355 S 
HETATM   23  O4  UNL     1      14.774 -47.050   2.488  1.00  0.00    -0.176 OA
HETATM   24  O5  UNL     1      13.388 -48.967   3.046  1.00  0.00    -0.176 OA
BRANCH  22  25
HETATM   25  N5  UNL     1      15.731 -48.824   4.245  1.00  0.00    -0.306 N 
ATOM     26  H52 UNL     1      15.698 -49.479   5.026  1.00  0.00     0.171 HD
ATOM     27  H51 UNL     1      16.557 -48.549   3.713  1.00  0.00     0.171 HD
ENDBRANCH  22  25
ENDBRANCH  21  22
ENDBRANCH  20  21
ENDBRANCH  19  20
BRANCH  19  28
HETATM   28  C8  UNL     1      15.866 -44.537   5.517  1.00  0.00     0.009 C 
HETATM   29  C9  UNL     1      16.547 -44.870   4.452  1.00  0.00    -0.013 C 
HETATM   30  C10 UNL     1      17.702 -43.931   4.262  1.00  0.00     0.035 C 
HETATM   31  C11 UNL     1      17.359 -42.753   5.154  1.00  0.00     0.087 C 
HETATM   32  C12 UNL     1      16.461 -43.373   6.153  1.00  0.00     0.157 C 
HETATM   33  O6  UNL     1      16.258 -42.953   7.342  1.00  0.00    -0.293 OA
ENDBRANCH  19  28
ENDBRANCH   1  19
TORSDOF 11
ENDMDL
