MODEL 1
REMARK VINA RESULT: -9.322831232      0.000      0.000
REMARK  7 active torsions:
REMARK  status: ('A' for Active; 'I' for Inactive)
REMARK    1  A    between atoms: C2_2  and  N1_3 
REMARK    2  A    between atoms: C2_2  and  C10_15 
REMARK    3  A    between atoms: N1_3  and  C3_5 
REMARK    4  A    between atoms: C6_8  and  C7_9 
REMARK       I    between atoms: C10_15  and  N2_17 
REMARK    5  A    between atoms: N2_17  and  N3_19 
REMARK    6  A    between atoms: C11_21  and  C12_22 
REMARK    7  A    between atoms: C19_29  and  C20_30 
ROOT
HETATM    1  N3  UNL     1       0.174 -11.321  -3.941  1.00  0.00    -0.310 N 
ATOM      2  H3  UNL     1      -0.765 -11.625  -3.681  1.00  0.00     0.185 HD
HETATM    3  C11 UNL     1       0.145 -10.475  -4.845  1.00  0.00     0.120 C 
ENDROOT
BRANCH   1   4
HETATM    4  N2  UNL     1       1.127 -11.952  -3.205  1.00  0.00    -0.269 N 
HETATM    5  C10 UNL     1       1.776 -13.156  -3.604  1.00  0.00     0.258 C 
HETATM    6  O1  UNL     1       1.432 -13.650  -4.688  1.00  0.00    -0.269 OA
ATOM      7  H2  UNL     1       1.394 -11.538  -2.312  1.00  0.00     0.190 HD
BRANCH   5   8
HETATM    8  C2  UNL     1       2.795 -13.750  -2.747  1.00  0.00     0.171 C 
HETATM    9  C1  UNL     1       3.124 -12.776  -1.604  1.00  0.00     0.042 C 
BRANCH   8  10
HETATM   10  N1  UNL     1       4.025 -14.131  -3.376  1.00  0.00    -0.377 N 
ATOM     11  H1  UNL     1       4.557 -13.462  -3.932  1.00  0.00     0.160 HD
BRANCH  10  12
HETATM   12  C3  UNL     1       4.489 -15.483  -3.204  1.00  0.00     0.028 A 
HETATM   13  C4  UNL     1       3.624 -16.477  -3.674  1.00  0.00     0.030 A 
HETATM   14  C5  UNL     1       3.968 -17.796  -3.521  1.00  0.00     0.018 A 
HETATM   15  C6  UNL     1       5.153 -18.199  -2.918  1.00  0.00     0.048 A 
HETATM   16  C8  UNL     1       5.963 -17.189  -2.481  1.00  0.00     0.018 A 
HETATM   17  C9  UNL     1       5.658 -15.851  -2.613  1.00  0.00     0.030 A 
BRANCH  15  18
HETATM   18  C7  UNL     1       5.499 -19.630  -2.740  1.00  0.00     0.417 C 
HETATM   19  F1  UNL     1       4.433 -20.327  -2.254  1.00  0.00    -0.166 F 
HETATM   20  F2  UNL     1       5.919 -20.103  -3.947  1.00  0.00    -0.166 F 
HETATM   21  F3  UNL     1       6.542 -19.662  -1.804  1.00  0.00    -0.166 F 
ENDBRANCH  15  18
ENDBRANCH  10  12
ENDBRANCH   8  10
ENDBRANCH   5   8
ENDBRANCH   1   4
BRANCH   3  22
HETATM   22  C12 UNL     1       1.344  -9.853  -5.431  1.00  0.00     0.126 C 
HETATM   23  C13 UNL     1       1.977 -10.613  -6.556  1.00  0.00     0.055 C 
HETATM   24  C14 UNL     1       1.135  -8.438  -5.910  1.00  0.00     0.050 C 
HETATM   25  C15 UNL     1       1.136  -7.415  -4.788  1.00  0.00     0.044 C 
HETATM   26  C16 UNL     1       2.085  -7.860  -3.722  1.00  0.00     0.096 C 
HETATM   27  C17 UNL     1       1.999  -7.005  -2.504  1.00  0.00     0.042 C 
HETATM   28  C25 UNL     1       3.513  -7.917  -4.280  1.00  0.00     0.042 C 
HETATM   29  O2  UNL     1       1.753  -9.197  -3.405  1.00  0.00    -0.229 OA
HETATM   30  C18 UNL     1       3.117  -7.317  -1.517  1.00  0.00     0.008 C 
HETATM   31  C19 UNL     1       4.471  -7.201  -2.186  1.00  0.00    -0.007 C 
HETATM   32  C24 UNL     1       4.371  -6.819  -3.642  1.00  0.00     0.008 C 
HETATM   33  O3  UNL     1       2.314  -9.893  -4.384  1.00  0.00    -0.224 OA
BRANCH  31  34
HETATM   34  C20 UNL     1       5.429  -6.348  -1.420  1.00  0.00    -0.048 C 
HETATM   35  C21 UNL     1       5.551  -6.976  -0.038  1.00  0.00     0.015 C 
HETATM   36  C22 UNL     1       6.750  -6.327  -2.110  1.00  0.00     0.015 C 
HETATM   37  C23 UNL     1       4.836  -4.956  -1.326  1.00  0.00     0.015 C 
ENDBRANCH  31  34
ENDBRANCH   3  22
TORSDOF 7
ENDMDL
MODEL 2
REMARK VINA RESULT: -9.248746086      1.015      1.511
REMARK  7 active torsions:
REMARK  status: ('A' for Active; 'I' for Inactive)
REMARK    1  A    between atoms: C2_2  and  N1_3 
REMARK    2  A    between atoms: C2_2  and  C10_15 
REMARK    3  A    between atoms: N1_3  and  C3_5 
REMARK    4  A    between atoms: C6_8  and  C7_9 
REMARK       I    between atoms: C10_15  and  N2_17 
REMARK    5  A    between atoms: N2_17  and  N3_19 
REMARK    6  A    between atoms: C11_21  and  C12_22 
REMARK    7  A    between atoms: C19_29  and  C20_30 
ROOT
HETATM    1  N3  UNL     1       1.176 -10.994  -3.063  1.00  0.00    -0.310 N 
ATOM      2  H3  UNL     1       0.257 -11.308  -2.749  1.00  0.00     0.185 HD
HETATM    3  C11 UNL     1       1.087 -10.073  -3.885  1.00  0.00     0.120 C 
ENDROOT
BRANCH   1   4
HETATM    4  N2  UNL     1       2.175 -11.698  -2.468  1.00  0.00    -0.269 N 
HETATM    5  C10 UNL     1       2.727 -12.902  -2.995  1.00  0.00     0.258 C 
HETATM    6  O1  UNL     1       2.248 -13.324  -4.057  1.00  0.00    -0.269 OA
ATOM      7  H2  UNL     1       2.553 -11.343  -1.589  1.00  0.00     0.190 HD
BRANCH   5   8
HETATM    8  C2  UNL     1       3.806 -13.577  -2.284  1.00  0.00     0.171 C 
HETATM    9  C1  UNL     1       4.524 -12.566  -1.376  1.00  0.00     0.042 C 
BRANCH   8  10
HETATM   10  N1  UNL     1       4.794 -14.235  -3.088  1.00  0.00    -0.377 N 
ATOM     11  H1  UNL     1       5.448 -13.697  -3.656  1.00  0.00     0.160 HD
BRANCH  10  12
HETATM   12  C3  UNL     1       4.840 -15.673  -3.071  1.00  0.00     0.028 A 
HETATM   13  C4  UNL     1       6.001 -16.228  -2.523  1.00  0.00     0.030 A 
HETATM   14  C5  UNL     1       6.148 -17.593  -2.495  1.00  0.00     0.018 A 
HETATM   15  C6  UNL     1       5.183 -18.462  -2.989  1.00  0.00     0.048 A 
HETATM   16  C8  UNL     1       4.068 -17.868  -3.508  1.00  0.00     0.018 A 
HETATM   17  C9  UNL     1       3.878 -16.504  -3.557  1.00  0.00     0.030 A 
BRANCH  15  18
HETATM   18  C7  UNL     1       5.368 -19.933  -2.973  1.00  0.00     0.417 C 
HETATM   19  F1  UNL     1       6.213 -20.303  -1.969  1.00  0.00    -0.166 F 
HETATM   20  F2  UNL     1       4.135 -20.500  -2.847  1.00  0.00    -0.166 F 
HETATM   21  F3  UNL     1       5.942 -20.263  -4.209  1.00  0.00    -0.166 F 
ENDBRANCH  15  18
ENDBRANCH  10  12
ENDBRANCH   8  10
ENDBRANCH   5   8
ENDBRANCH   1   4
BRANCH   3  22
HETATM   22  C12 UNL     1       2.244  -9.417  -4.518  1.00  0.00     0.126 C 
HETATM   23  C13 UNL     1       2.870 -10.172  -5.650  1.00  0.00     0.055 C 
HETATM   24  C14 UNL     1       1.968  -8.019  -5.011  1.00  0.00     0.050 C 
HETATM   25  C15 UNL     1       1.966  -6.978  -3.906  1.00  0.00     0.044 C 
HETATM   26  C16 UNL     1       2.962  -7.371  -2.863  1.00  0.00     0.096 C 
HETATM   27  C17 UNL     1       2.882  -6.500  -1.656  1.00  0.00     0.042 C 
HETATM   28  C25 UNL     1       4.375  -7.386  -3.463  1.00  0.00     0.042 C 
HETATM   29  O2  UNL     1       2.690  -8.714  -2.515  1.00  0.00    -0.229 OA
HETATM   30  C18 UNL     1       4.040  -6.756  -0.699  1.00  0.00     0.008 C 
HETATM   31  C19 UNL     1       5.368  -6.601  -1.411  1.00  0.00    -0.007 C 
HETATM   32  C24 UNL     1       5.211  -6.247  -2.869  1.00  0.00     0.008 C 
HETATM   33  O3  UNL     1       3.247  -9.406  -3.500  1.00  0.00    -0.224 OA
BRANCH  31  34
HETATM   34  C20 UNL     1       6.317  -5.702  -0.688  1.00  0.00    -0.048 C 
HETATM   35  C21 UNL     1       6.682  -6.416   0.606  1.00  0.00     0.015 C 
HETATM   36  C22 UNL     1       7.529  -5.469  -1.524  1.00  0.00     0.015 C 
HETATM   37  C23 UNL     1       5.592  -4.402  -0.397  1.00  0.00     0.015 C 
ENDBRANCH  31  34
ENDBRANCH   3  22
TORSDOF 7
ENDMDL
MODEL 3
REMARK VINA RESULT: -9.193750426      1.936      3.072
REMARK  7 active torsions:
REMARK  status: ('A' for Active; 'I' for Inactive)
REMARK    1  A    between atoms: C2_2  and  N1_3 
REMARK    2  A    between atoms: C2_2  and  C10_15 
REMARK    3  A    between atoms: N1_3  and  C3_5 
REMARK    4  A    between atoms: C6_8  and  C7_9 
REMARK       I    between atoms: C10_15  and  N2_17 
REMARK    5  A    between atoms: N2_17  and  N3_19 
REMARK    6  A    between atoms: C11_21  and  C12_22 
REMARK    7  A    between atoms: C19_29  and  C20_30 
ROOT
HETATM    1  N3  UNL     1       3.904 -10.103  -5.276  1.00  0.00    -0.310 N 
ATOM      2  H3  UNL     1       4.399 -10.305  -6.145  1.00  0.00     0.185 HD
HETATM    3  C11 UNL     1       3.798  -8.884  -5.084  1.00  0.00     0.120 C 
ENDROOT
BRANCH   1   4
HETATM    4  N2  UNL     1       3.533 -11.242  -4.634  1.00  0.00    -0.269 N 
HETATM    5  C10 UNL     1       4.442 -12.112  -3.965  1.00  0.00     0.258 C 
HETATM    6  O1  UNL     1       5.641 -11.801  -3.987  1.00  0.00    -0.269 OA
ATOM      7  H2  UNL     1       2.544 -11.490  -4.631  1.00  0.00     0.190 HD
BRANCH   5   8
HETATM    8  C2  UNL     1       3.942 -13.307  -3.295  1.00  0.00     0.171 C 
HETATM    9  C1  UNL     1       2.871 -12.901  -2.269  1.00  0.00     0.042 C 
BRANCH   8  10
HETATM   10  N1  UNL     1       4.912 -14.125  -2.627  1.00  0.00    -0.377 N 
ATOM     11  H1  UNL     1       5.599 -13.712  -1.997  1.00  0.00     0.160 HD
BRANCH  10  12
HETATM   12  C3  UNL     1       4.890 -15.544  -2.868  1.00  0.00     0.028 A 
HETATM   13  C4  UNL     1       5.991 -16.251  -2.375  1.00  0.00     0.030 A 
HETATM   14  C5  UNL     1       6.073 -17.604  -2.588  1.00  0.00     0.018 A 
HETATM   15  C6  UNL     1       5.099 -18.317  -3.275  1.00  0.00     0.048 A 
HETATM   16  C8  UNL     1       4.044 -17.579  -3.732  1.00  0.00     0.018 A 
HETATM   17  C9  UNL     1       3.920 -16.219  -3.542  1.00  0.00     0.030 A 
BRANCH  15  18
HETATM   18  C7  UNL     1       5.215 -19.776  -3.517  1.00  0.00     0.417 C 
HETATM   19  F1  UNL     1       5.888 -20.021  -4.676  1.00  0.00    -0.166 F 
HETATM   20  F2  UNL     1       5.834 -20.322  -2.433  1.00  0.00    -0.166 F 
HETATM   21  F3  UNL     1       3.902 -20.254  -3.632  1.00  0.00    -0.166 F 
ENDBRANCH  15  18
ENDBRANCH  10  12
ENDBRANCH   8  10
ENDBRANCH   5   8
ENDBRANCH   1   4
BRANCH   3  22
HETATM   22  C12 UNL     1       3.135  -8.287  -3.913  1.00  0.00     0.126 C 
HETATM   23  C13 UNL     1       1.684  -7.963  -4.091  1.00  0.00     0.055 C 
HETATM   24  C14 UNL     1       3.259  -9.103  -2.651  1.00  0.00     0.050 C 
HETATM   25  C15 UNL     1       4.611  -8.966  -1.973  1.00  0.00     0.044 C 
HETATM   26  C16 UNL     1       5.125  -7.579  -2.187  1.00  0.00     0.096 C 
HETATM   27  C17 UNL     1       6.531  -7.424  -1.714  1.00  0.00     0.042 C 
HETATM   28  C25 UNL     1       4.186  -6.561  -1.526  1.00  0.00     0.042 C 
HETATM   29  O2  UNL     1       5.045  -7.316  -3.574  1.00  0.00    -0.229 OA
HETATM   30  C18 UNL     1       6.971  -5.966  -1.724  1.00  0.00     0.008 C 
HETATM   31  C19 UNL     1       6.014  -5.111  -0.918  1.00  0.00    -0.007 C 
HETATM   32  C24 UNL     1       4.878  -5.908  -0.325  1.00  0.00     0.008 C 
HETATM   33  O3  UNL     1       3.767  -7.015  -3.756  1.00  0.00    -0.224 OA
BRANCH  31  34
HETATM   34  C20 UNL     1       6.707  -4.244   0.081  1.00  0.00    -0.048 C 
HETATM   35  C21 UNL     1       7.628  -5.158   0.878  1.00  0.00     0.015 C 
HETATM   36  C22 UNL     1       7.490  -3.188  -0.624  1.00  0.00     0.015 C 
HETATM   37  C23 UNL     1       5.649  -3.634   0.979  1.00  0.00     0.015 C 
ENDBRANCH  31  34
ENDBRANCH   3  22
TORSDOF 7
ENDMDL
MODEL 4
REMARK VINA RESULT: -8.960809934      3.222      5.670
REMARK  7 active torsions:
REMARK  status: ('A' for Active; 'I' for Inactive)
REMARK    1  A    between atoms: C2_2  and  N1_3 
REMARK    2  A    between atoms: C2_2  and  C10_15 
REMARK    3  A    between atoms: N1_3  and  C3_5 
REMARK    4  A    between atoms: C6_8  and  C7_9 
REMARK       I    between atoms: C10_15  and  N2_17 
REMARK    5  A    between atoms: N2_17  and  N3_19 
REMARK    6  A    between atoms: C11_21  and  C12_22 
REMARK    7  A    between atoms: C19_29  and  C20_30 
ROOT
HETATM    1  N3  UNL     1       6.688  -7.221  -2.945  1.00  0.00    -0.310 N 
ATOM      2  H3  UNL     1       7.280  -6.547  -3.431  1.00  0.00     0.185 HD
HETATM    3  C11 UNL     1       5.678  -6.684  -2.471  1.00  0.00     0.120 C 
ENDROOT
BRANCH   1   4
HETATM    4  N2  UNL     1       7.216  -8.473  -2.988  1.00  0.00    -0.269 N 
HETATM    5  C10 UNL     1       7.217  -9.299  -4.149  1.00  0.00     0.258 C 
HETATM    6  O1  UNL     1       6.693  -8.836  -5.172  1.00  0.00    -0.269 OA
ATOM      7  H2  UNL     1       7.637  -8.844  -2.136  1.00  0.00     0.190 HD
BRANCH   5   8
HETATM    8  C2  UNL     1       7.820 -10.626  -4.095  1.00  0.00     0.171 C 
HETATM    9  C1  UNL     1       7.369 -11.437  -5.321  1.00  0.00     0.042 C 
BRANCH   8  10
HETATM   10  N1  UNL     1       7.555 -11.407  -2.922  1.00  0.00    -0.377 N 
ATOM     11  H1  UNL     1       8.141 -11.320  -2.092  1.00  0.00     0.160 HD
BRANCH  10  12
HETATM   12  C3  UNL     1       6.440 -12.317  -2.947  1.00  0.00     0.028 A 
HETATM   13  C4  UNL     1       6.761 -13.662  -2.730  1.00  0.00     0.030 A 
HETATM   14  C5  UNL     1       5.766 -14.606  -2.769  1.00  0.00     0.018 A 
HETATM   15  C6  UNL     1       4.436 -14.287  -3.012  1.00  0.00     0.048 A 
HETATM   16  C8  UNL     1       4.177 -12.962  -3.213  1.00  0.00     0.018 A 
HETATM   17  C9  UNL     1       5.144 -11.979  -3.183  1.00  0.00     0.030 A 
BRANCH  15  18
HETATM   18  C7  UNL     1       3.378 -15.324  -3.074  1.00  0.00     0.417 C 
HETATM   19  F1  UNL     1       2.936 -15.488  -4.353  1.00  0.00    -0.166 F 
HETATM   20  F2  UNL     1       3.898 -16.472  -2.555  1.00  0.00    -0.166 F 
HETATM   21  F3  UNL     1       2.326 -14.851  -2.276  1.00  0.00    -0.166 F 
ENDBRANCH  15  18
ENDBRANCH  10  12
ENDBRANCH   8  10
ENDBRANCH   5   8
ENDBRANCH   1   4
BRANCH   3  22
HETATM   22  C12 UNL     1       4.640  -7.402  -1.713  1.00  0.00     0.126 C 
HETATM   23  C13 UNL     1       5.010  -7.772  -0.310  1.00  0.00     0.055 C 
HETATM   24  C14 UNL     1       3.314  -6.686  -1.651  1.00  0.00     0.050 C 
HETATM   25  C15 UNL     1       2.496  -6.819  -2.923  1.00  0.00     0.044 C 
HETATM   26  C16 UNL     1       2.753  -8.161  -3.531  1.00  0.00     0.096 C 
HETATM   27  C17 UNL     1       2.133  -8.293  -4.880  1.00  0.00     0.042 C 
HETATM   28  C25 UNL     1       2.285  -9.269  -2.577  1.00  0.00     0.042 C 
HETATM   29  O2  UNL     1       4.156  -8.313  -3.621  1.00  0.00    -0.229 OA
HETATM   30  C18 UNL     1       2.202  -9.725  -5.395  1.00  0.00     0.008 C 
HETATM   31  C19 UNL     1       1.580 -10.682  -4.399  1.00  0.00    -0.007 C 
HETATM   32  C24 UNL     1       1.065  -9.987  -3.163  1.00  0.00     0.008 C 
HETATM   33  O3  UNL     1       4.508  -8.653  -2.389  1.00  0.00    -0.224 OA
BRANCH  31  34
HETATM   34  C20 UNL     1       0.575 -11.597  -5.020  1.00  0.00    -0.048 C 
HETATM   35  C21 UNL     1       0.684 -11.397  -6.525  1.00  0.00     0.015 C 
HETATM   36  C22 UNL     1       0.882 -13.009  -4.650  1.00  0.00     0.015 C 
HETATM   37  C23 UNL     1      -0.796 -11.186  -4.522  1.00  0.00     0.015 C 
ENDBRANCH  31  34
ENDBRANCH   3  22
TORSDOF 7
ENDMDL
MODEL 5
REMARK VINA RESULT: -8.857819174      3.735      4.736
REMARK  7 active torsions:
REMARK  status: ('A' for Active; 'I' for Inactive)
REMARK    1  A    between atoms: C2_2  and  N1_3 
REMARK    2  A    between atoms: C2_2  and  C10_15 
REMARK    3  A    between atoms: N1_3  and  C3_5 
REMARK    4  A    between atoms: C6_8  and  C7_9 
REMARK       I    between atoms: C10_15  and  N2_17 
REMARK    5  A    between atoms: N2_17  and  N3_19 
REMARK    6  A    between atoms: C11_21  and  C12_22 
REMARK    7  A    between atoms: C19_29  and  C20_30 
ROOT
HETATM    1  N3  UNL     1      -0.059 -11.139  -4.091  1.00  0.00    -0.310 N 
ATOM      2  H3  UNL     1      -0.968 -11.488  -3.786  1.00  0.00     0.185 HD
HETATM    3  C11 UNL     1      -0.169 -10.104  -4.762  1.00  0.00     0.120 C 
ENDROOT
BRANCH   1   4
HETATM    4  N2  UNL     1       0.955 -11.933  -3.655  1.00  0.00    -0.269 N 
HETATM    5  C10 UNL     1       1.491 -13.023  -4.400  1.00  0.00     0.258 C 
HETATM    6  O1  UNL     1       0.986 -13.252  -5.508  1.00  0.00    -0.269 OA
ATOM      7  H2  UNL     1       1.355 -11.738  -2.738  1.00  0.00     0.190 HD
BRANCH   5   8
HETATM    8  C2  UNL     1       2.588 -13.810  -3.848  1.00  0.00     0.171 C 
HETATM    9  C1  UNL     1       2.070 -15.210  -3.479  1.00  0.00     0.042 C 
BRANCH   8  10
HETATM   10  N1  UNL     1       3.258 -13.267  -2.703  1.00  0.00    -0.377 N 
ATOM     11  H1  UNL     1       3.112 -13.662  -1.775  1.00  0.00     0.160 HD
BRANCH  10  12
HETATM   12  C3  UNL     1       4.145 -12.150  -2.899  1.00  0.00     0.028 A 
HETATM   13  C4  UNL     1       4.988 -12.243  -4.012  1.00  0.00     0.030 A 
HETATM   14  C5  UNL     1       5.891 -11.240  -4.259  1.00  0.00     0.018 A 
HETATM   15  C6  UNL     1       6.008 -10.118  -3.448  1.00  0.00     0.048 A 
HETATM   16  C8  UNL     1       5.160 -10.075  -2.379  1.00  0.00     0.018 A 
HETATM   17  C9  UNL     1       4.238 -11.059  -2.092  1.00  0.00     0.030 A 
BRANCH  15  18
HETATM   18  C7  UNL     1       7.007  -9.055  -3.717  1.00  0.00     0.417 C 
HETATM   19  F1  UNL     1       7.380  -8.440  -2.560  1.00  0.00    -0.166 F 
HETATM   20  F2  UNL     1       8.059  -9.635  -4.358  1.00  0.00    -0.166 F 
HETATM   21  F3  UNL     1       6.367  -8.127  -4.551  1.00  0.00    -0.166 F 
ENDBRANCH  15  18
ENDBRANCH  10  12
ENDBRANCH   8  10
ENDBRANCH   5   8
ENDBRANCH   1   4
BRANCH   3  22
HETATM   22  C12 UNL     1       0.969  -9.372  -5.342  1.00  0.00     0.126 C 
HETATM   23  C13 UNL     1       1.565  -9.982  -6.573  1.00  0.00     0.055 C 
HETATM   24  C14 UNL     1       0.678  -7.926  -5.656  1.00  0.00     0.050 C 
HETATM   25  C15 UNL     1       0.705  -7.025  -4.434  1.00  0.00     0.044 C 
HETATM   26  C16 UNL     1       1.730  -7.536  -3.474  1.00  0.00     0.096 C 
HETATM   27  C17 UNL     1       1.683  -6.817  -2.169  1.00  0.00     0.042 C 
HETATM   28  C25 UNL     1       3.126  -7.471  -4.110  1.00  0.00     0.042 C 
HETATM   29  O2  UNL     1       1.470  -8.912  -3.282  1.00  0.00    -0.229 OA
HETATM   30  C18 UNL     1       2.867  -7.180  -1.281  1.00  0.00     0.008 C 
HETATM   31  C19 UNL     1       4.174  -6.935  -2.006  1.00  0.00    -0.007 C 
HETATM   32  C24 UNL     1       3.976  -6.409  -3.406  1.00  0.00     0.008 C 
HETATM   33  O3  UNL     1       2.000  -9.478  -4.358  1.00  0.00    -0.224 OA
BRANCH  31  34
HETATM   34  C20 UNL     1       5.141  -6.124  -1.205  1.00  0.00    -0.048 C 
HETATM   35  C21 UNL     1       5.537  -6.983  -0.012  1.00  0.00     0.015 C 
HETATM   36  C22 UNL     1       6.333  -5.794  -2.038  1.00  0.00     0.015 C 
HETATM   37  C23 UNL     1       4.426  -4.868  -0.749  1.00  0.00     0.015 C 
ENDBRANCH  31  34
ENDBRANCH   3  22
TORSDOF 7
ENDMDL
