MODEL 1
REMARK VINA RESULT: -8.149333977      0.000      0.000
REMARK  7 active torsions:
REMARK  status: ('A' for Active; 'I' for Inactive)
REMARK    1  A    between atoms: O1_2  and  C2_3 
REMARK    2  A    between atoms: C7_8  and  C8_9 
REMARK    3  A    between atoms: C8_9  and  N1_10 
REMARK    4  A    between atoms: C8_9  and  C15_18 
REMARK    5  A    between atoms: N1_10  and  C9_12 
REMARK    6  A    between atoms: C22_31  and  N4_32 
REMARK    7  A    between atoms: N4_32  and  C23_34 
ROOT
HETATM    1  C2  UNL     1       5.568 -12.658  -3.262  1.00  0.00     0.079 A 
HETATM    2  C3  UNL     1       6.850 -13.081  -3.329  1.00  0.00     0.069 A 
HETATM    3  C4  UNL     1       7.804 -12.393  -4.073  1.00  0.00     0.065 A 
HETATM    4  C5  UNL     1       7.399 -11.266  -4.739  1.00  0.00     0.061 A 
HETATM    5  C6  UNL     1       6.069 -10.848  -4.645  1.00  0.00     0.044 A 
HETATM    6  C7  UNL     1       5.115 -11.519  -3.915  1.00  0.00     0.009 A 
HETATM    7  N2  UNL     1       8.476 -10.799  -5.380  1.00  0.00    -0.342 N 
ATOM      8  H2  UNL     1       8.488  -9.968  -5.972  1.00  0.00     0.167 HD
HETATM    9  C16 UNL     1       9.542 -11.581  -5.132  1.00  0.00     0.107 A 
HETATM   10  N3  UNL     1       9.137 -12.554  -4.325  1.00  0.00    -0.332 N 
HETATM   11  C17 UNL     1      10.035 -13.521  -3.716  1.00  0.00     0.139 C 
HETATM   12  C18 UNL     1      11.482 -13.253  -3.906  1.00  0.00    -0.029 C 
HETATM   13  C19 UNL     1      12.123 -14.479  -4.548  1.00  0.00     0.016 C 
HETATM   14  C20 UNL     1      12.127 -13.200  -2.488  1.00  0.00     0.016 C 
HETATM   15  C21 UNL     1      11.881 -11.990  -4.558  1.00  0.00     0.043 C 
HETATM   16  C22 UNL     1      10.939 -11.511  -5.648  1.00  0.00     0.151 C 
ENDROOT
BRANCH   6  17
HETATM   17  C8  UNL     1       3.701 -11.107  -3.918  1.00  0.00     0.222 C 
BRANCH  17  18
HETATM   18  N1  UNL     1       2.701 -11.913  -4.425  1.00  0.00    -0.402 N 
ATOM     19  H1  UNL     1       2.410 -12.770  -3.955  1.00  0.00     0.154 HD
BRANCH  18  20
HETATM   20  C9  UNL     1       2.090 -11.475  -5.658  1.00  0.00     0.077 C 
HETATM   21  C10 UNL     1       0.614 -11.757  -5.592  1.00  0.00     0.024 C 
HETATM   22  C11 UNL     1      -0.037 -10.928  -4.536  1.00  0.00     0.002 C 
HETATM   23  C12 UNL     1       0.281  -9.461  -4.669  1.00  0.00     0.000 C 
HETATM   24  C13 UNL     1       0.935  -9.267  -5.995  1.00  0.00     0.002 C 
HETATM   25  C14 UNL     1       2.267 -10.022  -5.966  1.00  0.00     0.024 C 
ENDBRANCH  18  20
ENDBRANCH  17  18
BRANCH  17  26
HETATM   26  C15 UNL     1       3.326 -10.499  -2.544  1.00  0.00     0.411 C 
HETATM   27  F1  UNL     1       2.888  -9.165  -2.819  1.00  0.00    -0.168 F 
HETATM   28  F2  UNL     1       4.424 -10.359  -1.735  1.00  0.00    -0.168 F 
HETATM   29  F3  UNL     1       2.337 -11.235  -1.949  1.00  0.00    -0.168 F 
ENDBRANCH  17  26
ENDBRANCH   6  17
BRANCH   1  30
HETATM   30  O1  UNL     1       4.670 -13.377  -2.511  1.00  0.00    -0.355 OA
HETATM   31  C1  UNL     1       4.285 -14.688  -2.905  1.00  0.00     0.210 C 
ENDBRANCH   1  30
BRANCH  16  32
HETATM   32  N4  UNL     1      11.210 -12.245  -6.846  1.00  0.00    -0.373 N 
ATOM     33  H4  UNL     1      10.426 -12.773  -7.229  1.00  0.00     0.161 HD
BRANCH  32  34
HETATM   34  C23 UNL     1      12.420 -12.332  -7.567  1.00  0.00     0.070 C 
HETATM   35  C24 UNL     1      12.788 -13.681  -8.139  1.00  0.00     0.081 C 
HETATM   36  S1  UNL     1      13.385 -11.037  -7.795  1.00  0.00    -0.066 SA
ENDBRANCH  32  34
ENDBRANCH  16  32
TORSDOF 7
ENDMDL
MODEL 2
REMARK VINA RESULT: -8.089678510      1.031      1.122
REMARK  7 active torsions:
REMARK  status: ('A' for Active; 'I' for Inactive)
REMARK    1  A    between atoms: O1_2  and  C2_3 
REMARK    2  A    between atoms: C7_8  and  C8_9 
REMARK    3  A    between atoms: C8_9  and  N1_10 
REMARK    4  A    between atoms: C8_9  and  C15_18 
REMARK    5  A    between atoms: N1_10  and  C9_12 
REMARK    6  A    between atoms: C22_31  and  N4_32 
REMARK    7  A    between atoms: N4_32  and  C23_34 
ROOT
HETATM    1  C2  UNL     1       5.701 -12.239  -3.206  1.00  0.00     0.079 A 
HETATM    2  C3  UNL     1       6.946 -12.764  -3.259  1.00  0.00     0.069 A 
HETATM    3  C4  UNL     1       7.915 -12.250  -4.116  1.00  0.00     0.065 A 
HETATM    4  C5  UNL     1       7.564 -11.188  -4.907  1.00  0.00     0.061 A 
HETATM    5  C6  UNL     1       6.273 -10.662  -4.826  1.00  0.00     0.044 A 
HETATM    6  C7  UNL     1       5.304 -11.160  -3.986  1.00  0.00     0.009 A 
HETATM    7  N2  UNL     1       8.645 -10.889  -5.637  1.00  0.00    -0.342 N 
ATOM      8  H2  UNL     1       8.692 -10.143  -6.331  1.00  0.00     0.167 HD
HETATM    9  C16 UNL     1       9.661 -11.713  -5.326  1.00  0.00     0.107 A 
HETATM   10  N3  UNL     1       9.221 -12.543  -4.387  1.00  0.00    -0.332 N 
HETATM   11  C17 UNL     1      10.072 -13.491  -3.688  1.00  0.00     0.139 C 
HETATM   12  C18 UNL     1      11.526 -13.360  -3.957  1.00  0.00    -0.029 C 
HETATM   13  C19 UNL     1      12.050 -14.702  -4.457  1.00  0.00     0.016 C 
HETATM   14  C20 UNL     1      12.231 -13.178  -2.579  1.00  0.00     0.016 C 
HETATM   15  C21 UNL     1      11.987 -12.224  -4.779  1.00  0.00     0.043 C 
HETATM   16  C22 UNL     1      11.037 -11.815  -5.891  1.00  0.00     0.151 C 
ENDROOT
BRANCH   6  17
HETATM   17  C8  UNL     1       3.925 -10.646  -3.997  1.00  0.00     0.222 C 
BRANCH  17  18
HETATM   18  N1  UNL     1       2.828 -11.477  -3.881  1.00  0.00    -0.402 N 
ATOM     19  H1  UNL     1       2.605 -11.957  -3.009  1.00  0.00     0.154 HD
BRANCH  18  20
HETATM   20  C9  UNL     1       2.013 -11.628  -5.063  1.00  0.00     0.077 C 
HETATM   21  C10 UNL     1       0.566 -11.520  -4.669  1.00  0.00     0.024 C 
HETATM   22  C11 UNL     1       0.254 -10.149  -4.173  1.00  0.00     0.002 C 
HETATM   23  C12 UNL     1       0.689  -9.069  -5.129  1.00  0.00     0.000 C 
HETATM   24  C13 UNL     1       1.056  -9.734  -6.413  1.00  0.00     0.002 C 
HETATM   25  C14 UNL     1       2.273 -10.622  -6.140  1.00  0.00     0.024 C 
ENDBRANCH  18  20
ENDBRANCH  17  18
BRANCH  17  26
HETATM   26  C15 UNL     1       3.818  -9.402  -3.079  1.00  0.00     0.411 C 
HETATM   27  F1  UNL     1       3.764  -8.276  -3.960  1.00  0.00    -0.168 F 
HETATM   28  F2  UNL     1       4.955  -9.223  -2.334  1.00  0.00    -0.168 F 
HETATM   29  F3  UNL     1       2.697  -9.479  -2.298  1.00  0.00    -0.168 F 
ENDBRANCH  17  26
ENDBRANCH   6  17
BRANCH   1  30
HETATM   30  O1  UNL     1       4.786 -12.788  -2.340  1.00  0.00    -0.355 OA
HETATM   31  C1  UNL     1       4.814 -12.461  -0.957  1.00  0.00     0.210 C 
ENDBRANCH   1  30
BRANCH  16  32
HETATM   32  N4  UNL     1      11.205 -12.712  -6.993  1.00  0.00    -0.373 N 
ATOM     33  H4  UNL     1      10.378 -13.248  -7.258  1.00  0.00     0.161 HD
BRANCH  32  34
HETATM   34  C23 UNL     1      12.364 -12.953  -7.759  1.00  0.00     0.070 C 
HETATM   35  C24 UNL     1      13.288 -11.782  -8.001  1.00  0.00     0.081 C 
HETATM   36  S1  UNL     1      12.716 -14.431  -8.354  1.00  0.00    -0.066 SA
ENDBRANCH  32  34
ENDBRANCH  16  32
TORSDOF 7
ENDMDL
MODEL 3
REMARK VINA RESULT: -7.920802140      6.217      8.021
REMARK  7 active torsions:
REMARK  status: ('A' for Active; 'I' for Inactive)
REMARK    1  A    between atoms: O1_2  and  C2_3 
REMARK    2  A    between atoms: C7_8  and  C8_9 
REMARK    3  A    between atoms: C8_9  and  N1_10 
REMARK    4  A    between atoms: C8_9  and  C15_18 
REMARK    5  A    between atoms: N1_10  and  C9_12 
REMARK    6  A    between atoms: C22_31  and  N4_32 
REMARK    7  A    between atoms: N4_32  and  C23_34 
ROOT
HETATM    1  C2  UNL     1       3.770  -6.614  -2.718  1.00  0.00     0.079 A 
HETATM    2  C3  UNL     1       4.294  -5.735  -1.836  1.00  0.00     0.069 A 
HETATM    3  C4  UNL     1       5.558  -5.925  -1.285  1.00  0.00     0.065 A 
HETATM    4  C5  UNL     1       6.256  -7.039  -1.668  1.00  0.00     0.061 A 
HETATM    5  C6  UNL     1       5.693  -7.927  -2.587  1.00  0.00     0.044 A 
HETATM    6  C7  UNL     1       4.445  -7.753  -3.139  1.00  0.00     0.009 A 
HETATM    7  N2  UNL     1       7.417  -7.003  -1.002  1.00  0.00    -0.342 N 
ATOM      8  H2  UNL     1       8.152  -7.708  -1.073  1.00  0.00     0.167 HD
HETATM    9  C16 UNL     1       7.477  -5.906  -0.227  1.00  0.00     0.107 A 
HETATM   10  N3  UNL     1       6.344  -5.237  -0.403  1.00  0.00    -0.332 N 
HETATM   11  C17 UNL     1       6.091  -3.920   0.156  1.00  0.00     0.139 C 
HETATM   12  C18 UNL     1       7.257  -3.268   0.802  1.00  0.00    -0.029 C 
HETATM   13  C19 UNL     1       6.881  -2.909   2.235  1.00  0.00     0.016 C 
HETATM   14  C20 UNL     1       7.447  -1.884   0.112  1.00  0.00     0.016 C 
HETATM   15  C21 UNL     1       8.573  -3.931   0.704  1.00  0.00     0.043 C 
HETATM   16  C22 UNL     1       8.525  -5.449   0.730  1.00  0.00     0.151 C 
ENDROOT
BRANCH   6  17
HETATM   17  C8  UNL     1       3.840  -8.759  -4.028  1.00  0.00     0.222 C 
BRANCH  17  18
HETATM   18  N1  UNL     1       2.570  -8.612  -4.550  1.00  0.00    -0.402 N 
ATOM     19  H1  UNL     1       2.374  -7.975  -5.321  1.00  0.00     0.154 HD
BRANCH  18  20
HETATM   20  C9  UNL     1       1.533  -9.412  -3.941  1.00  0.00     0.077 C 
HETATM   21  C10 UNL     1       0.380  -9.519  -4.899  1.00  0.00     0.024 C 
HETATM   22  C11 UNL     1       0.774 -10.282  -6.119  1.00  0.00     0.002 C 
HETATM   23  C12 UNL     1       1.400 -11.614  -5.795  1.00  0.00     0.000 C 
HETATM   24  C13 UNL     1       1.177 -11.869  -4.343  1.00  0.00     0.002 C 
HETATM   25  C14 UNL     1       1.948 -10.799  -3.564  1.00  0.00     0.024 C 
ENDBRANCH  18  20
ENDBRANCH  17  18
BRANCH  17  26
HETATM   26  C15 UNL     1       4.868  -9.200  -5.101  1.00  0.00     0.411 C 
HETATM   27  F1  UNL     1       4.112  -9.901  -6.094  1.00  0.00    -0.168 F 
HETATM   28  F2  UNL     1       5.754 -10.121  -4.605  1.00  0.00    -0.168 F 
HETATM   29  F3  UNL     1       5.500  -8.109  -5.634  1.00  0.00    -0.168 F 
ENDBRANCH  17  26
ENDBRANCH   6  17
BRANCH   1  30
HETATM   30  O1  UNL     1       2.517  -6.374  -3.230  1.00  0.00    -0.355 OA
HETATM   31  C1  UNL     1       1.471  -5.906  -2.389  1.00  0.00     0.210 C 
ENDBRANCH   1  30
BRANCH  16  32
HETATM   32  N4  UNL     1       8.379  -5.882   2.085  1.00  0.00    -0.373 N 
ATOM     33  H4  UNL     1       7.431  -6.127   2.372  1.00  0.00     0.161 HD
BRANCH  32  34
HETATM   34  C23 UNL     1       9.375  -6.014   3.076  1.00  0.00     0.070 C 
HETATM   35  C24 UNL     1       8.979  -6.689   4.368  1.00  0.00     0.081 C 
HETATM   36  S1  UNL     1      10.899  -5.480   2.845  1.00  0.00    -0.066 SA
ENDBRANCH  32  34
ENDBRANCH  16  32
TORSDOF 7
ENDMDL
MODEL 4
REMARK VINA RESULT: -7.809902608      2.393      3.188
REMARK  7 active torsions:
REMARK  status: ('A' for Active; 'I' for Inactive)
REMARK    1  A    between atoms: O1_2  and  C2_3 
REMARK    2  A    between atoms: C7_8  and  C8_9 
REMARK    3  A    between atoms: C8_9  and  N1_10 
REMARK    4  A    between atoms: C8_9  and  C15_18 
REMARK    5  A    between atoms: N1_10  and  C9_12 
REMARK    6  A    between atoms: C22_31  and  N4_32 
REMARK    7  A    between atoms: N4_32  and  C23_34 
ROOT
HETATM    1  C2  UNL     1       3.640 -11.684  -3.963  1.00  0.00     0.079 A 
HETATM    2  C3  UNL     1       4.862 -12.229  -3.774  1.00  0.00     0.069 A 
HETATM    3  C4  UNL     1       6.011 -11.629  -4.282  1.00  0.00     0.065 A 
HETATM    4  C5  UNL     1       5.861 -10.462  -4.982  1.00  0.00     0.061 A 
HETATM    5  C6  UNL     1       4.586  -9.918  -5.156  1.00  0.00     0.044 A 
HETATM    6  C7  UNL     1       3.442 -10.500  -4.662  1.00  0.00     0.009 A 
HETATM    7  N2  UNL     1       7.088 -10.095  -5.370  1.00  0.00    -0.342 N 
ATOM      8  H2  UNL     1       7.302  -9.263  -5.920  1.00  0.00     0.167 HD
HETATM    9  C16 UNL     1       8.000 -10.979  -4.930  1.00  0.00     0.107 A 
HETATM   10  N3  UNL     1       7.346 -11.917  -4.255  1.00  0.00    -0.332 N 
HETATM   11  C17 UNL     1       8.002 -12.973  -3.502  1.00  0.00     0.139 C 
HETATM   12  C18 UNL     1       9.475 -12.845  -3.377  1.00  0.00    -0.029 C 
HETATM   13  C19 UNL     1      10.121 -14.121  -3.909  1.00  0.00     0.016 C 
HETATM   14  C20 UNL     1       9.809 -12.870  -1.856  1.00  0.00     0.016 C 
HETATM   15  C21 UNL     1      10.118 -11.620  -3.893  1.00  0.00     0.043 C 
HETATM   16  C22 UNL     1       9.475 -11.040  -5.141  1.00  0.00     0.151 C 
ENDROOT
BRANCH   6  17
HETATM   17  C8  UNL     1       2.105  -9.953  -4.947  1.00  0.00     0.222 C 
BRANCH  17  18
HETATM   18  N1  UNL     1       1.789  -8.627  -4.725  1.00  0.00    -0.402 N 
ATOM     19  H1  UNL     1       1.854  -7.927  -5.464  1.00  0.00     0.154 HD
BRANCH  18  20
HETATM   20  C9  UNL     1       1.361  -8.287  -3.389  1.00  0.00     0.077 C 
HETATM   21  C10 UNL     1       2.577  -8.016  -2.547  1.00  0.00     0.024 C 
HETATM   22  C11 UNL     1       3.295  -6.801  -3.030  1.00  0.00     0.002 C 
HETATM   23  C12 UNL     1       2.389  -5.604  -3.166  1.00  0.00     0.000 C 
HETATM   24  C13 UNL     1       1.097  -5.947  -2.505  1.00  0.00     0.002 C 
HETATM   25  C14 UNL     1       0.464  -7.093  -3.300  1.00  0.00     0.024 C 
ENDBRANCH  18  20
ENDBRANCH  17  18
BRANCH  17  26
HETATM   26  C15 UNL     1       1.617 -10.449  -6.331  1.00  0.00     0.411 C 
HETATM   27  F1  UNL     1       0.626 -11.445  -6.057  1.00  0.00    -0.168 F 
HETATM   28  F2  UNL     1       2.609 -11.106  -7.013  1.00  0.00    -0.168 F 
HETATM   29  F3  UNL     1       1.094  -9.411  -7.054  1.00  0.00    -0.168 F 
ENDBRANCH  17  26
ENDBRANCH   6  17
BRANCH   1  30
HETATM   30  O1  UNL     1       2.540 -12.321  -3.439  1.00  0.00    -0.355 OA
HETATM   31  C1  UNL     1       2.229 -13.656  -3.818  1.00  0.00     0.210 C 
ENDBRANCH   1  30
BRANCH  16  32
HETATM   32  N4  UNL     1       9.923 -11.784  -6.278  1.00  0.00    -0.373 N 
ATOM     33  H4  UNL     1       9.191 -12.219  -6.839  1.00  0.00     0.161 HD
BRANCH  32  34
HETATM   34  C23 UNL     1      11.245 -11.995  -6.723  1.00  0.00     0.070 C 
HETATM   35  C24 UNL     1      11.622 -13.399  -7.134  1.00  0.00     0.081 C 
HETATM   36  S1  UNL     1      12.331 -10.780  -6.811  1.00  0.00    -0.066 SA
ENDBRANCH  32  34
ENDBRANCH  16  32
TORSDOF 7
ENDMDL
MODEL 5
REMARK VINA RESULT: -7.803060161      2.173      3.090
REMARK  7 active torsions:
REMARK  status: ('A' for Active; 'I' for Inactive)
REMARK    1  A    between atoms: O1_2  and  C2_3 
REMARK    2  A    between atoms: C7_8  and  C8_9 
REMARK    3  A    between atoms: C8_9  and  N1_10 
REMARK    4  A    between atoms: C8_9  and  C15_18 
REMARK    5  A    between atoms: N1_10  and  C9_12 
REMARK    6  A    between atoms: C22_31  and  N4_32 
REMARK    7  A    between atoms: N4_32  and  C23_34 
ROOT
HETATM    1  C2  UNL     1       6.127  -9.711  -3.522  1.00  0.00     0.079 A 
HETATM    2  C3  UNL     1       7.464  -9.514  -3.489  1.00  0.00     0.069 A 
HETATM    3  C4  UNL     1       8.320 -10.198  -4.348  1.00  0.00     0.065 A 
HETATM    4  C5  UNL     1       7.759 -11.080  -5.233  1.00  0.00     0.061 A 
HETATM    5  C6  UNL     1       6.374 -11.258  -5.249  1.00  0.00     0.044 A 
HETATM    6  C7  UNL     1       5.516 -10.591  -4.405  1.00  0.00     0.009 A 
HETATM    7  N2  UNL     1       8.772 -11.610  -5.929  1.00  0.00    -0.342 N 
ATOM      8  H2  UNL     1       8.671 -12.312  -6.662  1.00  0.00     0.167 HD
HETATM    9  C16 UNL     1       9.942 -11.086  -5.523  1.00  0.00     0.107 A 
HETATM   10  N3  UNL     1       9.669 -10.213  -4.561  1.00  0.00    -0.332 N 
HETATM   11  C17 UNL     1      10.662  -9.333  -3.967  1.00  0.00     0.139 C 
HETATM   12  C18 UNL     1      11.991  -9.335  -4.628  1.00  0.00    -0.029 C 
HETATM   13  C19 UNL     1      13.051  -9.678  -3.586  1.00  0.00     0.016 C 
HETATM   14  C20 UNL     1      12.313  -7.859  -5.010  1.00  0.00     0.016 C 
HETATM   15  C21 UNL     1      12.150 -10.102  -5.879  1.00  0.00     0.043 C 
HETATM   16  C22 UNL     1      11.340 -11.384  -5.948  1.00  0.00     0.151 C 
ENDROOT
BRANCH   6  17
HETATM   17  C8  UNL     1       4.071 -10.876  -4.381  1.00  0.00     0.222 C 
BRANCH  17  18
HETATM   18  N1  UNL     1       3.303 -10.885  -5.528  1.00  0.00    -0.402 N 
ATOM     19  H1  UNL     1       3.377 -11.630  -6.220  1.00  0.00     0.154 HD
BRANCH  18  20
HETATM   20  C9  UNL     1       2.389  -9.779  -5.694  1.00  0.00     0.077 C 
HETATM   21  C10 UNL     1       1.070 -10.312  -6.180  1.00  0.00     0.024 C 
HETATM   22  C11 UNL     1       0.432 -11.172  -5.141  1.00  0.00     0.002 C 
HETATM   23  C12 UNL     1       0.339 -10.493  -3.799  1.00  0.00     0.000 C 
HETATM   24  C13 UNL     1       0.673  -9.054  -4.005  1.00  0.00     0.002 C 
HETATM   25  C14 UNL     1       2.135  -8.981  -4.454  1.00  0.00     0.024 C 
ENDBRANCH  18  20
ENDBRANCH  17  18
BRANCH  17  26
HETATM   26  C15 UNL     1       3.791 -12.102  -3.476  1.00  0.00     0.411 C 
HETATM   27  F1  UNL     1       3.124 -11.584  -2.320  1.00  0.00    -0.168 F 
HETATM   28  F2  UNL     1       4.950 -12.660  -3.004  1.00  0.00    -0.168 F 
HETATM   29  F3  UNL     1       3.010 -13.013  -4.135  1.00  0.00    -0.168 F 
ENDBRANCH  17  26
ENDBRANCH   6  17
BRANCH   1  30
HETATM   30  O1  UNL     1       5.331  -9.008  -2.649  1.00  0.00    -0.355 OA
HETATM   31  C1  UNL     1       5.807  -7.815  -2.039  1.00  0.00     0.210 C 
ENDBRANCH   1  30
BRANCH  16  32
HETATM   32  N4  UNL     1      12.024 -12.401  -5.209  1.00  0.00    -0.373 N 
ATOM     33  H4  UNL     1      13.031 -12.457  -5.361  1.00  0.00     0.161 HD
BRANCH  32  34
HETATM   34  C23 UNL     1      11.487 -13.335  -4.299  1.00  0.00     0.070 C 
HETATM   35  C24 UNL     1      11.090 -14.686  -4.848  1.00  0.00     0.081 C 
HETATM   36  S1  UNL     1      11.309 -12.993  -2.714  1.00  0.00    -0.066 SA
ENDBRANCH  32  34
ENDBRANCH  16  32
TORSDOF 7
ENDMDL
