MODEL 1
REMARK VINA RESULT: -8.649215663      0.000      0.000
REMARK  11 active torsions:
REMARK  status: ('A' for Active; 'I' for Inactive)
REMARK    1  A    between atoms: O1_2  and  N1_3 
REMARK    2  A    between atoms: N1_3  and  O2_4 
REMARK    3  A    between atoms: N1_3  and  C2_6 
REMARK    4  A    between atoms: C2_6  and  C3_7 
REMARK    5  A    between atoms: C3_7  and  C4_8 
REMARK    6  A    between atoms: C4_8  and  N2_9 
REMARK       I    between atoms: N2_9  and  C5_11 
REMARK       I    between atoms: C5_11  and  N5_16 
REMARK    7  A    between atoms: N5_16  and  C7_18 
REMARK    8  A    between atoms: C9_20  and  O3_21 
REMARK    9  A    between atoms: O3_21  and  C10_22 
REMARK   10  A    between atoms: C11_25  and  N7_26 
REMARK   11  A    between atoms: C16_38  and  N10_39 
ROOT
HETATM    1  N2  UNL     1      59.999  -8.254  43.532  1.00  0.00    -0.226 N 
ATOM      2  H2  UNL     1      60.751  -7.786  44.038  1.00  0.00     0.177 HD
HETATM    3  C5  UNL     1      59.958  -9.664  43.519  1.00  0.00     0.683 C 
HETATM    4  N3  UNL     1      60.853 -10.286  42.797  1.00  0.00    -0.126 N 
ATOM      5  H3  UNL     1      60.842 -11.305  42.772  1.00  0.00     0.197 HD
HETATM    6  C6  UNL     1      61.812  -9.612  42.066  1.00  0.00     0.196 C 
HETATM    7  N4  UNL     1      62.631  -9.054  41.457  1.00  0.00    -0.171 NA
HETATM    8  N5  UNL     1      58.982 -10.379  44.262  1.00  0.00    -0.219 N 
ATOM      9  H5  UNL     1      58.023 -10.037  44.332  1.00  0.00     0.178 HD
ENDROOT
BRANCH   1  10
HETATM   10  C4  UNL     1      58.995  -7.440  42.841  1.00  0.00     0.139 C 
BRANCH  10  11
HETATM   11  C3  UNL     1      58.219  -8.304  41.905  1.00  0.00     0.039 C 
BRANCH  11  12
HETATM   12  C2  UNL     1      56.768  -8.362  42.240  1.00  0.00     0.155 C 
BRANCH  12  13
HETATM   13  N1  UNL     1      56.465  -8.463  43.638  1.00  0.00    -0.072 NA
BRANCH  13  14
HETATM   14  O1  UNL     1      55.215  -7.898  43.840  1.00  0.00    -0.284 OA
HETATM   15  C1  UNL     1      54.610  -7.634  42.601  1.00  0.00     0.232 C 
ENDBRANCH  13  14
BRANCH  13  16
HETATM   16  O2  UNL     1      56.260  -9.767  44.037  1.00  0.00    -0.289 OA
ATOM     17  H2  UNL     1      56.731 -10.255  43.373  1.00  0.00     0.239 HD
ENDBRANCH  13  16
ENDBRANCH  12  13
ENDBRANCH  11  12
ENDBRANCH  10  11
ENDBRANCH   1  10
BRANCH   8  18
HETATM   18  C7  UNL     1      59.387 -11.618  44.924  1.00  0.00     0.132 C 
HETATM   19  C8  UNL     1      58.218 -12.550  45.097  1.00  0.00     0.060 C 
HETATM   20  C9  UNL     1      58.454 -13.402  46.290  1.00  0.00     0.132 C 
HETATM   21  C14 UNL     1      58.386 -12.499  47.497  1.00  0.00     0.035 C 
HETATM   22  C15 UNL     1      59.529 -11.553  47.445  1.00  0.00     0.037 C 
HETATM   23  C16 UNL     1      60.186 -11.358  46.137  1.00  0.00     0.206 C 
BRANCH  20  24
HETATM   24  O3  UNL     1      57.680 -14.549  46.387  1.00  0.00    -0.328 OA
BRANCH  24  25
HETATM   25  C10 UNL     1      56.603 -14.675  47.231  1.00  0.00     0.186 A 
HETATM   26  N6  UNL     1      56.687 -15.235  48.386  1.00  0.00    -0.324 N 
HETATM   27  C11 UNL     1      55.416 -15.239  49.071  1.00  0.00     0.391 A 
ATOM     28  H6  UNL     1      57.546 -15.627  48.770  1.00  0.00     0.165 HD
HETATM   29  N8  UNL     1      54.500 -14.584  48.157  1.00  0.00    -0.325 N 
HETATM   30  C12 UNL     1      53.095 -14.331  48.365  1.00  0.00     0.155 C 
HETATM   31  C13 UNL     1      55.233 -14.224  46.996  1.00  0.00     0.151 A 
HETATM   32  N9  UNL     1      54.824 -13.624  45.932  1.00  0.00    -0.382 N 
ATOM     33  H92 UNL     1      55.351 -13.366  45.098  1.00  0.00     0.157 HD
ATOM     34  H91 UNL     1      53.867 -13.310  45.768  1.00  0.00     0.157 HD
BRANCH  27  35
HETATM   35  N7  UNL     1      54.972 -16.603  49.334  1.00  0.00    -0.040 N 
ATOM     36  H73 UNL     1      54.185 -16.624  49.983  1.00  0.00     0.279 HD
ATOM     37  H72 UNL     1      54.513 -17.013  48.521  1.00  0.00     0.279 HD
ATOM     38  H71 UNL     1      55.746 -17.181  49.662  1.00  0.00     0.279 HD
ENDBRANCH  27  35
ENDBRANCH  24  25
ENDBRANCH  20  24
BRANCH  23  39
HETATM   39  N10 UNL     1      61.484 -12.061  46.091  1.00  0.00    -0.073 N 
ATOM     40 3H10 UNL     1      61.958 -11.909  45.202  1.00  0.00     0.274 HD
ATOM     41 2H10 UNL     1      62.167 -11.624  46.712  1.00  0.00     0.274 HD
ATOM     42 1H10 UNL     1      61.378 -13.055  46.293  1.00  0.00     0.274 HD
ENDBRANCH  23  39
ENDBRANCH   8  18
TORSDOF 11
ENDMDL
MODEL 2
REMARK VINA RESULT: -8.418912291      2.682      4.299
REMARK  11 active torsions:
REMARK  status: ('A' for Active; 'I' for Inactive)
REMARK    1  A    between atoms: O1_2  and  N1_3 
REMARK    2  A    between atoms: N1_3  and  O2_4 
REMARK    3  A    between atoms: N1_3  and  C2_6 
REMARK    4  A    between atoms: C2_6  and  C3_7 
REMARK    5  A    between atoms: C3_7  and  C4_8 
REMARK    6  A    between atoms: C4_8  and  N2_9 
REMARK       I    between atoms: N2_9  and  C5_11 
REMARK       I    between atoms: C5_11  and  N5_16 
REMARK    7  A    between atoms: N5_16  and  C7_18 
REMARK    8  A    between atoms: C9_20  and  O3_21 
REMARK    9  A    between atoms: O3_21  and  C10_22 
REMARK   10  A    between atoms: C11_25  and  N7_26 
REMARK   11  A    between atoms: C16_38  and  N10_39 
ROOT
HETATM    1  N2  UNL     1      59.338 -10.567  45.336  1.00  0.00    -0.226 N 
ATOM      2  H2  UNL     1      59.835 -10.782  44.471  1.00  0.00     0.177 HD
HETATM    3  C5  UNL     1      58.091 -11.181  45.578  1.00  0.00     0.683 C 
HETATM    4  N3  UNL     1      57.071 -10.770  44.870  1.00  0.00    -0.126 N 
ATOM      5  H3  UNL     1      56.160 -11.199  45.028  1.00  0.00     0.197 HD
HETATM    6  C6  UNL     1      57.184  -9.777  43.916  1.00  0.00     0.196 C 
HETATM    7  N4  UNL     1      57.271  -8.950  43.103  1.00  0.00    -0.171 NA
HETATM    8  N5  UNL     1      57.950 -12.204  46.551  1.00  0.00    -0.219 N 
ATOM      9  H5  UNL     1      58.454 -12.156  47.437  1.00  0.00     0.178 HD
ENDROOT
BRANCH   1  10
HETATM   10  C4  UNL     1      59.943  -9.631  46.287  1.00  0.00     0.139 C 
BRANCH  10  11
HETATM   11  C3  UNL     1      60.454  -8.441  45.550  1.00  0.00     0.039 C 
BRANCH  11  12
HETATM   12  C2  UNL     1      60.876  -8.761  44.156  1.00  0.00     0.155 C 
BRANCH  12  13
HETATM   13  N1  UNL     1      61.820  -7.850  43.578  1.00  0.00    -0.072 NA
BRANCH  13  14
HETATM   14  O1  UNL     1      61.875  -8.108  42.216  1.00  0.00    -0.284 OA
HETATM   15  C1  UNL     1      60.871  -9.025  41.869  1.00  0.00     0.232 C 
ENDBRANCH  13  14
BRANCH  13  16
HETATM   16  O2  UNL     1      61.377  -6.545  43.606  1.00  0.00    -0.289 OA
ATOM     17  H2  UNL     1      62.168  -6.062  43.401  1.00  0.00     0.239 HD
ENDBRANCH  13  16
ENDBRANCH  12  13
ENDBRANCH  11  12
ENDBRANCH  10  11
ENDBRANCH   1  10
BRANCH   8  18
HETATM   18  C7  UNL     1      57.064 -13.328  46.252  1.00  0.00     0.132 C 
HETATM   19  C8  UNL     1      56.173 -13.646  47.423  1.00  0.00     0.060 C 
HETATM   20  C9  UNL     1      55.826 -15.088  47.385  1.00  0.00     0.132 C 
HETATM   21  C14 UNL     1      57.093 -15.855  47.669  1.00  0.00     0.035 C 
HETATM   22  C15 UNL     1      58.039 -15.639  46.544  1.00  0.00     0.037 C 
HETATM   23  C16 UNL     1      57.799 -14.470  45.676  1.00  0.00     0.206 C 
BRANCH  20  24
HETATM   24  O3  UNL     1      54.736 -15.477  48.152  1.00  0.00    -0.328 OA
BRANCH  24  25
HETATM   25  C10 UNL     1      53.509 -14.862  48.101  1.00  0.00     0.186 A 
HETATM   26  N6  UNL     1      52.931 -14.377  49.142  1.00  0.00    -0.324 N 
HETATM   27  C11 UNL     1      51.653 -13.788  48.819  1.00  0.00     0.391 A 
ATOM     28  H6  UNL     1      53.328 -14.404  50.081  1.00  0.00     0.165 HD
HETATM   29  N8  UNL     1      51.508 -13.979  47.388  1.00  0.00    -0.325 N 
HETATM   30  C12 UNL     1      50.399 -13.569  46.563  1.00  0.00     0.155 C 
HETATM   31  C13 UNL     1      52.667 -14.653  46.924  1.00  0.00     0.151 A 
HETATM   32  N9  UNL     1      52.966 -15.025  45.727  1.00  0.00    -0.382 N 
ATOM     33  H92 UNL     1      53.799 -15.510  45.393  1.00  0.00     0.157 HD
ATOM     34  H91 UNL     1      52.378 -14.879  44.905  1.00  0.00     0.157 HD
BRANCH  27  35
HETATM   35  N7  UNL     1      50.574 -14.467  49.527  1.00  0.00    -0.040 N 
ATOM     36  H73 UNL     1      49.702 -13.939  49.479  1.00  0.00     0.279 HD
ATOM     37  H72 UNL     1      50.272 -15.308  49.035  1.00  0.00     0.279 HD
ATOM     38  H71 UNL     1      50.841 -14.668  50.491  1.00  0.00     0.279 HD
ENDBRANCH  27  35
ENDBRANCH  24  25
ENDBRANCH  20  24
BRANCH  23  39
HETATM   39  N10 UNL     1      57.223 -14.886  44.381  1.00  0.00    -0.073 N 
ATOM     40 3H10 UNL     1      56.417 -15.496  44.511  1.00  0.00     0.274 HD
ATOM     41 2H10 UNL     1      56.759 -14.107  43.912  1.00  0.00     0.274 HD
ATOM     42 1H10 UNL     1      57.926 -15.318  43.781  1.00  0.00     0.274 HD
ENDBRANCH  23  39
ENDBRANCH   8  18
TORSDOF 11
ENDMDL
MODEL 3
REMARK VINA RESULT: -8.220164850      2.790      4.583
REMARK  11 active torsions:
REMARK  status: ('A' for Active; 'I' for Inactive)
REMARK    1  A    between atoms: O1_2  and  N1_3 
REMARK    2  A    between atoms: N1_3  and  O2_4 
REMARK    3  A    between atoms: N1_3  and  C2_6 
REMARK    4  A    between atoms: C2_6  and  C3_7 
REMARK    5  A    between atoms: C3_7  and  C4_8 
REMARK    6  A    between atoms: C4_8  and  N2_9 
REMARK       I    between atoms: N2_9  and  C5_11 
REMARK       I    between atoms: C5_11  and  N5_16 
REMARK    7  A    between atoms: N5_16  and  C7_18 
REMARK    8  A    between atoms: C9_20  and  O3_21 
REMARK    9  A    between atoms: O3_21  and  C10_22 
REMARK   10  A    between atoms: C11_25  and  N7_26 
REMARK   11  A    between atoms: C16_38  and  N10_39 
ROOT
HETATM    1  N2  UNL     1      59.793 -10.851  44.422  1.00  0.00    -0.226 N 
ATOM      2  H2  UNL     1      59.872 -10.965  43.411  1.00  0.00     0.177 HD
HETATM    3  C5  UNL     1      58.565 -11.150  45.049  1.00  0.00     0.683 C 
HETATM    4  N3  UNL     1      57.575 -10.317  44.860  1.00  0.00    -0.126 N 
ATOM      5  H3  UNL     1      56.678 -10.512  45.304  1.00  0.00     0.197 HD
HETATM    6  C6  UNL     1      57.700  -9.183  44.083  1.00  0.00     0.196 C 
HETATM    7  N4  UNL     1      57.792  -8.231  43.421  1.00  0.00    -0.171 NA
HETATM    8  N5  UNL     1      58.412 -12.310  45.852  1.00  0.00    -0.219 N 
ATOM      9  H5  UNL     1      59.163 -12.625  46.467  1.00  0.00     0.178 HD
ENDROOT
BRANCH   1  10
HETATM   10  C4  UNL     1      60.959 -10.383  45.176  1.00  0.00     0.139 C 
BRANCH  10  11
HETATM   11  C3  UNL     1      60.779  -8.943  45.517  1.00  0.00     0.039 C 
BRANCH  11  12
HETATM   12  C2  UNL     1      61.307  -8.029  44.464  1.00  0.00     0.155 C 
BRANCH  12  13
HETATM   13  N1  UNL     1      61.745  -8.671  43.259  1.00  0.00    -0.072 NA
BRANCH  13  14
HETATM   14  O1  UNL     1      61.212  -7.969  42.189  1.00  0.00    -0.284 OA
HETATM   15  C1  UNL     1      60.653  -8.867  41.267  1.00  0.00     0.232 C 
ENDBRANCH  13  14
BRANCH  13  16
HETATM   16  O2  UNL     1      63.101  -8.528  43.052  1.00  0.00    -0.289 OA
ATOM     17  H2  UNL     1      63.148  -7.681  42.626  1.00  0.00     0.239 HD
ENDBRANCH  13  16
ENDBRANCH  12  13
ENDBRANCH  11  12
ENDBRANCH  10  11
ENDBRANCH   1  10
BRANCH   8  18
HETATM   18  C7  UNL     1      57.149 -13.043  45.776  1.00  0.00     0.132 C 
HETATM   19  C8  UNL     1      56.223 -12.651  46.896  1.00  0.00     0.060 C 
HETATM   20  C9  UNL     1      55.333 -13.797  47.208  1.00  0.00     0.132 C 
HETATM   21  C14 UNL     1      56.198 -14.877  47.808  1.00  0.00     0.035 C 
HETATM   22  C15 UNL     1      57.134 -15.367  46.764  1.00  0.00     0.037 C 
HETATM   23  C16 UNL     1      57.363 -14.492  45.598  1.00  0.00     0.206 C 
BRANCH  20  24
HETATM   24  O3  UNL     1      54.190 -13.505  47.939  1.00  0.00    -0.328 OA
BRANCH  24  25
HETATM   25  C10 UNL     1      52.918 -13.812  47.523  1.00  0.00     0.186 A 
HETATM   26  N6  UNL     1      52.597 -13.906  46.281  1.00  0.00    -0.324 N 
HETATM   27  C11 UNL     1      51.202 -14.238  46.113  1.00  0.00     0.391 A 
ATOM     28  H6  UNL     1      53.249 -13.765  45.510  1.00  0.00     0.165 HD
HETATM   29  N8  UNL     1      50.680 -14.339  47.463  1.00  0.00    -0.325 N 
HETATM   30  C12 UNL     1      49.327 -14.652  47.852  1.00  0.00     0.155 C 
HETATM   31  C13 UNL     1      51.748 -14.074  48.359  1.00  0.00     0.151 A 
HETATM   32  N9  UNL     1      51.741 -14.057  49.647  1.00  0.00    -0.382 N 
ATOM     33  H92 UNL     1      52.509 -13.866  50.291  1.00  0.00     0.157 HD
ATOM     34  H91 UNL     1      50.925 -14.240  50.231  1.00  0.00     0.157 HD
BRANCH  27  35
HETATM   35  N7  UNL     1      50.502 -13.187  45.384  1.00  0.00    -0.040 N 
ATOM     36  H73 UNL     1      51.062 -12.336  45.319  1.00  0.00     0.279 HD
ATOM     37  H72 UNL     1      50.431 -13.402  44.389  1.00  0.00     0.279 HD
ATOM     38  H71 UNL     1      49.587 -13.005  45.796  1.00  0.00     0.279 HD
ENDBRANCH  27  35
ENDBRANCH  24  25
ENDBRANCH  20  24
BRANCH  23  39
HETATM   39  N10 UNL     1      56.650 -15.003  44.410  1.00  0.00    -0.073 N 
ATOM     40 3H10 UNL     1      56.728 -14.359  43.623  1.00  0.00     0.274 HD
ATOM     41 2H10 UNL     1      57.129 -15.807  44.004  1.00  0.00     0.274 HD
ATOM     42 1H10 UNL     1      55.675 -15.217  44.623  1.00  0.00     0.274 HD
ENDBRANCH  23  39
ENDBRANCH   8  18
TORSDOF 11
ENDMDL
MODEL 4
REMARK VINA RESULT: -8.055064748      0.723      1.443
REMARK  11 active torsions:
REMARK  status: ('A' for Active; 'I' for Inactive)
REMARK    1  A    between atoms: O1_2  and  N1_3 
REMARK    2  A    between atoms: N1_3  and  O2_4 
REMARK    3  A    between atoms: N1_3  and  C2_6 
REMARK    4  A    between atoms: C2_6  and  C3_7 
REMARK    5  A    between atoms: C3_7  and  C4_8 
REMARK    6  A    between atoms: C4_8  and  N2_9 
REMARK       I    between atoms: N2_9  and  C5_11 
REMARK       I    between atoms: C5_11  and  N5_16 
REMARK    7  A    between atoms: N5_16  and  C7_18 
REMARK    8  A    between atoms: C9_20  and  O3_21 
REMARK    9  A    between atoms: O3_21  and  C10_22 
REMARK   10  A    between atoms: C11_25  and  N7_26 
REMARK   11  A    between atoms: C16_38  and  N10_39 
ROOT
HETATM    1  N2  UNL     1      59.898  -8.065  43.331  1.00  0.00    -0.226 N 
ATOM      2  H2  UNL     1      60.703  -7.562  43.707  1.00  0.00     0.177 HD
HETATM    3  C5  UNL     1      59.896  -9.475  43.367  1.00  0.00     0.683 C 
HETATM    4  N3  UNL     1      60.694 -10.099  42.540  1.00  0.00    -0.126 N 
ATOM      5  H3  UNL     1      60.709 -11.118  42.548  1.00  0.00     0.197 HD
HETATM    6  C6  UNL     1      61.516  -9.428  41.657  1.00  0.00     0.196 C 
HETATM    7  N4  UNL     1      62.221  -8.872  40.918  1.00  0.00    -0.171 NA
HETATM    8  N5  UNL     1      59.060 -10.187  44.266  1.00  0.00    -0.219 N 
ATOM      9  H5  UNL     1      58.112  -9.866  44.465  1.00  0.00     0.178 HD
ENDROOT
BRANCH   1  10
HETATM   10  C4  UNL     1      58.782  -7.298  42.771  1.00  0.00     0.139 C 
BRANCH  10  11
HETATM   11  C3  UNL     1      58.045  -8.146  41.791  1.00  0.00     0.039 C 
BRANCH  11  12
HETATM   12  C2  UNL     1      56.635  -8.407  42.196  1.00  0.00     0.155 C 
BRANCH  12  13
HETATM   13  N1  UNL     1      56.392  -8.400  43.609  1.00  0.00    -0.072 NA
BRANCH  13  14
HETATM   14  O1  UNL     1      55.108  -7.918  43.814  1.00  0.00    -0.284 OA
HETATM   15  C1  UNL     1      54.402  -7.928  42.601  1.00  0.00     0.232 C 
ENDBRANCH  13  14
BRANCH  13  16
HETATM   16  O2  UNL     1      56.309  -9.672  44.134  1.00  0.00    -0.289 OA
ATOM     17  H2  UNL     1      55.517  -9.621  44.655  1.00  0.00     0.239 HD
ENDBRANCH  13  16
ENDBRANCH  12  13
ENDBRANCH  11  12
ENDBRANCH  10  11
ENDBRANCH   1  10
BRANCH   8  18
HETATM   18  C7  UNL     1      59.592 -11.393  44.899  1.00  0.00     0.132 C 
HETATM   19  C8  UNL     1      58.523 -12.440  45.061  1.00  0.00     0.060 C 
HETATM   20  C9  UNL     1      58.854 -13.288  46.233  1.00  0.00     0.132 C 
HETATM   21  C14 UNL     1      58.708 -12.421  47.459  1.00  0.00     0.035 C 
HETATM   22  C15 UNL     1      59.752 -11.366  47.419  1.00  0.00     0.037 C 
HETATM   23  C16 UNL     1      60.373 -11.080  46.111  1.00  0.00     0.206 C 
BRANCH  20  24
HETATM   24  O3  UNL     1      58.198 -14.509  46.312  1.00  0.00    -0.328 OA
BRANCH  24  25
HETATM   25  C10 UNL     1      56.870 -14.642  46.636  1.00  0.00     0.186 A 
HETATM   26  N6  UNL     1      55.933 -14.599  45.756  1.00  0.00    -0.324 N 
HETATM   27  C11 UNL     1      54.629 -14.765  46.355  1.00  0.00     0.391 A 
ATOM     28  H6  UNL     1      56.091 -14.466  44.758  1.00  0.00     0.165 HD
HETATM   29  N8  UNL     1      54.891 -14.921  47.774  1.00  0.00    -0.325 N 
HETATM   30  C12 UNL     1      53.920 -15.119  48.821  1.00  0.00     0.155 C 
HETATM   31  C13 UNL     1      56.295 -14.847  47.964  1.00  0.00     0.151 A 
HETATM   32  N9  UNL     1      56.972 -14.935  49.057  1.00  0.00    -0.382 N 
ATOM     33  H92 UNL     1      57.982 -14.881  49.193  1.00  0.00     0.157 HD
ATOM     34  H91 UNL     1      56.571 -15.077  49.984  1.00  0.00     0.157 HD
BRANCH  27  35
HETATM   35  N7  UNL     1      53.799 -13.588  46.126  1.00  0.00    -0.040 N 
ATOM     36  H73 UNL     1      53.220 -13.692  45.293  1.00  0.00     0.279 HD
ATOM     37  H72 UNL     1      53.056 -13.511  46.821  1.00  0.00     0.279 HD
ATOM     38  H71 UNL     1      54.368 -12.742  46.088  1.00  0.00     0.279 HD
ENDBRANCH  27  35
ENDBRANCH  24  25
ENDBRANCH  20  24
BRANCH  23  39
HETATM   39  N10 UNL     1      61.733 -11.649  46.040  1.00  0.00    -0.073 N 
ATOM     40 3H10 UNL     1      62.346 -11.080  45.456  1.00  0.00     0.274 HD
ATOM     41 2H10 UNL     1      62.226 -11.551  46.928  1.00  0.00     0.274 HD
ATOM     42 1H10 UNL     1      61.716 -12.620  45.727  1.00  0.00     0.274 HD
ENDBRANCH  23  39
ENDBRANCH   8  18
TORSDOF 11
ENDMDL
MODEL 5
REMARK VINA RESULT: -7.969283853      2.396      7.791
REMARK  11 active torsions:
REMARK  status: ('A' for Active; 'I' for Inactive)
REMARK    1  A    between atoms: O1_2  and  N1_3 
REMARK    2  A    between atoms: N1_3  and  O2_4 
REMARK    3  A    between atoms: N1_3  and  C2_6 
REMARK    4  A    between atoms: C2_6  and  C3_7 
REMARK    5  A    between atoms: C3_7  and  C4_8 
REMARK    6  A    between atoms: C4_8  and  N2_9 
REMARK       I    between atoms: N2_9  and  C5_11 
REMARK       I    between atoms: C5_11  and  N5_16 
REMARK    7  A    between atoms: N5_16  and  C7_18 
REMARK    8  A    between atoms: C9_20  and  O3_21 
REMARK    9  A    between atoms: O3_21  and  C10_22 
REMARK   10  A    between atoms: C11_25  and  N7_26 
REMARK   11  A    between atoms: C16_38  and  N10_39 
ROOT
HETATM    1  N2  UNL     1      58.643 -12.613  46.809  1.00  0.00    -0.226 N 
ATOM      2  H2  UNL     1      58.365 -12.457  47.778  1.00  0.00     0.177 HD
HETATM    3  C5  UNL     1      58.432 -11.586  45.865  1.00  0.00     0.683 C 
HETATM    4  N3  UNL     1      57.201 -11.355  45.492  1.00  0.00    -0.126 N 
ATOM      5  H3  UNL     1      57.024 -10.618  44.810  1.00  0.00     0.197 HD
HETATM    6  C6  UNL     1      56.130 -12.073  45.988  1.00  0.00     0.196 C 
HETATM    7  N4  UNL     1      55.221 -12.663  46.409  1.00  0.00    -0.171 NA
HETATM    8  N5  UNL     1      59.516 -10.834  45.340  1.00  0.00    -0.219 N 
ATOM      9  H5  UNL     1      60.408 -11.281  45.125  1.00  0.00     0.178 HD
ENDROOT
BRANCH   1  10
HETATM   10  C4  UNL     1      59.249 -13.896  46.442  1.00  0.00     0.139 C 
BRANCH  10  11
HETATM   11  C3  UNL     1      58.353 -15.005  46.878  1.00  0.00     0.039 C 
BRANCH  11  12
HETATM   12  C2  UNL     1      58.122 -15.017  48.351  1.00  0.00     0.155 C 
BRANCH  12  13
HETATM   13  N1  UNL     1      56.850 -14.510  48.775  1.00  0.00    -0.072 NA
BRANCH  13  14
HETATM   14  O1  UNL     1      55.871 -15.360  48.280  1.00  0.00    -0.284 OA
HETATM   15  C1  UNL     1      55.742 -16.473  49.126  1.00  0.00     0.232 C 
ENDBRANCH  13  14
BRANCH  13  16
HETATM   16  O2  UNL     1      56.667 -14.622  50.137  1.00  0.00    -0.289 OA
ATOM     17  H2  UNL     1      57.553 -14.777  50.444  1.00  0.00     0.239 HD
ENDBRANCH  13  16
ENDBRANCH  12  13
ENDBRANCH  11  12
ENDBRANCH  10  11
ENDBRANCH   1  10
BRANCH   8  18
HETATM   18  C7  UNL     1      59.322  -9.402  45.116  1.00  0.00     0.132 C 
HETATM   19  C8  UNL     1      58.640  -9.144  43.800  1.00  0.00     0.060 C 
HETATM   20  C9  UNL     1      59.055  -7.811  43.296  1.00  0.00     0.132 C 
HETATM   21  C14 UNL     1      60.518  -7.911  42.939  1.00  0.00     0.035 C 
HETATM   22  C15 UNL     1      61.295  -8.130  44.186  1.00  0.00     0.037 C 
HETATM   23  C16 UNL     1      60.558  -8.634  45.361  1.00  0.00     0.206 C 
BRANCH  20  24
HETATM   24  O3  UNL     1      58.259  -7.255  42.305  1.00  0.00    -0.328 OA
BRANCH  24  25
HETATM   25  C10 UNL     1      57.442  -7.989  41.480  1.00  0.00     0.186 A 
HETATM   26  N6  UNL     1      57.869  -8.564  40.412  1.00  0.00    -0.324 N 
HETATM   27  C11 UNL     1      56.813  -9.269  39.726  1.00  0.00     0.391 A 
ATOM     28  H6  UNL     1      58.836  -8.526  40.090  1.00  0.00     0.165 HD
HETATM   29  N8  UNL     1      55.631  -9.048  40.538  1.00  0.00    -0.325 N 
HETATM   30  C12 UNL     1      54.300  -9.543  40.291  1.00  0.00     0.155 C 
HETATM   31  C13 UNL     1      56.013  -8.245  41.644  1.00  0.00     0.151 A 
HETATM   32  N9  UNL     1      55.290  -7.807  42.617  1.00  0.00    -0.382 N 
ATOM     33  H92 UNL     1      55.565  -7.230  43.412  1.00  0.00     0.157 HD
ATOM     34  H91 UNL     1      54.292  -7.986  42.732  1.00  0.00     0.157 HD
BRANCH  27  35
HETATM   35  N7  UNL     1      56.609  -8.726  38.388  1.00  0.00    -0.040 N 
ATOM     36  H73 UNL     1      57.460  -8.302  38.019  1.00  0.00     0.279 HD
ATOM     37  H72 UNL     1      56.492  -9.466  37.695  1.00  0.00     0.279 HD
ATOM     38  H71 UNL     1      55.826  -8.072  38.375  1.00  0.00     0.279 HD
ENDBRANCH  27  35
ENDBRANCH  24  25
ENDBRANCH  20  24
BRANCH  23  39
HETATM   39  N10 UNL     1      60.340  -7.557  46.346  1.00  0.00    -0.073 N 
ATOM     40 3H10 UNL     1      59.822  -6.778  45.939  1.00  0.00     0.274 HD
ATOM     41 2H10 UNL     1      59.668  -7.836  47.062  1.00  0.00     0.274 HD
ATOM     42 1H10 UNL     1      61.219  -7.246  46.761  1.00  0.00     0.274 HD
ENDBRANCH  23  39
ENDBRANCH   8  18
TORSDOF 11
ENDMDL
