MODEL 1
REMARK VINA RESULT: -8.910670323      0.000      0.000
REMARK  11 active torsions:
REMARK  status: ('A' for Active; 'I' for Inactive)
REMARK    1  A    between atoms: C2_2  and  O1_3 
REMARK    2  A    between atoms: O1_3  and  C3_4 
REMARK    3  A    between atoms: C3_4  and  C4_6 
REMARK    4  A    between atoms: C4_6  and  C5_7 
REMARK    5  A    between atoms: C5_7  and  N1_8 
REMARK    6  A    between atoms: C8_17  and  C9_18 
REMARK    7  A    between atoms: C9_18  and  O3_19 
REMARK    8  A    between atoms: C9_18  and  N3_21 
REMARK    9  A    between atoms: C10_23  and  C12_25 
REMARK       I    between atoms: C12_25  and  N4_27 
REMARK   10  A    between atoms: N4_27  and  N5_28 
REMARK   11  A    between atoms: N5_28  and  C13_30 
ROOT
HETATM    1  C9  UNL     1      57.856  -8.835  43.145  1.00  0.00     0.249 C 
ENDROOT
BRANCH   1   2
HETATM    2  C8  UNL     1      59.183  -8.938  43.807  1.00  0.00     0.204 C 
HETATM    3  C6  UNL     1      59.387 -10.357  44.387  1.00  0.00     0.219 C 
HETATM    4  N2  UNL     1      60.752 -10.121  44.966  1.00  0.00    -0.025 N 
HETATM    5  C7  UNL     1      58.474 -10.559  45.543  1.00  0.00     0.043 C 
HETATM    6  C4  UNL     1      60.835  -8.685  45.092  1.00  0.00     0.339 C 
ATOM      7  H22 UNL     1      61.512 -10.539  44.432  1.00  0.00     0.282 HD
ATOM      8  H21 UNL     1      60.933 -10.628  45.832  1.00  0.00     0.282 HD
HETATM    9  O5  UNL     1      59.499  -8.223  44.891  1.00  0.00    -0.333 OA
BRANCH   6  10
HETATM   10  C3  UNL     1      61.607  -8.184  43.903  1.00  0.00     0.325 C 
HETATM   11  O2  UNL     1      61.552  -6.963  43.515  1.00  0.00    -0.260 OA
BRANCH  10  12
HETATM   12  O1  UNL     1      62.430  -8.992  43.170  1.00  0.00    -0.318 OA
BRANCH  12  13
HETATM   13  C2  UNL     1      62.203  -9.130  41.761  1.00  0.00     0.174 C 
HETATM   14  C1  UNL     1      62.166 -10.643  41.542  1.00  0.00     0.034 C 
ENDBRANCH  12  13
ENDBRANCH  10  12
ENDBRANCH   6  10
BRANCH   6  15
HETATM   15  C5  UNL     1      61.394  -8.188  46.386  1.00  0.00     0.309 C 
BRANCH  15  16
HETATM   16  N1  UNL     1      60.713  -6.969  46.804  1.00  0.00    -0.074 N 
ATOM     17  H13 UNL     1      61.299  -6.145  46.677  1.00  0.00     0.274 HD
ATOM     18  H12 UNL     1      59.958  -6.719  46.165  1.00  0.00     0.274 HD
ATOM     19  H11 UNL     1      60.382  -7.054  47.766  1.00  0.00     0.274 HD
ENDBRANCH  15  16
ENDBRANCH   6  15
ENDBRANCH   1   2
BRANCH   1  20
HETATM   20  O3  UNL     1      57.121  -8.016  43.953  1.00  0.00    -0.374 OA
ATOM     21  H3  UNL     1      57.546  -8.060  44.801  1.00  0.00     0.212 HD
ENDBRANCH   1  20
BRANCH   1  22
HETATM   22  N3  UNL     1      57.790  -8.474  41.768  1.00  0.00    -0.360 N 
HETATM   23  C10 UNL     1      56.739  -8.597  41.130  1.00  0.00     0.088 C 
HETATM   24  C11 UNL     1      55.428  -9.084  41.509  1.00  0.00     0.075 C 
ATOM     25  H3  UNL     1      58.622  -8.109  41.303  1.00  0.00     0.162 HD
BRANCH  23  26
HETATM   26  C12 UNL     1      56.887  -8.191  39.513  1.00  0.00     0.357 C 
HETATM   27  O4  UNL     1      57.207  -7.261  39.475  1.00  0.00    -0.248 OA
HETATM   28  N4  UNL     1      56.461  -9.484  38.956  1.00  0.00    -0.265 NA
BRANCH  28  29
HETATM   29  N5  UNL     1      56.096 -10.592  38.465  1.00  0.00    -0.062 N 
ATOM     30  H5  UNL     1      56.792 -11.337  38.492  1.00  0.00     0.221 HD
BRANCH  29  31
HETATM   31  C13 UNL     1      54.817 -10.947  37.866  1.00  0.00     0.699 C 
HETATM   32  N6  UNL     1      54.123 -11.944  38.201  1.00  0.00    -0.224 N 
HETATM   33  C14 UNL     1      52.876 -12.215  37.549  1.00  0.00     0.139 C 
ATOM     34  H6  UNL     1      54.451 -12.564  38.941  1.00  0.00     0.177 HD
HETATM   35  C15 UNL     1      52.202 -10.934  36.999  1.00  0.00     0.040 C 
HETATM   36  C16 UNL     1      53.215 -10.362  36.063  1.00  0.00     0.139 C 
HETATM   37  N7  UNL     1      54.413 -10.071  36.844  1.00  0.00    -0.224 N 
ATOM     38  H7  UNL     1      54.957  -9.231  36.647  1.00  0.00     0.177 HD
ENDBRANCH  29  31
ENDBRANCH  28  29
ENDBRANCH  23  26
ENDBRANCH   1  22
TORSDOF 11
ENDMDL
MODEL 2
REMARK VINA RESULT: -8.744712747      2.131      3.539
REMARK  11 active torsions:
REMARK  status: ('A' for Active; 'I' for Inactive)
REMARK    1  A    between atoms: C2_2  and  O1_3 
REMARK    2  A    between atoms: O1_3  and  C3_4 
REMARK    3  A    between atoms: C3_4  and  C4_6 
REMARK    4  A    between atoms: C4_6  and  C5_7 
REMARK    5  A    between atoms: C5_7  and  N1_8 
REMARK    6  A    between atoms: C8_17  and  C9_18 
REMARK    7  A    between atoms: C9_18  and  O3_19 
REMARK    8  A    between atoms: C9_18  and  N3_21 
REMARK    9  A    between atoms: C10_23  and  C12_25 
REMARK       I    between atoms: C12_25  and  N4_27 
REMARK   10  A    between atoms: N4_27  and  N5_28 
REMARK   11  A    between atoms: N5_28  and  C13_30 
ROOT
HETATM    1  C9  UNL     1      56.468  -9.026  43.256  1.00  0.00     0.249 C 
ENDROOT
BRANCH   1   2
HETATM    2  C8  UNL     1      57.373  -9.651  44.256  1.00  0.00     0.204 C 
HETATM    3  C6  UNL     1      58.294  -8.583  44.891  1.00  0.00     0.219 C 
HETATM    4  N2  UNL     1      59.049  -9.511  45.797  1.00  0.00    -0.025 N 
HETATM    5  C7  UNL     1      59.273  -8.103  43.879  1.00  0.00     0.043 C 
HETATM    6  C4  UNL     1      58.851 -10.814  45.208  1.00  0.00     0.339 C 
ATOM      7  H22 UNL     1      58.779  -9.450  46.779  1.00  0.00     0.282 HD
ATOM      8  H21 UNL     1      60.027  -9.258  45.937  1.00  0.00     0.282 HD
HETATM    9  O5  UNL     1      58.301 -10.551  43.917  1.00  0.00    -0.333 OA
BRANCH   6  10
HETATM   10  C3  UNL     1      57.746 -11.482  45.977  1.00  0.00     0.325 C 
HETATM   11  O2  UNL     1      57.376 -11.080  47.136  1.00  0.00    -0.260 OA
BRANCH  10  12
HETATM   12  O1  UNL     1      57.053 -12.551  45.482  1.00  0.00    -0.318 OA
BRANCH  12  13
HETATM   13  C2  UNL     1      56.608 -13.575  46.382  1.00  0.00     0.174 C 
HETATM   14  C1  UNL     1      57.128 -14.868  45.753  1.00  0.00     0.034 C 
ENDBRANCH  12  13
ENDBRANCH  10  12
ENDBRANCH   6  10
BRANCH   6  15
HETATM   15  C5  UNL     1      60.076 -11.665  45.114  1.00  0.00     0.309 C 
BRANCH  15  16
HETATM   16  N1  UNL     1      60.126 -12.616  46.218  1.00  0.00    -0.074 N 
ATOM     17  H13 UNL     1      59.534 -12.324  46.995  1.00  0.00     0.274 HD
ATOM     18  H12 UNL     1      59.655 -13.490  45.986  1.00  0.00     0.274 HD
ATOM     19  H11 UNL     1      61.090 -12.772  46.514  1.00  0.00     0.274 HD
ENDBRANCH  15  16
ENDBRANCH   6  15
ENDBRANCH   1   2
BRANCH   1  20
HETATM   20  O3  UNL     1      55.848  -8.011  43.925  1.00  0.00    -0.374 OA
ATOM     21  H3  UNL     1      54.969  -8.329  44.095  1.00  0.00     0.212 HD
ENDBRANCH   1  20
BRANCH   1  22
HETATM   22  N3  UNL     1      56.994  -8.628  41.993  1.00  0.00    -0.360 N 
HETATM   23  C10 UNL     1      56.276  -8.597  40.988  1.00  0.00     0.088 C 
HETATM   24  C11 UNL     1      54.876  -8.916  40.788  1.00  0.00     0.075 C 
ATOM     25  H3  UNL     1      57.977  -8.365  41.917  1.00  0.00     0.162 HD
BRANCH  23  26
HETATM   26  C12 UNL     1      57.097  -8.178  39.591  1.00  0.00     0.357 C 
HETATM   27  O4  UNL     1      57.565  -7.331  39.773  1.00  0.00    -0.248 OA
HETATM   28  N4  UNL     1      56.696  -9.339  38.782  1.00  0.00    -0.265 NA
BRANCH  28  29
HETATM   29  N5  UNL     1      56.357 -10.333  38.076  1.00  0.00    -0.062 N 
ATOM     30  H5  UNL     1      57.125 -10.891  37.702  1.00  0.00     0.221 HD
BRANCH  29  31
HETATM   31  C13 UNL     1      55.019 -10.789  37.726  1.00  0.00     0.699 C 
HETATM   32  N6  UNL     1      54.443 -11.783  38.245  1.00  0.00    -0.224 N 
HETATM   33  C14 UNL     1      53.124 -12.158  37.831  1.00  0.00     0.139 C 
ATOM     34  H6  UNL     1      54.920 -12.324  38.966  1.00  0.00     0.177 HD
HETATM   35  C15 UNL     1      52.302 -10.956  37.304  1.00  0.00     0.040 C 
HETATM   36  C16 UNL     1      53.118 -10.424  36.173  1.00  0.00     0.139 C 
HETATM   37  N7  UNL     1      54.408 -10.020  36.721  1.00  0.00    -0.224 N 
ATOM     38  H7  UNL     1      54.868  -9.177  36.373  1.00  0.00     0.177 HD
ENDBRANCH  29  31
ENDBRANCH  28  29
ENDBRANCH  23  26
ENDBRANCH   1  22
TORSDOF 11
ENDMDL
MODEL 3
REMARK VINA RESULT: -8.676964219      5.282      7.177
REMARK  11 active torsions:
REMARK  status: ('A' for Active; 'I' for Inactive)
REMARK    1  A    between atoms: C2_2  and  O1_3 
REMARK    2  A    between atoms: O1_3  and  C3_4 
REMARK    3  A    between atoms: C3_4  and  C4_6 
REMARK    4  A    between atoms: C4_6  and  C5_7 
REMARK    5  A    between atoms: C5_7  and  N1_8 
REMARK    6  A    between atoms: C8_17  and  C9_18 
REMARK    7  A    between atoms: C9_18  and  O3_19 
REMARK    8  A    between atoms: C9_18  and  N3_21 
REMARK    9  A    between atoms: C10_23  and  C12_25 
REMARK       I    between atoms: C12_25  and  N4_27 
REMARK   10  A    between atoms: N4_27  and  N5_28 
REMARK   11  A    between atoms: N5_28  and  C13_30 
ROOT
HETATM    1  C9  UNL     1      57.742 -11.758  46.371  1.00  0.00     0.249 C 
ENDROOT
BRANCH   1   2
HETATM    2  C8  UNL     1      58.433 -10.841  45.424  1.00  0.00     0.204 C 
HETATM    3  C6  UNL     1      59.511 -11.607  44.623  1.00  0.00     0.219 C 
HETATM    4  N2  UNL     1      59.998 -10.439  43.815  1.00  0.00    -0.025 N 
HETATM    5  C7  UNL     1      60.630 -11.983  45.526  1.00  0.00     0.043 C 
HETATM    6  C4  UNL     1      59.575  -9.287  44.574  1.00  0.00     0.339 C 
ATOM      7  H22 UNL     1      59.684 -10.441  42.845  1.00  0.00     0.282 HD
ATOM      8  H21 UNL     1      60.996 -10.461  43.607  1.00  0.00     0.282 HD
HETATM    9  O5  UNL     1      59.175  -9.811  45.841  1.00  0.00    -0.333 OA
BRANCH   6  10
HETATM   10  C3  UNL     1      58.308  -8.783  43.941  1.00  0.00     0.325 C 
HETATM   11  O2  UNL     1      57.477  -8.037  44.569  1.00  0.00    -0.260 OA
BRANCH  10  12
HETATM   12  O1  UNL     1      57.970  -9.074  42.650  1.00  0.00    -0.318 OA
BRANCH  12  13
HETATM   13  C2  UNL     1      56.923  -8.329  42.015  1.00  0.00     0.174 C 
HETATM   14  C1  UNL     1      57.665  -7.391  41.062  1.00  0.00     0.034 C 
ENDBRANCH  12  13
ENDBRANCH  10  12
ENDBRANCH   6  10
BRANCH   6  15
HETATM   15  C5  UNL     1      60.602  -8.212  44.730  1.00  0.00     0.309 C 
BRANCH  15  16
HETATM   16  N1  UNL     1      60.479  -7.227  43.663  1.00  0.00    -0.074 N 
ATOM     17  H13 UNL     1      61.380  -6.818  43.419  1.00  0.00     0.274 HD
ATOM     18  H12 UNL     1      60.263  -7.665  42.767  1.00  0.00     0.274 HD
ATOM     19  H11 UNL     1      59.793  -6.513  43.910  1.00  0.00     0.274 HD
ENDBRANCH  15  16
ENDBRANCH   6  15
ENDBRANCH   1   2
BRANCH   1  20
HETATM   20  O3  UNL     1      57.161 -10.939  47.296  1.00  0.00    -0.374 OA
ATOM     21  H3  UNL     1      56.376 -11.397  47.571  1.00  0.00     0.212 HD
ENDBRANCH   1  20
BRANCH   1  22
HETATM   22  N3  UNL     1      56.854 -12.747  45.859  1.00  0.00    -0.360 N 
HETATM   23  C10 UNL     1      57.092 -13.950  46.008  1.00  0.00     0.088 C 
HETATM   24  C11 UNL     1      58.190 -14.648  46.647  1.00  0.00     0.075 C 
ATOM     25  H3  UNL     1      56.010 -12.459  45.362  1.00  0.00     0.162 HD
BRANCH  23  26
HETATM   26  C12 UNL     1      55.971 -14.951  45.271  1.00  0.00     0.357 C 
HETATM   27  O4  UNL     1      56.321 -15.171  44.378  1.00  0.00    -0.248 OA
HETATM   28  N4  UNL     1      55.006 -15.002  46.381  1.00  0.00    -0.265 NA
BRANCH  28  29
HETATM   29  N5  UNL     1      54.170 -15.053  47.329  1.00  0.00    -0.062 N 
ATOM     30  H5  UNL     1      54.478 -15.552  48.163  1.00  0.00     0.221 HD
BRANCH  29  31
HETATM   31  C13 UNL     1      52.826 -14.494  47.391  1.00  0.00     0.699 C 
HETATM   32  N6  UNL     1      52.211 -13.999  46.409  1.00  0.00    -0.224 N 
HETATM   33  C14 UNL     1      50.890 -13.470  46.570  1.00  0.00     0.139 C 
ATOM     34  H6  UNL     1      52.657 -13.974  45.493  1.00  0.00     0.177 HD
HETATM   35  C15 UNL     1      50.114 -14.147  47.726  1.00  0.00     0.040 C 
HETATM   36  C16 UNL     1      50.967 -13.908  48.928  1.00  0.00     0.139 C 
HETATM   37  N7  UNL     1      52.258 -14.540  48.676  1.00  0.00    -0.224 N 
ATOM     38  H7  UNL     1      52.749 -15.014  49.434  1.00  0.00     0.177 HD
ENDBRANCH  29  31
ENDBRANCH  28  29
ENDBRANCH  23  26
ENDBRANCH   1  22
TORSDOF 11
ENDMDL
MODEL 4
REMARK VINA RESULT: -8.616799549      4.985      6.880
REMARK  11 active torsions:
REMARK  status: ('A' for Active; 'I' for Inactive)
REMARK    1  A    between atoms: C2_2  and  O1_3 
REMARK    2  A    between atoms: O1_3  and  C3_4 
REMARK    3  A    between atoms: C3_4  and  C4_6 
REMARK    4  A    between atoms: C4_6  and  C5_7 
REMARK    5  A    between atoms: C5_7  and  N1_8 
REMARK    6  A    between atoms: C8_17  and  C9_18 
REMARK    7  A    between atoms: C9_18  and  O3_19 
REMARK    8  A    between atoms: C9_18  and  N3_21 
REMARK    9  A    between atoms: C10_23  and  C12_25 
REMARK       I    between atoms: C12_25  and  N4_27 
REMARK   10  A    between atoms: N4_27  and  N5_28 
REMARK   11  A    between atoms: N5_28  and  C13_30 
ROOT
HETATM    1  C9  UNL     1      57.512 -12.129  46.081  1.00  0.00     0.249 C 
ENDROOT
BRANCH   1   2
HETATM    2  C8  UNL     1      58.353 -11.067  45.467  1.00  0.00     0.204 C 
HETATM    3  C6  UNL     1      59.637 -11.680  44.862  1.00  0.00     0.219 C 
HETATM    4  N2  UNL     1      60.232 -10.395  44.364  1.00  0.00    -0.025 N 
HETATM    5  C7  UNL     1      60.527 -12.153  45.956  1.00  0.00     0.043 C 
HETATM    6  C4  UNL     1      59.569  -9.377  45.142  1.00  0.00     0.339 C 
ATOM      7  H22 UNL     1      60.162 -10.264  43.355  1.00  0.00     0.282 HD
ATOM      8  H21 UNL     1      61.251 -10.360  44.409  1.00  0.00     0.282 HD
HETATM    9  O5  UNL     1      58.908 -10.088  46.188  1.00  0.00    -0.333 OA
BRANCH   6  10
HETATM   10  C3  UNL     1      58.464  -8.820  44.288  1.00  0.00     0.325 C 
HETATM   11  O2  UNL     1      57.615  -7.970  44.733  1.00  0.00    -0.260 OA
BRANCH  10  12
HETATM   12  O1  UNL     1      58.303  -9.172  42.978  1.00  0.00    -0.318 OA
BRANCH  12  13
HETATM   13  C2  UNL     1      58.526  -8.192  41.956  1.00  0.00     0.174 C 
HETATM   14  C1  UNL     1      59.827  -8.642  41.291  1.00  0.00     0.034 C 
ENDBRANCH  12  13
ENDBRANCH  10  12
ENDBRANCH   6  10
BRANCH   6  15
HETATM   15  C5  UNL     1      60.459  -8.308  45.689  1.00  0.00     0.309 C 
BRANCH  15  16
HETATM   16  N1  UNL     1      60.886  -7.403  44.629  1.00  0.00    -0.074 N 
ATOM     17  H13 UNL     1      61.159  -7.908  43.787  1.00  0.00     0.274 HD
ATOM     18  H12 UNL     1      60.102  -6.876  44.244  1.00  0.00     0.274 HD
ATOM     19  H11 UNL     1      61.630  -6.788  44.960  1.00  0.00     0.274 HD
ENDBRANCH  15  16
ENDBRANCH   6  15
ENDBRANCH   1   2
BRANCH   1  20
HETATM   20  O3  UNL     1      56.548 -11.458  46.778  1.00  0.00    -0.374 OA
ATOM     21  H3  UNL     1      56.129 -12.119  47.317  1.00  0.00     0.212 HD
ENDBRANCH   1  20
BRANCH   1  22
HETATM   22  N3  UNL     1      56.991 -13.168  45.258  1.00  0.00    -0.360 N 
HETATM   23  C10 UNL     1      57.254 -14.353  45.489  1.00  0.00     0.088 C 
HETATM   24  C11 UNL     1      58.066 -14.982  46.513  1.00  0.00     0.075 C 
ATOM     25  H3  UNL     1      56.391 -12.931  44.467  1.00  0.00     0.162 HD
BRANCH  23  26
HETATM   26  C12 UNL     1      56.610 -15.413  44.367  1.00  0.00     0.357 C 
HETATM   27  O4  UNL     1      57.361 -15.766  43.836  1.00  0.00    -0.248 OA
HETATM   28  N4  UNL     1      55.202 -15.282  44.771  1.00  0.00    -0.265 NA
BRANCH  28  29
HETATM   29  N5  UNL     1      53.987 -15.177  45.109  1.00  0.00    -0.062 N 
ATOM     30  H5  UNL     1      53.306 -15.356  44.371  1.00  0.00     0.221 HD
BRANCH  29  31
HETATM   31  C13 UNL     1      53.429 -14.835  46.410  1.00  0.00     0.699 C 
HETATM   32  N6  UNL     1      54.106 -14.682  47.462  1.00  0.00    -0.224 N 
HETATM   33  C14 UNL     1      53.465 -14.348  48.698  1.00  0.00     0.139 C 
ATOM     34  H6  UNL     1      55.119 -14.796  47.432  1.00  0.00     0.177 HD
HETATM   35  C15 UNL     1      52.143 -13.570  48.492  1.00  0.00     0.040 C 
HETATM   36  C16 UNL     1      51.310 -14.481  47.652  1.00  0.00     0.139 C 
HETATM   37  N7  UNL     1      52.030 -14.700  46.403  1.00  0.00    -0.224 N 
ATOM     38  H7  UNL     1      51.517 -14.754  45.522  1.00  0.00     0.177 HD
ENDBRANCH  29  31
ENDBRANCH  28  29
ENDBRANCH  23  26
ENDBRANCH   1  22
TORSDOF 11
ENDMDL
MODEL 5
REMARK VINA RESULT: -8.508783032      1.857      3.276
REMARK  11 active torsions:
REMARK  status: ('A' for Active; 'I' for Inactive)
REMARK    1  A    between atoms: C2_2  and  O1_3 
REMARK    2  A    between atoms: O1_3  and  C3_4 
REMARK    3  A    between atoms: C3_4  and  C4_6 
REMARK    4  A    between atoms: C4_6  and  C5_7 
REMARK    5  A    between atoms: C5_7  and  N1_8 
REMARK    6  A    between atoms: C8_17  and  C9_18 
REMARK    7  A    between atoms: C9_18  and  O3_19 
REMARK    8  A    between atoms: C9_18  and  N3_21 
REMARK    9  A    between atoms: C10_23  and  C12_25 
REMARK       I    between atoms: C12_25  and  N4_27 
REMARK   10  A    between atoms: N4_27  and  N5_28 
REMARK   11  A    between atoms: N5_28  and  C13_30 
ROOT
HETATM    1  C9  UNL     1      58.143  -8.469  43.888  1.00  0.00     0.249 C 
ENDROOT
BRANCH   1   2
HETATM    2  C8  UNL     1      59.323  -9.351  44.098  1.00  0.00     0.204 C 
HETATM    3  C6  UNL     1      60.530  -8.525  44.601  1.00  0.00     0.219 C 
HETATM    4  N2  UNL     1      61.502  -9.665  44.690  1.00  0.00    -0.025 N 
HETATM    5  C7  UNL     1      61.021  -7.645  43.508  1.00  0.00     0.043 C 
HETATM    6  C4  UNL     1      60.940 -10.674  43.826  1.00  0.00     0.339 C 
ATOM      7  H22 UNL     1      61.688  -9.983  45.641  1.00  0.00     0.282 HD
ATOM      8  H21 UNL     1      62.465  -9.412  44.469  1.00  0.00     0.282 HD
HETATM    9  O5  UNL     1      59.918  -9.999  43.093  1.00  0.00    -0.333 OA
BRANCH   6  10
HETATM   10  C3  UNL     1      60.211 -11.651  44.706  1.00  0.00     0.325 C 
HETATM   11  O2  UNL     1      60.676 -12.036  45.837  1.00  0.00    -0.260 OA
BRANCH  10  12
HETATM   12  O1  UNL     1      58.998 -12.180  44.365  1.00  0.00    -0.318 OA
BRANCH  12  13
HETATM   13  C2  UNL     1      58.197 -12.807  45.376  1.00  0.00     0.174 C 
HETATM   14  C1  UNL     1      57.007 -11.861  45.540  1.00  0.00     0.034 C 
ENDBRANCH  12  13
ENDBRANCH  10  12
ENDBRANCH   6  10
BRANCH   6  15
HETATM   15  C5  UNL     1      61.912 -11.347  42.911  1.00  0.00     0.309 C 
BRANCH  15  16
HETATM   16  N1  UNL     1      61.929 -10.690  41.610  1.00  0.00    -0.074 N 
ATOM     17  H13 UNL     1      61.015 -10.313  41.364  1.00  0.00     0.274 HD
ATOM     18  H12 UNL     1      62.454  -9.816  41.634  1.00  0.00     0.274 HD
ATOM     19  H11 UNL     1      62.282 -11.325  40.892  1.00  0.00     0.274 HD
ENDBRANCH  15  16
ENDBRANCH   6  15
ENDBRANCH   1   2
BRANCH   1  20
HETATM   20  O3  UNL     1      58.154  -7.606  44.945  1.00  0.00    -0.374 OA
ATOM     21  H3  UNL     1      58.731  -6.899  44.680  1.00  0.00     0.212 HD
ENDBRANCH   1  20
BRANCH   1  22
HETATM   22  N3  UNL     1      57.975  -7.818  42.632  1.00  0.00    -0.360 N 
HETATM   23  C10 UNL     1      56.926  -7.940  41.991  1.00  0.00     0.088 C 
HETATM   24  C11 UNL     1      55.708  -8.680  42.257  1.00  0.00     0.075 C 
ATOM     25  H3  UNL     1      58.731  -7.244  42.257  1.00  0.00     0.162 HD
BRANCH  23  26
HETATM   26  C12 UNL     1      56.954  -7.161  40.509  1.00  0.00     0.357 C 
HETATM   27  O4  UNL     1      57.092  -6.203  40.687  1.00  0.00    -0.248 OA
HETATM   28  N4  UNL     1      56.764  -8.353  39.667  1.00  0.00    -0.265 NA
BRANCH  28  29
HETATM   29  N5  UNL     1      56.601  -9.371  38.934  1.00  0.00    -0.062 N 
ATOM     30  H5  UNL     1      57.447  -9.898  38.717  1.00  0.00     0.221 HD
BRANCH  29  31
HETATM   31  C13 UNL     1      55.370  -9.891  38.356  1.00  0.00     0.699 C 
HETATM   32  N6  UNL     1      55.196 -10.120  37.129  1.00  0.00    -0.224 N 
HETATM   33  C14 UNL     1      53.945 -10.631  36.654  1.00  0.00     0.139 C 
ATOM     34  H6  UNL     1      55.952  -9.941  36.469  1.00  0.00     0.177 HD
HETATM   35  C15 UNL     1      53.196 -11.461  37.725  1.00  0.00     0.040 C 
HETATM   36  C16 UNL     1      53.023 -10.514  38.866  1.00  0.00     0.139 C 
HETATM   37  N7  UNL     1      54.355 -10.111  39.303  1.00  0.00    -0.224 N 
ATOM     38  H7  UNL     1      54.549  -9.989  40.297  1.00  0.00     0.177 HD
ENDBRANCH  29  31
ENDBRANCH  28  29
ENDBRANCH  23  26
ENDBRANCH   1  22
TORSDOF 11
ENDMDL
