MODEL 1
REMARK VINA RESULT: -9.546692493      0.000      0.000
REMARK  8 active torsions:
REMARK  status: ('A' for Active; 'I' for Inactive)
REMARK    1  A    between atoms: N3_10  and  C6_11 
REMARK    2  A    between atoms: C6_11  and  C7_12 
REMARK       I    between atoms: C7_12  and  N4_14 
REMARK    3  A    between atoms: N4_14  and  C8_16 
REMARK    4  A    between atoms: C8_16  and  C9_17 
REMARK    5  A    between atoms: C9_17  and  N5_18 
REMARK    6  A    between atoms: N6_21  and  C12_22 
REMARK    7  A    between atoms: C13_25  and  N8_26 
REMARK    8  A    between atoms: C16_35  and  N11_36 
ROOT
HETATM    1  C7  UNL     1      56.779  -7.909  41.654  1.00  0.00     0.236 C 
HETATM    2  O1  UNL     1      56.636  -6.716  41.296  1.00  0.00    -0.272 OA
HETATM    3  N4  UNL     1      57.976  -8.410  42.212  1.00  0.00    -0.355 N 
ATOM      4  H4  UNL     1      58.004  -9.394  42.479  1.00  0.00     0.162 HD
ENDROOT
BRANCH   3   5
HETATM    5  C8  UNL     1      59.161  -7.620  42.426  1.00  0.00     0.167 C 
BRANCH   5   6
HETATM    6  C9  UNL     1      60.408  -8.369  41.980  1.00  0.00     0.087 C 
BRANCH   6   7
HETATM    7  N5  UNL     1      61.041  -9.092  43.005  1.00  0.00    -0.349 N 
HETATM    8  C10 UNL     1      61.319  -8.475  44.198  1.00  0.00     0.088 C 
HETATM    9  C11 UNL     1      60.985  -9.255  45.444  1.00  0.00     0.186 C 
HETATM   10  N6  UNL     1      60.628 -10.626  45.151  1.00  0.00    -0.206 N 
HETATM   11  C14 UNL     1      61.104 -11.331  43.999  1.00  0.00     0.186 C 
HETATM   12  C15 UNL     1      61.172 -10.450  42.769  1.00  0.00     0.088 C 
BRANCH  10  13
HETATM   13  C12 UNL     1      59.758 -11.284  46.056  1.00  0.00     0.710 A 
HETATM   14  N7  UNL     1      60.046 -12.451  46.703  1.00  0.00    -0.020 N 
HETATM   15  C13 UNL     1      59.010 -12.813  47.483  1.00  0.00     0.705 A 
ATOM     16  H7  UNL     1      60.919 -12.972  46.610  1.00  0.00     0.203 HD
HETATM   17  N9  UNL     1      58.089 -11.871  47.317  1.00  0.00    -0.118 N 
HETATM   18  N10 UNL     1      58.532 -10.960  46.468  1.00  0.00    -0.117 N 
ATOM     19  H9  UNL     1      57.178 -11.853  47.775  1.00  0.00     0.206 HD
ATOM     20  H10 UNL     1      58.014 -10.133  46.172  1.00  0.00     0.206 HD
BRANCH  15  21
HETATM   21  N8  UNL     1      59.003 -13.880  48.218  1.00  0.00    -0.233 N 
ATOM     22  H82 UNL     1      58.512 -14.765  48.098  1.00  0.00     0.174 HD
ATOM     23  H81 UNL     1      59.532 -13.973  49.085  1.00  0.00     0.174 HD
ENDBRANCH  15  21
ENDBRANCH  10  13
ENDBRANCH   6   7
ENDBRANCH   5   6
ENDBRANCH   3   5
BRANCH   1  24
HETATM   24  C6  UNL     1      55.586  -8.785  41.455  1.00  0.00     0.234 C 
BRANCH  24  25
HETATM   25  N3  UNL     1      55.493  -9.153  40.041  1.00  0.00    -0.318 N 
HETATM   26  C3  UNL     1      54.355  -9.306  39.321  1.00  0.00     0.141 A 
HETATM   27  N1  UNL     1      53.051  -9.191  39.662  1.00  0.00    -0.330 N 
HETATM   28  C4  UNL     1      54.638  -9.645  38.016  1.00  0.00     0.122 A 
HETATM   29  C2  UNL     1      52.091  -9.406  38.743  1.00  0.00     0.080 A 
ATOM     30  H1  UNL     1      52.795  -8.942  40.618  1.00  0.00     0.168 HD
HETATM   31  C1  UNL     1      50.640  -9.285  39.136  1.00  0.00     0.089 C 
HETATM   32  N12 UNL     1      52.346  -9.736  37.471  1.00  0.00    -0.331 N 
HETATM   33  C16 UNL     1      53.629  -9.858  37.099  1.00  0.00     0.131 A 
ATOM     34  H12 UNL     1      51.589  -9.889  36.805  1.00  0.00     0.168 HD
HETATM   35  N2  UNL     1      55.987  -9.693  37.964  1.00  0.00    -0.346 N 
HETATM   36  C5  UNL     1      56.494  -9.400  39.172  1.00  0.00     0.185 A 
ATOM     37  H2  UNL     1      56.537  -9.917  37.134  1.00  0.00     0.167 HD
BRANCH  33  38
HETATM   38  N11 UNL     1      53.925 -10.178  35.884  1.00  0.00    -0.383 N 
ATOM     39 2H11 UNL     1      54.669 -10.850  35.697  1.00  0.00     0.157 HD
ATOM     40 1H11 UNL     1      53.413  -9.754  35.110  1.00  0.00     0.157 HD
ENDBRANCH  33  38
ENDBRANCH  24  25
ENDBRANCH   1  24
TORSDOF 8
ENDMDL
MODEL 2
REMARK VINA RESULT: -9.370876883      1.076      1.955
REMARK  8 active torsions:
REMARK  status: ('A' for Active; 'I' for Inactive)
REMARK    1  A    between atoms: N3_10  and  C6_11 
REMARK    2  A    between atoms: C6_11  and  C7_12 
REMARK       I    between atoms: C7_12  and  N4_14 
REMARK    3  A    between atoms: N4_14  and  C8_16 
REMARK    4  A    between atoms: C8_16  and  C9_17 
REMARK    5  A    between atoms: C9_17  and  N5_18 
REMARK    6  A    between atoms: N6_21  and  C12_22 
REMARK    7  A    between atoms: C13_25  and  N8_26 
REMARK    8  A    between atoms: C16_35  and  N11_36 
ROOT
HETATM    1  C7  UNL     1      57.412  -8.193  40.384  1.00  0.00     0.236 C 
HETATM    2  O1  UNL     1      57.598  -7.072  39.856  1.00  0.00    -0.272 OA
HETATM    3  N4  UNL     1      58.055  -8.604  41.573  1.00  0.00    -0.355 N 
ATOM      4  H4  UNL     1      57.841  -9.533  41.936  1.00  0.00     0.162 HD
ENDROOT
BRANCH   3   5
HETATM    5  C8  UNL     1      58.993  -7.793  42.306  1.00  0.00     0.167 C 
BRANCH   5   6
HETATM    6  C9  UNL     1      60.427  -8.195  41.991  1.00  0.00     0.087 C 
BRANCH   6   7
HETATM    7  N5  UNL     1      61.054  -8.933  43.009  1.00  0.00    -0.349 N 
HETATM    8  C10 UNL     1      61.325  -8.334  44.212  1.00  0.00     0.088 C 
HETATM    9  C11 UNL     1      60.983  -9.133  45.445  1.00  0.00     0.186 C 
HETATM   10  N6  UNL     1      60.626 -10.499  45.129  1.00  0.00    -0.206 N 
HETATM   11  C14 UNL     1      61.109 -11.188  43.969  1.00  0.00     0.186 C 
HETATM   12  C15 UNL     1      61.184 -10.288  42.753  1.00  0.00     0.088 C 
BRANCH  10  13
HETATM   13  C12 UNL     1      59.750 -11.169  46.018  1.00  0.00     0.710 A 
HETATM   14  N7  UNL     1      60.052 -12.320  46.688  1.00  0.00    -0.020 N 
HETATM   15  C13 UNL     1      59.006 -12.701  47.445  1.00  0.00     0.705 A 
ATOM     16  H7  UNL     1      60.940 -12.818  46.625  1.00  0.00     0.203 HD
HETATM   17  N9  UNL     1      58.064 -11.787  47.243  1.00  0.00    -0.118 N 
HETATM   18  N10 UNL     1      58.505 -10.875  46.394  1.00  0.00    -0.117 N 
ATOM     19  H9  UNL     1      57.141 -11.788  47.676  1.00  0.00     0.206 HD
ATOM     20  H10 UNL     1      57.973 -10.065  46.074  1.00  0.00     0.206 HD
BRANCH  15  21
HETATM   21  N8  UNL     1      59.007 -13.759  48.192  1.00  0.00    -0.233 N 
ATOM     22  H82 UNL     1      59.128 -14.742  47.951  1.00  0.00     0.174 HD
ATOM     23  H81 UNL     1      58.873 -13.738  49.204  1.00  0.00     0.174 HD
ENDBRANCH  15  21
ENDBRANCH  10  13
ENDBRANCH   6   7
ENDBRANCH   5   6
ENDBRANCH   3   5
BRANCH   1  24
HETATM   24  C6  UNL     1      56.450  -9.086  39.671  1.00  0.00     0.234 C 
BRANCH  24  25
HETATM   25  N3  UNL     1      55.085  -8.715  40.047  1.00  0.00    -0.318 N 
HETATM   26  C3  UNL     1      53.943  -9.116  39.438  1.00  0.00     0.141 A 
HETATM   27  N1  UNL     1      53.727  -9.910  38.364  1.00  0.00    -0.330 N 
HETATM   28  C4  UNL     1      52.836  -8.585  40.062  1.00  0.00     0.122 A 
HETATM   29  C2  UNL     1      52.470 -10.153  37.945  1.00  0.00     0.080 A 
ATOM     30  H1  UNL     1      54.517 -10.326  37.870  1.00  0.00     0.168 HD
HETATM   31  C1  UNL     1      52.240 -11.031  36.741  1.00  0.00     0.089 C 
HETATM   32  N12 UNL     1      51.382  -9.646  38.539  1.00  0.00    -0.331 N 
HETATM   33  C16 UNL     1      51.562  -8.854  39.606  1.00  0.00     0.131 A 
ATOM     34  H12 UNL     1      50.447  -9.855  38.190  1.00  0.00     0.168 HD
HETATM   35  N2  UNL     1      53.340  -7.846  41.075  1.00  0.00    -0.346 N 
HETATM   36  C5  UNL     1      54.681  -7.925  41.063  1.00  0.00     0.185 A 
ATOM     37  H2  UNL     1      52.788  -7.311  41.745  1.00  0.00     0.167 HD
BRANCH  33  38
HETATM   38  N11 UNL     1      50.543  -8.339  40.211  1.00  0.00    -0.383 N 
ATOM     39 2H11 UNL     1      50.665  -7.536  40.827  1.00  0.00     0.157 HD
ATOM     40 1H11 UNL     1      49.616  -8.740  40.070  1.00  0.00     0.157 HD
ENDBRANCH  33  38
ENDBRANCH  24  25
ENDBRANCH   1  24
TORSDOF 8
ENDMDL
MODEL 3
REMARK VINA RESULT: -9.276694319      2.008      2.710
REMARK  8 active torsions:
REMARK  status: ('A' for Active; 'I' for Inactive)
REMARK    1  A    between atoms: N3_10  and  C6_11 
REMARK    2  A    between atoms: C6_11  and  C7_12 
REMARK       I    between atoms: C7_12  and  N4_14 
REMARK    3  A    between atoms: N4_14  and  C8_16 
REMARK    4  A    between atoms: C8_16  and  C9_17 
REMARK    5  A    between atoms: C9_17  and  N5_18 
REMARK    6  A    between atoms: N6_21  and  C12_22 
REMARK    7  A    between atoms: C13_25  and  N8_26 
REMARK    8  A    between atoms: C16_35  and  N11_36 
ROOT
HETATM    1  C7  UNL     1      54.242  -8.767  41.226  1.00  0.00     0.236 C 
HETATM    2  O1  UNL     1      53.646  -9.491  42.059  1.00  0.00    -0.272 OA
HETATM    3  N4  UNL     1      55.595  -8.384  41.363  1.00  0.00    -0.355 N 
ATOM      4  H4  UNL     1      56.001  -7.796  40.635  1.00  0.00     0.162 HD
ENDROOT
BRANCH   3   5
HETATM    5  C8  UNL     1      56.437  -8.772  42.465  1.00  0.00     0.167 C 
BRANCH   5   6
HETATM    6  C9  UNL     1      57.892  -8.415  42.195  1.00  0.00     0.087 C 
BRANCH   6   7
HETATM    7  N5  UNL     1      58.767  -8.738  43.246  1.00  0.00    -0.349 N 
HETATM    8  C10 UNL     1      58.421  -8.426  44.536  1.00  0.00     0.088 C 
HETATM    9  C11 UNL     1      58.650  -9.504  45.565  1.00  0.00     0.186 C 
HETATM   10  N6  UNL     1      59.410 -10.614  45.034  1.00  0.00    -0.206 N 
HETATM   11  C14 UNL     1      60.338 -10.482  43.950  1.00  0.00     0.186 C 
HETATM   12  C15 UNL     1      59.850  -9.521  42.886  1.00  0.00     0.088 C 
BRANCH  10  13
HETATM   13  C12 UNL     1      59.208 -11.887  45.622  1.00  0.00     0.710 A 
HETATM   14  N7  UNL     1      58.157 -12.714  45.347  1.00  0.00    -0.020 N 
HETATM   15  C13 UNL     1      58.255 -13.842  46.075  1.00  0.00     0.705 A 
ATOM     16  H7  UNL     1      57.407 -12.508  44.686  1.00  0.00     0.203 HD
HETATM   17  N9  UNL     1      59.364 -13.710  46.794  1.00  0.00    -0.118 N 
HETATM   18  N10 UNL     1      59.932 -12.547  46.526  1.00  0.00    -0.117 N 
ATOM     19  H9  UNL     1      59.722 -14.401  47.454  1.00  0.00     0.206 HD
ATOM     20  H10 UNL     1      60.796 -12.206  46.948  1.00  0.00     0.206 HD
BRANCH  15  21
HETATM   21  N8  UNL     1      57.397 -14.811  46.018  1.00  0.00    -0.233 N 
ATOM     22  H82 UNL     1      56.624 -14.976  45.374  1.00  0.00     0.174 HD
ATOM     23  H81 UNL     1      57.385 -15.595  46.671  1.00  0.00     0.174 HD
ENDBRANCH  15  21
ENDBRANCH  10  13
ENDBRANCH   6   7
ENDBRANCH   5   6
ENDBRANCH   3   5
BRANCH   1  24
HETATM   24  C6  UNL     1      53.422  -8.327  40.059  1.00  0.00     0.234 C 
BRANCH  24  25
HETATM   25  N3  UNL     1      53.010  -9.504  39.292  1.00  0.00    -0.318 N 
HETATM   26  C3  UNL     1      51.744  -9.832  38.936  1.00  0.00     0.141 A 
HETATM   27  N1  UNL     1      50.557  -9.229  39.173  1.00  0.00    -0.330 N 
HETATM   28  C4  UNL     1      51.723 -11.002  38.209  1.00  0.00     0.122 A 
HETATM   29  C2  UNL     1      49.417  -9.772  38.706  1.00  0.00     0.080 A 
ATOM     30  H1  UNL     1      50.525  -8.360  39.707  1.00  0.00     0.168 HD
HETATM   31  C1  UNL     1      48.098  -9.098  38.984  1.00  0.00     0.089 C 
HETATM   32  N12 UNL     1      49.376 -10.908  37.998  1.00  0.00    -0.331 N 
HETATM   33  C16 UNL     1      50.537 -11.532  37.745  1.00  0.00     0.131 A 
ATOM     34  H12 UNL     1      48.492 -11.287  37.661  1.00  0.00     0.168 HD
HETATM   35  N2  UNL     1      53.019 -11.377  38.133  1.00  0.00    -0.346 N 
HETATM   36  C5  UNL     1      53.784 -10.483  38.780  1.00  0.00     0.185 A 
ATOM     37  H2  UNL     1      53.363 -12.211  37.657  1.00  0.00     0.167 HD
BRANCH  33  38
HETATM   38  N11 UNL     1      50.548 -12.632  37.069  1.00  0.00    -0.383 N 
ATOM     39 2H11 UNL     1      51.379 -12.902  36.542  1.00  0.00     0.157 HD
ATOM     40 1H11 UNL     1      49.722 -13.230  37.062  1.00  0.00     0.157 HD
ENDBRANCH  33  38
ENDBRANCH  24  25
ENDBRANCH   1  24
TORSDOF 8
ENDMDL
MODEL 4
REMARK VINA RESULT: -9.243739967      3.540      8.423
REMARK  8 active torsions:
REMARK  status: ('A' for Active; 'I' for Inactive)
REMARK    1  A    between atoms: N3_10  and  C6_11 
REMARK    2  A    between atoms: C6_11  and  C7_12 
REMARK       I    between atoms: C7_12  and  N4_14 
REMARK    3  A    between atoms: N4_14  and  C8_16 
REMARK    4  A    between atoms: C8_16  and  C9_17 
REMARK    5  A    between atoms: C9_17  and  N5_18 
REMARK    6  A    between atoms: N6_21  and  C12_22 
REMARK    7  A    between atoms: C13_25  and  N8_26 
REMARK    8  A    between atoms: C16_35  and  N11_36 
ROOT
HETATM    1  C7  UNL     1      57.747 -11.529  46.201  1.00  0.00     0.236 C 
HETATM    2  O1  UNL     1      57.273 -10.962  47.214  1.00  0.00    -0.272 OA
HETATM    3  N4  UNL     1      58.986 -11.171  45.625  1.00  0.00    -0.355 N 
ATOM      4  H4  UNL     1      59.298 -11.688  44.802  1.00  0.00     0.162 HD
ENDROOT
BRANCH   3   5
HETATM    5  C8  UNL     1      59.838 -10.123  46.125  1.00  0.00     0.167 C 
BRANCH   5   6
HETATM    6  C9  UNL     1      61.243 -10.238  45.552  1.00  0.00     0.087 C 
BRANCH   6   7
HETATM    7  N5  UNL     1      61.442  -9.509  44.368  1.00  0.00    -0.349 N 
HETATM    8  C10 UNL     1      61.660 -10.176  43.190  1.00  0.00     0.088 C 
HETATM    9  C11 UNL     1      60.892  -9.677  41.992  1.00  0.00     0.186 C 
HETATM   10  N6  UNL     1      60.218  -8.425  42.257  1.00  0.00    -0.206 N 
HETATM   11  C14 UNL     1      60.677  -7.478  43.230  1.00  0.00     0.186 C 
HETATM   12  C15 UNL     1      61.220  -8.146  44.476  1.00  0.00     0.088 C 
BRANCH  10  13
HETATM   13  C12 UNL     1      59.045  -8.141  41.515  1.00  0.00     0.710 A 
HETATM   14  N7  UNL     1      58.241  -7.056  41.713  1.00  0.00    -0.020 N 
HETATM   15  C13 UNL     1      57.208  -7.084  40.850  1.00  0.00     0.705 A 
ATOM     16  H7  UNL     1      58.400  -6.330  42.412  1.00  0.00     0.203 HD
HETATM   17  N9  UNL     1      57.377  -8.181  40.122  1.00  0.00    -0.118 N 
HETATM   18  N10 UNL     1      58.470  -8.812  40.517  1.00  0.00    -0.117 N 
ATOM     19  H9  UNL     1      56.758  -8.491  39.373  1.00  0.00     0.206 HD
ATOM     20  H10 UNL     1      58.820  -9.683  40.117  1.00  0.00     0.206 HD
BRANCH  15  21
HETATM   21  N8  UNL     1      56.284  -6.176  40.807  1.00  0.00    -0.233 N 
ATOM     22  H82 UNL     1      56.351  -5.164  40.711  1.00  0.00     0.174 HD
ATOM     23  H81 UNL     1      55.287  -6.382  40.872  1.00  0.00     0.174 HD
ENDBRANCH  15  21
ENDBRANCH  10  13
ENDBRANCH   6   7
ENDBRANCH   5   6
ENDBRANCH   3   5
BRANCH   1  24
HETATM   24  C6  UNL     1      56.910 -12.626  45.630  1.00  0.00     0.234 C 
BRANCH  24  25
HETATM   25  N3  UNL     1      56.994 -13.797  46.504  1.00  0.00    -0.318 N 
HETATM   26  C3  UNL     1      56.011 -14.278  47.304  1.00  0.00     0.141 A 
HETATM   27  N1  UNL     1      54.749 -13.850  47.537  1.00  0.00    -0.330 N 
HETATM   28  C4  UNL     1      56.432 -15.402  47.981  1.00  0.00     0.122 A 
HETATM   29  C2  UNL     1      53.959 -14.515  48.401  1.00  0.00     0.080 A 
ATOM     30  H1  UNL     1      54.396 -13.022  47.058  1.00  0.00     0.168 HD
HETATM   31  C1  UNL     1      52.558 -14.024  48.662  1.00  0.00     0.089 C 
HETATM   32  N12 UNL     1      54.349 -15.609  49.068  1.00  0.00    -0.331 N 
HETATM   33  C16 UNL     1      55.595 -16.060  48.860  1.00  0.00     0.131 A 
ATOM     34  H12 UNL     1      53.719 -16.084  49.714  1.00  0.00     0.168 HD
HETATM   35  N2  UNL     1      57.704 -15.591  47.567  1.00  0.00    -0.346 N 
HETATM   36  C5  UNL     1      58.037 -14.633  46.688  1.00  0.00     0.185 A 
ATOM     37  H2  UNL     1      58.317 -16.346  47.876  1.00  0.00     0.167 HD
BRANCH  33  38
HETATM   38  N11 UNL     1      56.018 -17.109  49.483  1.00  0.00    -0.383 N 
ATOM     39 2H11 UNL     1      57.011 -17.216  49.691  1.00  0.00     0.157 HD
ATOM     40 1H11 UNL     1      55.356 -17.831  49.764  1.00  0.00     0.157 HD
ENDBRANCH  33  38
ENDBRANCH  24  25
ENDBRANCH   1  24
TORSDOF 8
ENDMDL
MODEL 5
REMARK VINA RESULT: -9.210498604      3.965      7.296
REMARK  8 active torsions:
REMARK  status: ('A' for Active; 'I' for Inactive)
REMARK    1  A    between atoms: N3_10  and  C6_11 
REMARK    2  A    between atoms: C6_11  and  C7_12 
REMARK       I    between atoms: C7_12  and  N4_14 
REMARK    3  A    between atoms: N4_14  and  C8_16 
REMARK    4  A    between atoms: C8_16  and  C9_17 
REMARK    5  A    between atoms: C9_17  and  N5_18 
REMARK    6  A    between atoms: N6_21  and  C12_22 
REMARK    7  A    between atoms: C13_25  and  N8_26 
REMARK    8  A    between atoms: C16_35  and  N11_36 
ROOT
HETATM    1  C7  UNL     1      58.416 -10.473  46.325  1.00  0.00     0.236 C 
HETATM    2  O1  UNL     1      57.275 -10.781  45.904  1.00  0.00    -0.272 OA
HETATM    3  N4  UNL     1      59.203 -11.334  47.122  1.00  0.00    -0.355 N 
ATOM      4  H4  UNL     1      60.122 -11.003  47.418  1.00  0.00     0.162 HD
ENDROOT
BRANCH   3   5
HETATM    5  C8  UNL     1      58.791 -12.647  47.544  1.00  0.00     0.167 C 
BRANCH   5   6
HETATM    6  C9  UNL     1      58.880 -13.644  46.398  1.00  0.00     0.087 C 
BRANCH   6   7
HETATM    7  N5  UNL     1      57.851 -14.602  46.389  1.00  0.00    -0.349 N 
HETATM    8  C10 UNL     1      57.708 -15.452  47.455  1.00  0.00     0.088 C 
HETATM    9  C11 UNL     1      56.301 -15.649  47.963  1.00  0.00     0.186 C 
HETATM   10  N6  UNL     1      55.315 -15.066  47.081  1.00  0.00    -0.206 N 
HETATM   11  C14 UNL     1      55.525 -14.892  45.674  1.00  0.00     0.186 C 
HETATM   12  C15 UNL     1      56.945 -14.477  45.349  1.00  0.00     0.088 C 
BRANCH  10  13
HETATM   13  C12 UNL     1      54.089 -14.645  47.655  1.00  0.00     0.710 A 
HETATM   14  N7  UNL     1      53.045 -14.110  46.957  1.00  0.00    -0.020 N 
HETATM   15  C13 UNL     1      52.035 -13.811  47.795  1.00  0.00     0.705 A 
ATOM     16  H7  UNL     1      53.032 -13.960  45.948  1.00  0.00     0.203 HD
HETATM   17  N9  UNL     1      52.456 -14.162  49.005  1.00  0.00    -0.118 N 
HETATM   18  N10 UNL     1      53.678 -14.659  48.923  1.00  0.00    -0.117 N 
ATOM     19  H9  UNL     1      51.918 -14.063  49.866  1.00  0.00     0.206 HD
ATOM     20  H10 UNL     1      54.226 -15.001  49.713  1.00  0.00     0.206 HD
BRANCH  15  21
HETATM   21  N8  UNL     1      50.913 -13.291  47.410  1.00  0.00    -0.233 N 
ATOM     22  H82 UNL     1      50.712 -12.611  46.677  1.00  0.00     0.174 HD
ATOM     23  H81 UNL     1      50.011 -13.514  47.833  1.00  0.00     0.174 HD
ENDBRANCH  15  21
ENDBRANCH  10  13
ENDBRANCH   6   7
ENDBRANCH   5   6
ENDBRANCH   3   5
BRANCH   1  24
HETATM   24  C6  UNL     1      58.903  -9.119  45.925  1.00  0.00     0.234 C 
BRANCH  24  25
HETATM   25  N3  UNL     1      59.951  -9.267  44.913  1.00  0.00    -0.318 N 
HETATM   26  C3  UNL     1      59.820  -9.063  43.580  1.00  0.00     0.141 A 
HETATM   27  N1  UNL     1      58.758  -8.701  42.825  1.00  0.00    -0.330 N 
HETATM   28  C4  UNL     1      61.013  -9.283  42.927  1.00  0.00     0.122 A 
HETATM   29  C2  UNL     1      58.890  -8.570  41.491  1.00  0.00     0.080 A 
ATOM     30  H1  UNL     1      57.854  -8.528  43.266  1.00  0.00     0.168 HD
HETATM   31  C1  UNL     1      57.698  -8.177  40.657  1.00  0.00     0.089 C 
HETATM   32  N12 UNL     1      60.041  -8.779  40.839  1.00  0.00    -0.331 N 
HETATM   33  C16 UNL     1      61.114  -9.139  41.558  1.00  0.00     0.131 A 
ATOM     34  H12 UNL     1      60.099  -8.668  39.827  1.00  0.00     0.168 HD
HETATM   35  N2  UNL     1      61.877  -9.628  43.906  1.00  0.00    -0.346 N 
HETATM   36  C5  UNL     1      61.241  -9.618  45.089  1.00  0.00     0.185 A 
ATOM     37  H2  UNL     1      62.861  -9.859  43.769  1.00  0.00     0.167 HD
BRANCH  33  38
HETATM   38  N11 UNL     1      62.245  -9.355  40.973  1.00  0.00    -0.383 N 
ATOM     39 2H11 UNL     1      62.951  -9.938  41.422  1.00  0.00     0.157 HD
ATOM     40 1H11 UNL     1      62.430  -8.939  40.061  1.00  0.00     0.157 HD
ENDBRANCH  33  38
ENDBRANCH  24  25
ENDBRANCH   1  24
TORSDOF 8
ENDMDL
