MODEL 1
REMARK VINA RESULT: -7.924418195      0.000      0.000
REMARK  10 active torsions:
REMARK  status: ('A' for Active; 'I' for Inactive)
REMARK    1  A    between atoms: N1_1  and  C1_4 
REMARK       I    between atoms: N4_10  and  C3_12 
REMARK    2  A    between atoms: C3_12  and  C4_14 
REMARK    3  A    between atoms: C4_14  and  C8_27 
REMARK    4  A    between atoms: N5_15  and  O2_17 
REMARK    5  A    between atoms: O2_17  and  C5_18 
REMARK    6  A    between atoms: C5_18  and  C6_19 
REMARK    7  A    between atoms: C5_18  and  C7_22 
REMARK    8  A    between atoms: C7_22  and  O4_23 
REMARK    9  A    between atoms: C7_22  and  O5_25 
REMARK   10  A    between atoms: N7_31  and  O6_32 
ROOT
HETATM    1  C4  UNL     1      57.401 -12.735  46.178  1.00  0.00     0.158 C 
HETATM    2  N5  UNL     1      58.010 -13.858  46.116  1.00  0.00    -0.258 N 
ATOM      3  H5  UNL     1      59.011 -13.910  45.921  1.00  0.00     0.194 HD
ENDROOT
BRANCH   1   4
HETATM    4  C3  UNL     1      55.980 -12.594  46.455  1.00  0.00     0.279 C 
HETATM    5  N4  UNL     1      55.004 -13.389  45.801  1.00  0.00    -0.300 N 
HETATM    6  C2  UNL     1      53.952 -13.736  46.511  1.00  0.00     0.169 A 
ATOM      7  H4  UNL     1      55.113 -13.678  44.829  1.00  0.00     0.171 HD
HETATM    8  N3  UNL     1      52.914 -14.474  46.116  1.00  0.00    -0.277 N 
HETATM    9  S2  UNL     1      53.552 -13.383  48.129  1.00  0.00    -0.015 SA
HETATM   10  N2  UNL     1      51.972 -14.715  46.946  1.00  0.00    -0.278 N 
ATOM     11  H3  UNL     1      52.871 -14.841  45.166  1.00  0.00     0.189 HD
HETATM   12  C1  UNL     1      52.055 -14.222  48.183  1.00  0.00     0.160 A 
ATOM     13  H2  UNL     1      51.167 -15.276  46.666  1.00  0.00     0.189 HD
HETATM   14  O1  UNL     1      55.595 -11.750  47.295  1.00  0.00    -0.265 OA
BRANCH  12  15
HETATM   15  N1  UNL     1      51.216 -14.340  49.190  1.00  0.00    -0.379 N 
ATOM     16  H12 UNL     1      50.271 -14.724  49.190  1.00  0.00     0.158 HD
ATOM     17  H11 UNL     1      51.335 -14.076  50.169  1.00  0.00     0.158 HD
ENDBRANCH  12  15
ENDBRANCH   1   4
BRANCH   1  18
HETATM   18  C8  UNL     1      58.211 -11.515  45.954  1.00  0.00     0.136 A 
HETATM   19  S1  UNL     1      57.882 -10.199  44.897  1.00  0.00    -0.078 SA
HETATM   20  C9  UNL     1      59.264  -9.258  45.237  1.00  0.00     0.071 A 
HETATM   21  C10 UNL     1      59.908 -10.032  46.163  1.00  0.00     0.131 A 
HETATM   22  N7  UNL     1      59.365 -11.159  46.510  1.00  0.00    -0.226 N 
BRANCH  22  23
HETATM   23  O6  UNL     1      59.957 -12.025  47.459  1.00  0.00    -0.282 OA
ATOM     24  H6  UNL     1      59.970 -11.762  48.371  1.00  0.00     0.245 HD
ENDBRANCH  22  23
ENDBRANCH   1  18
BRANCH   2  25
HETATM   25  O2  UNL     1      57.262 -14.996  46.324  1.00  0.00    -0.260 OA
BRANCH  25  26
HETATM   26  C5  UNL     1      57.538 -15.950  47.300  1.00  0.00     0.295 C 
BRANCH  26  27
HETATM   27  C6  UNL     1      56.992 -15.587  48.625  1.00  0.00     0.267 C 
HETATM   28  N6  UNL     1      56.308 -16.508  49.450  1.00  0.00    -0.059 NA
HETATM   29  O3  UNL     1      57.125 -14.404  49.072  1.00  0.00    -0.274 OA
ENDBRANCH  26  27
BRANCH  26  30
HETATM   30  C7  UNL     1      59.020 -16.269  47.376  1.00  0.00     0.294 C 
BRANCH  30  31
HETATM   31  O4  UNL     1      59.744 -15.223  47.923  1.00  0.00    -0.368 OA
ATOM     32  H4  UNL     1      60.586 -15.512  48.255  1.00  0.00     0.212 HD
ENDBRANCH  30  31
BRANCH  30  33
HETATM   33  O5  UNL     1      59.251 -17.388  48.174  1.00  0.00    -0.368 OA
ATOM     34  H5  UNL     1      60.176 -17.484  48.370  1.00  0.00     0.212 HD
ENDBRANCH  30  33
ENDBRANCH  26  30
ENDBRANCH  25  26
ENDBRANCH   2  25
TORSDOF 10
ENDMDL
MODEL 2
REMARK VINA RESULT: -7.837524631      4.624      7.512
REMARK  10 active torsions:
REMARK  status: ('A' for Active; 'I' for Inactive)
REMARK    1  A    between atoms: N1_1  and  C1_4 
REMARK       I    between atoms: N4_10  and  C3_12 
REMARK    2  A    between atoms: C3_12  and  C4_14 
REMARK    3  A    between atoms: C4_14  and  C8_27 
REMARK    4  A    between atoms: N5_15  and  O2_17 
REMARK    5  A    between atoms: O2_17  and  C5_18 
REMARK    6  A    between atoms: C5_18  and  C6_19 
REMARK    7  A    between atoms: C5_18  and  C7_22 
REMARK    8  A    between atoms: C7_22  and  O4_23 
REMARK    9  A    between atoms: C7_22  and  O5_25 
REMARK   10  A    between atoms: N7_31  and  O6_32 
ROOT
HETATM    1  C4  UNL     1      58.934  -9.024  43.539  1.00  0.00     0.158 C 
HETATM    2  N5  UNL     1      58.259  -8.321  42.708  1.00  0.00    -0.258 N 
ATOM      3  H5  UNL     1      58.695  -7.916  41.879  1.00  0.00     0.194 HD
ENDROOT
BRANCH   1   4
HETATM    4  C3  UNL     1      58.371  -9.630  44.736  1.00  0.00     0.279 C 
HETATM    5  N4  UNL     1      57.286 -10.540  44.679  1.00  0.00    -0.300 N 
HETATM    6  C2  UNL     1      57.289 -11.520  45.558  1.00  0.00     0.169 A 
ATOM      7  H4  UNL     1      56.539 -10.440  43.992  1.00  0.00     0.171 HD
HETATM    8  N3  UNL     1      56.383 -12.488  45.698  1.00  0.00    -0.277 N 
HETATM    9  S2  UNL     1      58.409 -11.891  46.786  1.00  0.00    -0.015 SA
HETATM   10  N2  UNL     1      56.547 -13.365  46.612  1.00  0.00    -0.278 N 
ATOM     11  H3  UNL     1      55.570 -12.529  45.082  1.00  0.00     0.189 HD
HETATM   12  C1  UNL     1      57.620 -13.286  47.401  1.00  0.00     0.160 A 
ATOM     13  H2  UNL     1      55.867 -14.115  46.738  1.00  0.00     0.189 HD
HETATM   14  O1  UNL     1      58.854  -9.347  45.856  1.00  0.00    -0.265 OA
BRANCH  12  15
HETATM   15  N1  UNL     1      57.990 -14.067  48.394  1.00  0.00    -0.379 N 
ATOM     16  H12 UNL     1      58.529 -14.933  48.356  1.00  0.00     0.158 HD
ATOM     17  H11 UNL     1      57.816 -13.972  49.395  1.00  0.00     0.158 HD
ENDBRANCH  12  15
ENDBRANCH   1   4
BRANCH   1  18
HETATM   18  C8  UNL     1      60.371  -9.222  43.243  1.00  0.00     0.136 A 
HETATM   19  S1  UNL     1      61.211 -10.702  42.990  1.00  0.00    -0.078 SA
HETATM   20  C9  UNL     1      62.768 -10.059  42.721  1.00  0.00     0.071 A 
HETATM   21  C10 UNL     1      62.541  -8.715  42.845  1.00  0.00     0.131 A 
HETATM   22  N7  UNL     1      61.333  -8.315  43.107  1.00  0.00    -0.226 N 
BRANCH  22  23
HETATM   23  O6  UNL     1      61.004  -6.948  43.254  1.00  0.00    -0.282 OA
ATOM     24  H6  UNL     1      61.676  -6.297  43.094  1.00  0.00     0.245 HD
ENDBRANCH  22  23
ENDBRANCH   1  18
BRANCH   2  25
HETATM   25  O2  UNL     1      56.922  -8.134  42.978  1.00  0.00    -0.260 OA
BRANCH  25  26
HETATM   26  C5  UNL     1      55.934  -8.012  42.004  1.00  0.00     0.295 C 
BRANCH  26  27
HETATM   27  C6  UNL     1      56.090  -6.793  41.181  1.00  0.00     0.267 C 
HETATM   28  N6  UNL     1      57.051  -6.682  40.151  1.00  0.00    -0.059 NA
HETATM   29  O3  UNL     1      55.345  -5.783  41.383  1.00  0.00    -0.274 OA
ENDBRANCH  26  27
BRANCH  26  30
HETATM   30  C7  UNL     1      54.540  -8.111  42.594  1.00  0.00     0.294 C 
BRANCH  30  31
HETATM   31  O4  UNL     1      54.362  -7.225  43.644  1.00  0.00    -0.368 OA
ATOM     32  H4  UNL     1      54.238  -7.677  44.470  1.00  0.00     0.212 HD
ENDBRANCH  30  31
BRANCH  30  33
HETATM   33  O5  UNL     1      53.569  -7.816  41.639  1.00  0.00    -0.368 OA
ATOM     34  H5  UNL     1      53.103  -7.018  41.861  1.00  0.00     0.212 HD
ENDBRANCH  30  33
ENDBRANCH  26  30
ENDBRANCH  25  26
ENDBRANCH   2  25
TORSDOF 10
ENDMDL
MODEL 3
REMARK VINA RESULT: -7.833712401      4.575      7.172
REMARK  10 active torsions:
REMARK  status: ('A' for Active; 'I' for Inactive)
REMARK    1  A    between atoms: N1_1  and  C1_4 
REMARK       I    between atoms: N4_10  and  C3_12 
REMARK    2  A    between atoms: C3_12  and  C4_14 
REMARK    3  A    between atoms: C4_14  and  C8_27 
REMARK    4  A    between atoms: N5_15  and  O2_17 
REMARK    5  A    between atoms: O2_17  and  C5_18 
REMARK    6  A    between atoms: C5_18  and  C6_19 
REMARK    7  A    between atoms: C5_18  and  C7_22 
REMARK    8  A    between atoms: C7_22  and  O4_23 
REMARK    9  A    between atoms: C7_22  and  O5_25 
REMARK   10  A    between atoms: N7_31  and  O6_32 
ROOT
HETATM    1  C4  UNL     1      57.680  -8.859  42.940  1.00  0.00     0.158 C 
HETATM    2  N5  UNL     1      58.758  -8.871  42.252  1.00  0.00    -0.258 N 
ATOM      3  H5  UNL     1      58.799  -8.452  41.322  1.00  0.00     0.194 HD
ENDROOT
BRANCH   1   4
HETATM    4  C3  UNL     1      57.558  -9.435  44.271  1.00  0.00     0.279 C 
HETATM    5  N4  UNL     1      56.780 -10.594  44.520  1.00  0.00    -0.300 N 
HETATM    6  C2  UNL     1      57.230 -11.423  45.438  1.00  0.00     0.169 A 
ATOM      7  H4  UNL     1      55.914 -10.777  44.013  1.00  0.00     0.171 HD
HETATM    8  N3  UNL     1      56.676 -12.566  45.841  1.00  0.00    -0.277 N 
HETATM    9  S2  UNL     1      58.631 -11.337  46.404  1.00  0.00    -0.015 SA
HETATM   10  N2  UNL     1      57.256 -13.251  46.751  1.00  0.00    -0.278 N 
ATOM     11  H3  UNL     1      55.802 -12.891  45.429  1.00  0.00     0.189 HD
HETATM   12  C1  UNL     1      58.400 -12.800  47.271  1.00  0.00     0.160 A 
ATOM     13  H2  UNL     1      56.851 -14.129  47.076  1.00  0.00     0.189 HD
HETATM   14  O1  UNL     1      58.156  -8.900  45.232  1.00  0.00    -0.265 OA
BRANCH  12  15
HETATM   15  N1  UNL     1      59.162 -13.330  48.204  1.00  0.00    -0.379 N 
ATOM     16  H12 UNL     1      59.866 -14.062  48.111  1.00  0.00     0.158 HD
ATOM     17  H11 UNL     1      59.206 -13.123  49.203  1.00  0.00     0.158 HD
ENDBRANCH  12  15
ENDBRANCH   1   4
BRANCH   1  18
HETATM   18  C8  UNL     1      56.496  -8.213  42.328  1.00  0.00     0.136 A 
HETATM   19  S1  UNL     1      54.875  -8.787  42.284  1.00  0.00    -0.078 SA
HETATM   20  C9  UNL     1      54.177  -7.489  41.424  1.00  0.00     0.071 A 
HETATM   21  C10 UNL     1      55.259  -6.675  41.220  1.00  0.00     0.131 A 
HETATM   22  N7  UNL     1      56.412  -7.056  41.680  1.00  0.00    -0.226 N 
BRANCH  22  23
HETATM   23  O6  UNL     1      57.584  -6.282  41.517  1.00  0.00    -0.282 OA
ATOM     24  H6  UNL     1      57.512  -5.335  41.532  1.00  0.00     0.245 HD
ENDBRANCH  22  23
ENDBRANCH   1  18
BRANCH   2  25
HETATM   25  O2  UNL     1      59.862  -9.470  42.816  1.00  0.00    -0.260 OA
BRANCH  25  26
HETATM   26  C5  UNL     1      61.102  -9.580  42.190  1.00  0.00     0.295 C 
BRANCH  26  27
HETATM   27  C6  UNL     1      61.803 -10.838  42.528  1.00  0.00     0.267 C 
HETATM   28  N6  UNL     1      62.983 -11.257  41.873  1.00  0.00    -0.059 NA
HETATM   29  O3  UNL     1      61.350 -11.600  43.440  1.00  0.00    -0.274 OA
ENDBRANCH  26  27
BRANCH  26  30
HETATM   30  C7  UNL     1      61.977  -8.368  42.449  1.00  0.00     0.294 C 
BRANCH  30  31
HETATM   31  O4  UNL     1      61.276  -7.353  43.080  1.00  0.00    -0.368 OA
ATOM     32  H4  UNL     1      61.816  -6.582  43.213  1.00  0.00     0.212 HD
ENDBRANCH  30  31
BRANCH  30  33
HETATM   33  O5  UNL     1      63.055  -8.694  43.269  1.00  0.00    -0.368 OA
ATOM     34  H5  UNL     1      63.641  -7.953  43.373  1.00  0.00     0.212 HD
ENDBRANCH  30  33
ENDBRANCH  26  30
ENDBRANCH  25  26
ENDBRANCH   2  25
TORSDOF 10
ENDMDL
MODEL 4
REMARK VINA RESULT: -7.810442886      4.815      7.598
REMARK  10 active torsions:
REMARK  status: ('A' for Active; 'I' for Inactive)
REMARK    1  A    between atoms: N1_1  and  C1_4 
REMARK       I    between atoms: N4_10  and  C3_12 
REMARK    2  A    between atoms: C3_12  and  C4_14 
REMARK    3  A    between atoms: C4_14  and  C8_27 
REMARK    4  A    between atoms: N5_15  and  O2_17 
REMARK    5  A    between atoms: O2_17  and  C5_18 
REMARK    6  A    between atoms: C5_18  and  C6_19 
REMARK    7  A    between atoms: C5_18  and  C7_22 
REMARK    8  A    between atoms: C7_22  and  O4_23 
REMARK    9  A    between atoms: C7_22  and  O5_25 
REMARK   10  A    between atoms: N7_31  and  O6_32 
ROOT
HETATM    1  C4  UNL     1      58.708  -8.527  43.237  1.00  0.00     0.158 C 
HETATM    2  N5  UNL     1      57.990  -7.834  42.436  1.00  0.00    -0.258 N 
ATOM      3  H5  UNL     1      58.391  -7.401  41.603  1.00  0.00     0.194 HD
ENDROOT
BRANCH   1   4
HETATM    4  C3  UNL     1      58.196  -9.171  44.438  1.00  0.00     0.279 C 
HETATM    5  N4  UNL     1      57.278 -10.249  44.380  1.00  0.00    -0.300 N 
HETATM    6  C2  UNL     1      57.400 -11.180  45.303  1.00  0.00     0.169 A 
ATOM      7  H4  UNL     1      56.559 -10.302  43.659  1.00  0.00     0.171 HD
HETATM    8  N3  UNL     1      56.660 -12.279  45.450  1.00  0.00    -0.277 N 
HETATM    9  S2  UNL     1      58.507 -11.312  46.590  1.00  0.00    -0.015 SA
HETATM   10  N2  UNL     1      56.922 -13.080  46.410  1.00  0.00    -0.278 N 
ATOM     11  H3  UNL     1      55.894 -12.478  44.805  1.00  0.00     0.189 HD
HETATM   12  C1  UNL     1      57.929 -12.794  47.237  1.00  0.00     0.160 A 
ATOM     13  H2  UNL     1      56.368 -13.927  46.543  1.00  0.00     0.189 HD
HETATM   14  O1  UNL     1      58.573  -8.768  45.562  1.00  0.00    -0.265 OA
BRANCH  12  15
HETATM   15  N1  UNL     1      58.374 -13.464  48.279  1.00  0.00    -0.379 N 
ATOM     16  H12 UNL     1      57.986 -14.304  48.709  1.00  0.00     0.158 HD
ATOM     17  H11 UNL     1      59.189 -13.285  48.867  1.00  0.00     0.158 HD
ENDBRANCH  12  15
ENDBRANCH   1   4
BRANCH   1  18
HETATM   18  C8  UNL     1      60.143  -8.673  42.903  1.00  0.00     0.136 A 
HETATM   19  S1  UNL     1      60.850  -9.573  41.618  1.00  0.00    -0.078 SA
HETATM   20  C9  UNL     1      62.487  -9.219  41.940  1.00  0.00     0.071 A 
HETATM   21  C10 UNL     1      62.387  -8.411  43.041  1.00  0.00     0.131 A 
HETATM   22  N7  UNL     1      61.204  -8.149  43.508  1.00  0.00    -0.226 N 
BRANCH  22  23
HETATM   23  O6  UNL     1      61.003  -7.326  44.640  1.00  0.00    -0.282 OA
ATOM     24  H6  UNL     1      61.762  -6.982  45.095  1.00  0.00     0.245 HD
ENDBRANCH  22  23
ENDBRANCH   1  18
BRANCH   2  25
HETATM   25  O2  UNL     1      56.654  -7.695  42.743  1.00  0.00    -0.260 OA
BRANCH  25  26
HETATM   26  C5  UNL     1      55.639  -7.590  41.796  1.00  0.00     0.295 C 
BRANCH  26  27
HETATM   27  C6  UNL     1      55.360  -8.870  41.111  1.00  0.00     0.267 C 
HETATM   28  N6  UNL     1      54.082  -9.473  41.102  1.00  0.00    -0.059 NA
HETATM   29  O3  UNL     1      56.288  -9.483  40.493  1.00  0.00    -0.274 OA
ENDBRANCH  26  27
BRANCH  26  30
HETATM   30  C7  UNL     1      55.903  -6.473  40.803  1.00  0.00     0.294 C 
BRANCH  30  31
HETATM   31  O4  UNL     1      56.099  -5.257  41.437  1.00  0.00    -0.368 OA
ATOM     32  H4  UNL     1      57.017  -5.014  41.459  1.00  0.00     0.212 HD
ENDBRANCH  30  31
BRANCH  30  33
HETATM   33  O5  UNL     1      57.047  -6.731  40.050  1.00  0.00    -0.368 OA
ATOM     34  H5  UNL     1      57.271  -5.988  39.503  1.00  0.00     0.212 HD
ENDBRANCH  30  33
ENDBRANCH  26  30
ENDBRANCH  25  26
ENDBRANCH   2  25
TORSDOF 10
ENDMDL
MODEL 5
REMARK VINA RESULT: -7.779554040      4.843      7.634
REMARK  10 active torsions:
REMARK  status: ('A' for Active; 'I' for Inactive)
REMARK    1  A    between atoms: N1_1  and  C1_4 
REMARK       I    between atoms: N4_10  and  C3_12 
REMARK    2  A    between atoms: C3_12  and  C4_14 
REMARK    3  A    between atoms: C4_14  and  C8_27 
REMARK    4  A    between atoms: N5_15  and  O2_17 
REMARK    5  A    between atoms: O2_17  and  C5_18 
REMARK    6  A    between atoms: C5_18  and  C6_19 
REMARK    7  A    between atoms: C5_18  and  C7_22 
REMARK    8  A    between atoms: C7_22  and  O4_23 
REMARK    9  A    between atoms: C7_22  and  O5_25 
REMARK   10  A    between atoms: N7_31  and  O6_32 
ROOT
HETATM    1  C4  UNL     1      58.341  -8.733  43.358  1.00  0.00     0.158 C 
HETATM    2  N5  UNL     1      57.509  -8.024  42.693  1.00  0.00    -0.258 N 
ATOM      3  H5  UNL     1      57.785  -7.546  41.835  1.00  0.00     0.194 HD
ENDROOT
BRANCH   1   4
HETATM    4  C3  UNL     1      58.009  -9.440  44.585  1.00  0.00     0.279 C 
HETATM    5  N4  UNL     1      57.177 -10.588  44.590  1.00  0.00    -0.300 N 
HETATM    6  C2  UNL     1      57.466 -11.525  45.468  1.00  0.00     0.169 A 
ATOM      7  H4  UNL     1      56.393 -10.684  43.944  1.00  0.00     0.171 HD
HETATM    8  N3  UNL     1      56.834 -12.683  45.659  1.00  0.00    -0.277 N 
HETATM    9  S2  UNL     1      58.708 -11.593  46.633  1.00  0.00    -0.015 SA
HETATM   10  N2  UNL     1      57.256 -13.479  46.564  1.00  0.00    -0.278 N 
ATOM     11  H3  UNL     1      56.024 -12.929  45.090  1.00  0.00     0.189 HD
HETATM   12  C1  UNL     1      58.318 -13.130  47.292  1.00  0.00     0.160 A 
ATOM     13  H2  UNL     1      56.787 -14.371  46.728  1.00  0.00     0.189 HD
HETATM   14  O1  UNL     1      58.468  -9.031  45.676  1.00  0.00    -0.265 OA
BRANCH  12  15
HETATM   15  N1  UNL     1      58.920 -13.782  48.264  1.00  0.00    -0.379 N 
ATOM     16  H12 UNL     1      58.551 -14.043  49.179  1.00  0.00     0.158 HD
ATOM     17  H11 UNL     1      59.867 -14.159  48.304  1.00  0.00     0.158 HD
ENDBRANCH  12  15
ENDBRANCH   1   4
BRANCH   1  18
HETATM   18  C8  UNL     1      59.720  -8.829  42.827  1.00  0.00     0.136 A 
HETATM   19  S1  UNL     1      61.188  -9.017  43.705  1.00  0.00    -0.078 SA
HETATM   20  C9  UNL     1      62.266  -9.037  42.383  1.00  0.00     0.071 A 
HETATM   21  C10 UNL     1      61.411  -8.895  41.323  1.00  0.00     0.131 A 
HETATM   22  N7  UNL     1      60.139  -8.792  41.566  1.00  0.00    -0.226 N 
BRANCH  22  23
HETATM   23  O6  UNL     1      59.182  -8.642  40.536  1.00  0.00    -0.282 OA
ATOM     24  H6  UNL     1      58.361  -9.114  40.603  1.00  0.00     0.245 HD
ENDBRANCH  22  23
ENDBRANCH   1  18
BRANCH   2  25
HETATM   25  O2  UNL     1      56.225  -7.931  43.183  1.00  0.00    -0.260 OA
BRANCH  25  26
HETATM   26  C5  UNL     1      55.085  -7.855  42.386  1.00  0.00     0.295 C 
BRANCH  26  27
HETATM   27  C6  UNL     1      55.000  -8.956  41.402  1.00  0.00     0.267 C 
HETATM   28  N6  UNL     1      56.058  -9.280  40.522  1.00  0.00    -0.059 NA
HETATM   29  O3  UNL     1      53.945  -9.661  41.316  1.00  0.00    -0.274 OA
ENDBRANCH  26  27
BRANCH  26  30
HETATM   30  C7  UNL     1      54.950  -6.499  41.718  1.00  0.00     0.294 C 
BRANCH  30  31
HETATM   31  O4  UNL     1      56.171  -6.020  41.275  1.00  0.00    -0.368 OA
ATOM     32  H4  UNL     1      56.252  -5.083  41.409  1.00  0.00     0.212 HD
ENDBRANCH  30  31
BRANCH  30  33
HETATM   33  O5  UNL     1      54.110  -6.569  40.608  1.00  0.00    -0.368 OA
ATOM     34  H5  UNL     1      54.284  -5.858  40.002  1.00  0.00     0.212 HD
ENDBRANCH  30  33
ENDBRANCH  26  30
ENDBRANCH  25  26
ENDBRANCH   2  25
TORSDOF 10
ENDMDL
