MODEL 1
REMARK VINA RESULT: -9.457607078      0.000      0.000
REMARK  8 active torsions:
REMARK  status: ('A' for Active; 'I' for Inactive)
REMARK    1  A    between atoms: N1_1  and  C1_4 
REMARK    2  A    between atoms: N4_12  and  C5_13 
REMARK    3  A    between atoms: C5_13  and  C6_14 
REMARK    4  A    between atoms: C8_16  and  N5_17 
REMARK    5  A    between atoms: C8_16  and  C9_21 
REMARK    6  A    between atoms: C9_21  and  C10_22 
REMARK    7  A    between atoms: C10_22  and  N6_23 
REMARK       I    between atoms: N6_23  and  C11_25 
REMARK    8  A    between atoms: C11_25  and  C12_27 
ROOT
HETATM    1  C6  UNL     1      54.924  -9.660  39.487  1.00  0.00     0.142 C 
HETATM    2  C7  UNL     1      56.287  -9.098  39.499  1.00  0.00     0.074 C 
HETATM    3  C8  UNL     1      56.358  -8.173  40.700  1.00  0.00     0.148 C 
HETATM    4  C16 UNL     1      54.917  -8.134  41.106  1.00  0.00     0.207 C 
HETATM    5  O2  UNL     1      54.436  -9.401  40.782  1.00  0.00    -0.382 OA
ENDROOT
BRANCH   1   6
HETATM    6  C5  UNL     1      53.939  -9.097  38.447  1.00  0.00     0.164 C 
BRANCH   6   7
HETATM    7  N4  UNL     1      52.974 -10.070  38.126  1.00  0.00    -0.314 N 
HETATM    8  C4  UNL     1      51.597  -9.961  38.494  1.00  0.00     0.105 A 
HETATM    9  C1  UNL     1      51.064  -8.956  39.251  1.00  0.00     0.129 A 
HETATM   10  C3  UNL     1      50.750 -10.999  38.061  1.00  0.00     0.059 A 
HETATM   11  N2  UNL     1      49.731  -8.997  39.554  1.00  0.00    -0.337 N 
HETATM   12  C2  UNL     1      48.933  -9.993  39.133  1.00  0.00     0.182 A 
ATOM     13  H2  UNL     1      49.329  -8.247  40.117  1.00  0.00     0.168 HD
HETATM   14  N3  UNL     1      49.439 -10.989  38.390  1.00  0.00    -0.352 N 
ATOM     15  H3  UNL     1      48.830 -11.744  38.073  1.00  0.00     0.166 HD
HETATM   16  C18 UNL     1      51.203 -12.156  37.257  1.00  0.00     0.181 A 
HETATM   17  N9  UNL     1      52.597 -12.132  36.980  1.00  0.00    -0.359 N 
HETATM   18  C17 UNL     1      53.407 -11.221  37.351  1.00  0.00     0.191 A 
ATOM     19  H9  UNL     1      52.980 -12.907  36.439  1.00  0.00     0.162 HD
HETATM   20  N8  UNL     1      54.779 -11.345  37.058  1.00  0.00    -0.063 NA
BRANCH   9  21
HETATM   21  N1  UNL     1      51.786  -8.018  39.697  1.00  0.00    -0.384 N 
ATOM     22  H12 UNL     1      51.391  -7.274  40.272  1.00  0.00     0.157 HD
ATOM     23  H11 UNL     1      52.777  -7.979  39.460  1.00  0.00     0.157 HD
ENDBRANCH   9  21
ENDBRANCH   6   7
ENDBRANCH   1   6
BRANCH   3  24
HETATM   24  N5  UNL     1      56.835  -6.858  40.398  1.00  0.00    -0.068 N 
ATOM     25  H53 UNL     1      57.781  -6.899  40.021  1.00  0.00     0.275 HD
ATOM     26  H52 UNL     1      56.343  -6.476  39.590  1.00  0.00     0.275 HD
ATOM     27  H51 UNL     1      56.791  -6.208  41.183  1.00  0.00     0.275 HD
ENDBRANCH   3  24
BRANCH   3  28
HETATM   28  C9  UNL     1      57.177  -8.781  41.808  1.00  0.00     0.060 C 
BRANCH  28  29
HETATM   29  C10 UNL     1      58.176  -7.799  42.308  1.00  0.00     0.125 C 
BRANCH  29  30
HETATM   30  N6  UNL     1      59.538  -8.141  41.941  1.00  0.00    -0.359 N 
HETATM   31  C11 UNL     1      60.525  -8.350  42.922  1.00  0.00     0.248 C 
HETATM   32  O1  UNL     1      60.214  -8.236  44.133  1.00  0.00    -0.271 OA
ATOM     33  H6  UNL     1      59.784  -8.232  40.956  1.00  0.00     0.162 HD
BRANCH  31  34
HETATM   34  C12 UNL     1      61.927  -8.701  42.616  1.00  0.00     0.277 C 
HETATM   35  C13 UNL     1      62.063  -9.072  41.155  1.00  0.00     0.044 C 
HETATM   36  C14 UNL     1      61.876 -10.561  41.139  1.00  0.00     0.030 C 
HETATM   37  C15 UNL     1      62.220 -10.995  42.522  1.00  0.00     0.233 C 
HETATM   38  N7  UNL     1      62.382  -9.851  43.361  1.00  0.00    -0.062 N 
ATOM     39  H72 UNL     1      63.334  -9.746  43.713  1.00  0.00     0.278 HD
ATOM     40  H71 UNL     1      61.917  -9.950  44.263  1.00  0.00     0.278 HD
ENDBRANCH  31  34
ENDBRANCH  29  30
ENDBRANCH  28  29
ENDBRANCH   3  28
TORSDOF 8
ENDMDL
MODEL 2
REMARK VINA RESULT: -9.400083357      0.997      1.207
REMARK  8 active torsions:
REMARK  status: ('A' for Active; 'I' for Inactive)
REMARK    1  A    between atoms: N1_1  and  C1_4 
REMARK    2  A    between atoms: N4_12  and  C5_13 
REMARK    3  A    between atoms: C5_13  and  C6_14 
REMARK    4  A    between atoms: C8_16  and  N5_17 
REMARK    5  A    between atoms: C8_16  and  C9_21 
REMARK    6  A    between atoms: C9_21  and  C10_22 
REMARK    7  A    between atoms: C10_22  and  N6_23 
REMARK       I    between atoms: N6_23  and  C11_25 
REMARK    8  A    between atoms: C11_25  and  C12_27 
ROOT
HETATM    1  C6  UNL     1      54.871  -9.535  39.676  1.00  0.00     0.142 C 
HETATM    2  C7  UNL     1      56.282  -9.108  39.673  1.00  0.00     0.074 C 
HETATM    3  C8  UNL     1      56.405  -8.028  40.733  1.00  0.00     0.148 C 
HETATM    4  C16 UNL     1      54.962  -7.794  41.059  1.00  0.00     0.207 C 
HETATM    5  O2  UNL     1      54.368  -9.044  40.895  1.00  0.00    -0.382 OA
ENDROOT
BRANCH   1   6
HETATM    6  C5  UNL     1      53.984  -9.038  38.520  1.00  0.00     0.164 C 
BRANCH   6   7
HETATM    7  N4  UNL     1      53.048 -10.032  38.174  1.00  0.00    -0.314 N 
HETATM    8  C4  UNL     1      51.658  -9.949  38.497  1.00  0.00     0.105 A 
HETATM    9  C1  UNL     1      51.082  -8.950  39.231  1.00  0.00     0.129 A 
HETATM   10  C3  UNL     1      50.846 -11.005  38.044  1.00  0.00     0.059 A 
HETATM   11  N2  UNL     1      49.741  -9.015  39.492  1.00  0.00    -0.337 N 
HETATM   12  C2  UNL     1      48.976 -10.029  39.051  1.00  0.00     0.182 A 
ATOM     13  H2  UNL     1      49.307  -8.270  40.037  1.00  0.00     0.168 HD
HETATM   14  N3  UNL     1      49.525 -11.020  38.332  1.00  0.00    -0.352 N 
ATOM     15  H3  UNL     1      48.942 -11.788  38.000  1.00  0.00     0.166 HD
HETATM   16  C18 UNL     1      51.347 -12.158  37.262  1.00  0.00     0.181 A 
HETATM   17  N9  UNL     1      52.748 -12.108  37.029  1.00  0.00    -0.359 N 
HETATM   18  C17 UNL     1      53.528 -11.179  37.420  1.00  0.00     0.191 A 
ATOM     19  H9  UNL     1      53.164 -12.878  36.506  1.00  0.00     0.162 HD
HETATM   20  N8  UNL     1      54.911 -11.277  37.172  1.00  0.00    -0.063 NA
BRANCH   9  21
HETATM   21  N1  UNL     1      51.771  -7.995  39.693  1.00  0.00    -0.384 N 
ATOM     22  H12 UNL     1      51.664  -7.045  39.338  1.00  0.00     0.157 HD
ATOM     23  H11 UNL     1      52.468  -8.172  40.417  1.00  0.00     0.157 HD
ENDBRANCH   9  21
ENDBRANCH   6   7
ENDBRANCH   1   6
BRANCH   3  24
HETATM   24  N5  UNL     1      57.022  -6.823  40.270  1.00  0.00    -0.068 N 
ATOM     25  H53 UNL     1      56.923  -6.082  40.963  1.00  0.00     0.275 HD
ATOM     26  H52 UNL     1      58.038  -6.920  40.265  1.00  0.00     0.275 HD
ATOM     27  H51 UNL     1      56.690  -6.508  39.359  1.00  0.00     0.275 HD
ENDBRANCH   3  24
BRANCH   3  28
HETATM   28  C9  UNL     1      57.121  -8.542  41.954  1.00  0.00     0.060 C 
BRANCH  28  29
HETATM   29  C10 UNL     1      58.504  -8.000  42.007  1.00  0.00     0.125 C 
BRANCH  29  30
HETATM   30  N6  UNL     1      59.460  -8.941  42.562  1.00  0.00    -0.359 N 
HETATM   31  C11 UNL     1      60.699  -8.507  43.069  1.00  0.00     0.248 C 
HETATM   32  O1  UNL     1      60.975  -7.282  43.036  1.00  0.00    -0.271 OA
ATOM     33  H6  UNL     1      59.229  -9.934  42.585  1.00  0.00     0.162 HD
BRANCH  31  34
HETATM   34  C12 UNL     1      61.714  -9.411  43.646  1.00  0.00     0.277 C 
HETATM   35  C13 UNL     1      61.404 -10.845  43.274  1.00  0.00     0.044 C 
HETATM   36  C14 UNL     1      60.569 -11.346  44.415  1.00  0.00     0.030 C 
HETATM   37  C15 UNL     1      60.924 -10.455  45.555  1.00  0.00     0.233 C 
HETATM   38  N7  UNL     1      61.730  -9.371  45.089  1.00  0.00    -0.062 N 
ATOM     39  H72 UNL     1      62.673  -9.381  45.477  1.00  0.00     0.278 HD
ATOM     40  H71 UNL     1      61.440  -8.469  45.466  1.00  0.00     0.278 HD
ENDBRANCH  31  34
ENDBRANCH  29  30
ENDBRANCH  28  29
ENDBRANCH   3  28
TORSDOF 8
ENDMDL
MODEL 3
REMARK VINA RESULT: -9.336949828      5.710      9.685
REMARK  8 active torsions:
REMARK  status: ('A' for Active; 'I' for Inactive)
REMARK    1  A    between atoms: N1_1  and  C1_4 
REMARK    2  A    between atoms: N4_12  and  C5_13 
REMARK    3  A    between atoms: C5_13  and  C6_14 
REMARK    4  A    between atoms: C8_16  and  N5_17 
REMARK    5  A    between atoms: C8_16  and  C9_21 
REMARK    6  A    between atoms: C9_21  and  C10_22 
REMARK    7  A    between atoms: C10_22  and  N6_23 
REMARK       I    between atoms: N6_23  and  C11_25 
REMARK    8  A    between atoms: C11_25  and  C12_27 
ROOT
HETATM    1  C6  UNL     1      57.899 -10.615  45.551  1.00  0.00     0.142 C 
HETATM    2  C7  UNL     1      58.534 -11.821  44.989  1.00  0.00     0.074 C 
HETATM    3  C8  UNL     1      59.093 -12.599  46.166  1.00  0.00     0.148 C 
HETATM    4  C16 UNL     1      58.914 -11.601  47.268  1.00  0.00     0.207 C 
HETATM    5  O2  UNL     1      57.754 -10.911  46.920  1.00  0.00    -0.382 OA
ENDROOT
BRANCH   1   6
HETATM    6  C5  UNL     1      58.655  -9.283  45.393  1.00  0.00     0.164 C 
BRANCH   6   7
HETATM    7  N4  UNL     1      58.824  -8.989  44.026  1.00  0.00    -0.314 N 
HETATM    8  C4  UNL     1      60.078  -9.096  43.349  1.00  0.00     0.105 A 
HETATM    9  C1  UNL     1      61.265  -9.423  43.942  1.00  0.00     0.129 A 
HETATM   10  C3  UNL     1      60.071  -8.806  41.971  1.00  0.00     0.059 A 
HETATM   11  N2  UNL     1      62.396  -9.457  43.174  1.00  0.00    -0.337 N 
HETATM   12  C2  UNL     1      62.376  -9.179  41.859  1.00  0.00     0.182 A 
ATOM     13  H2  UNL     1      63.284  -9.702  43.614  1.00  0.00     0.168 HD
HETATM   14  N3  UNL     1      61.220  -8.855  41.260  1.00  0.00    -0.352 N 
ATOM     15  H3  UNL     1      61.209  -8.645  40.262  1.00  0.00     0.166 HD
HETATM   16  C18 UNL     1      58.861  -8.418  41.213  1.00  0.00     0.181 A 
HETATM   17  N9  UNL     1      57.695  -8.342  42.022  1.00  0.00    -0.359 N 
HETATM   18  C17 UNL     1      57.648  -8.590  43.271  1.00  0.00     0.191 A 
ATOM     19  H9  UNL     1      56.825  -8.067  41.566  1.00  0.00     0.162 HD
HETATM   20  N8  UNL     1      56.437  -8.422  43.971  1.00  0.00    -0.063 NA
BRANCH   9  21
HETATM   21  N1  UNL     1      61.335  -9.658  45.183  1.00  0.00    -0.384 N 
ATOM     22  H12 UNL     1      62.230  -9.833  45.639  1.00  0.00     0.157 HD
ATOM     23  H11 UNL     1      60.483  -9.701  45.743  1.00  0.00     0.157 HD
ENDBRANCH   9  21
ENDBRANCH   6   7
ENDBRANCH   1   6
BRANCH   3  24
HETATM   24  N5  UNL     1      60.471 -12.958  46.027  1.00  0.00    -0.068 N 
ATOM     25  H53 UNL     1      60.595 -13.961  46.164  1.00  0.00     0.275 HD
ATOM     26  H52 UNL     1      60.765 -12.879  45.053  1.00  0.00     0.275 HD
ATOM     27  H51 UNL     1      61.102 -12.434  46.633  1.00  0.00     0.275 HD
ENDBRANCH   3  24
BRANCH   3  28
HETATM   28  C9  UNL     1      58.264 -13.823  46.454  1.00  0.00     0.060 C 
BRANCH  28  29
HETATM   29  C10 UNL     1      57.110 -13.895  45.520  1.00  0.00     0.125 C 
BRANCH  29  30
HETATM   30  N6  UNL     1      56.019 -14.704  46.031  1.00  0.00    -0.359 N 
HETATM   31  C11 UNL     1      55.092 -14.179  46.950  1.00  0.00     0.248 C 
HETATM   32  O1  UNL     1      55.218 -12.989  47.330  1.00  0.00    -0.271 OA
ATOM     33  H6  UNL     1      55.922 -15.670  45.718  1.00  0.00     0.162 HD
BRANCH  31  34
HETATM   34  C12 UNL     1      53.961 -14.947  47.508  1.00  0.00     0.277 C 
HETATM   35  C13 UNL     1      52.749 -14.815  46.610  1.00  0.00     0.044 C 
HETATM   36  C14 UNL     1      52.001 -13.645  47.177  1.00  0.00     0.030 C 
HETATM   37  C15 UNL     1      52.456 -13.563  48.594  1.00  0.00     0.233 C 
HETATM   38  N7  UNL     1      53.549 -14.459  48.802  1.00  0.00    -0.062 N 
ATOM     39  H72 UNL     1      53.329 -15.208  49.459  1.00  0.00     0.278 HD
ATOM     40  H71 UNL     1      54.313 -14.039  49.331  1.00  0.00     0.278 HD
ENDBRANCH  31  34
ENDBRANCH  29  30
ENDBRANCH  28  29
ENDBRANCH   3  28
TORSDOF 8
ENDMDL
MODEL 4
REMARK VINA RESULT: -9.262866006      1.656      1.875
REMARK  8 active torsions:
REMARK  status: ('A' for Active; 'I' for Inactive)
REMARK    1  A    between atoms: N1_1  and  C1_4 
REMARK    2  A    between atoms: N4_12  and  C5_13 
REMARK    3  A    between atoms: C5_13  and  C6_14 
REMARK    4  A    between atoms: C8_16  and  N5_17 
REMARK    5  A    between atoms: C8_16  and  C9_21 
REMARK    6  A    between atoms: C9_21  and  C10_22 
REMARK    7  A    between atoms: C10_22  and  N6_23 
REMARK       I    between atoms: N6_23  and  C11_25 
REMARK    8  A    between atoms: C11_25  and  C12_27 
ROOT
HETATM    1  C6  UNL     1      54.683  -9.696  39.705  1.00  0.00     0.142 C 
HETATM    2  C7  UNL     1      56.054  -9.165  39.819  1.00  0.00     0.074 C 
HETATM    3  C8  UNL     1      56.055  -8.236  41.018  1.00  0.00     0.148 C 
HETATM    4  C16 UNL     1      54.589  -8.162  41.314  1.00  0.00     0.207 C 
HETATM    5  O2  UNL     1      54.105  -9.419  40.958  1.00  0.00    -0.382 OA
ENDROOT
BRANCH   1   6
HETATM    6  C5  UNL     1      53.794  -9.115  38.591  1.00  0.00     0.164 C 
BRANCH   6   7
HETATM    7  N4  UNL     1      52.835 -10.069  38.199  1.00  0.00    -0.314 N 
HETATM    8  C4  UNL     1      51.447  -9.966  38.526  1.00  0.00     0.105 A 
HETATM    9  C1  UNL     1      50.894  -8.989  39.306  1.00  0.00     0.129 A 
HETATM   10  C3  UNL     1      50.610 -10.980  38.023  1.00  0.00     0.059 A 
HETATM   11  N2  UNL     1      49.552  -9.034  39.563  1.00  0.00    -0.337 N 
HETATM   12  C2  UNL     1      48.763 -10.007  39.075  1.00  0.00     0.182 A 
ATOM     13  H2  UNL     1      49.136  -8.305  40.143  1.00  0.00     0.168 HD
HETATM   14  N3  UNL     1      49.288 -10.975  38.310  1.00  0.00    -0.352 N 
ATOM     15  H3  UNL     1      48.686 -11.713  37.942  1.00  0.00     0.166 HD
HETATM   16  C18 UNL     1      51.083 -12.106  37.188  1.00  0.00     0.181 A 
HETATM   17  N9  UNL     1      52.485 -12.080  36.958  1.00  0.00    -0.359 N 
HETATM   18  C17 UNL     1      53.287 -11.190  37.392  1.00  0.00     0.191 A 
ATOM     19  H9  UNL     1      52.882 -12.835  36.399  1.00  0.00     0.162 HD
HETATM   20  N8  UNL     1      54.668 -11.310  37.140  1.00  0.00    -0.063 NA
BRANCH   9  21
HETATM   21  N1  UNL     1      51.606  -8.074  39.813  1.00  0.00    -0.384 N 
ATOM     22  H12 UNL     1      52.003  -8.170  40.747  1.00  0.00     0.157 HD
ATOM     23  H11 UNL     1      51.770  -7.210  39.296  1.00  0.00     0.157 HD
ENDBRANCH   9  21
ENDBRANCH   6   7
ENDBRANCH   1   6
BRANCH   3  24
HETATM   24  N5  UNL     1      56.585  -6.934  40.749  1.00  0.00    -0.068 N 
ATOM     25  H53 UNL     1      56.751  -6.429  41.619  1.00  0.00     0.275 HD
ATOM     26  H52 UNL     1      57.542  -7.002  40.403  1.00  0.00     0.275 HD
ATOM     27  H51 UNL     1      56.014  -6.375  40.115  1.00  0.00     0.275 HD
ENDBRANCH   3  24
BRANCH   3  28
HETATM   28  C9  UNL     1      56.773  -8.857  42.188  1.00  0.00     0.060 C 
BRANCH  28  29
HETATM   29  C10 UNL     1      58.038  -8.124  42.464  1.00  0.00     0.125 C 
BRANCH  29  30
HETATM   30  N6  UNL     1      58.927  -8.847  43.355  1.00  0.00    -0.359 N 
HETATM   31  C11 UNL     1      58.850  -8.682  44.750  1.00  0.00     0.248 C 
HETATM   32  O1  UNL     1      57.995  -7.894  45.224  1.00  0.00    -0.271 OA
ATOM     33  H6  UNL     1      59.619  -9.485  42.963  1.00  0.00     0.162 HD
BRANCH  31  34
HETATM   34  C12 UNL     1      59.723  -9.386  45.711  1.00  0.00     0.277 C 
HETATM   35  C13 UNL     1      60.922  -9.967  44.994  1.00  0.00     0.044 C 
HETATM   36  C14 UNL     1      60.494 -11.360  44.637  1.00  0.00     0.030 C 
HETATM   37  C15 UNL     1      59.411 -11.677  45.611  1.00  0.00     0.233 C 
HETATM   38  N7  UNL     1      59.061 -10.502  46.342  1.00  0.00    -0.062 N 
ATOM     39  H72 UNL     1      59.267 -10.577  47.338  1.00  0.00     0.278 HD
ATOM     40  H71 UNL     1      58.053 -10.371  46.426  1.00  0.00     0.278 HD
ENDBRANCH  31  34
ENDBRANCH  29  30
ENDBRANCH  28  29
ENDBRANCH   3  28
TORSDOF 8
ENDMDL
MODEL 5
REMARK VINA RESULT: -9.162864063      1.968      9.346
REMARK  8 active torsions:
REMARK  status: ('A' for Active; 'I' for Inactive)
REMARK    1  A    between atoms: N1_1  and  C1_4 
REMARK    2  A    between atoms: N4_12  and  C5_13 
REMARK    3  A    between atoms: C5_13  and  C6_14 
REMARK    4  A    between atoms: C8_16  and  N5_17 
REMARK    5  A    between atoms: C8_16  and  C9_21 
REMARK    6  A    between atoms: C9_21  and  C10_22 
REMARK    7  A    between atoms: C10_22  and  N6_23 
REMARK       I    between atoms: N6_23  and  C11_25 
REMARK    8  A    between atoms: C11_25  and  C12_27 
ROOT
HETATM    1  C6  UNL     1      57.050  -8.703  42.675  1.00  0.00     0.142 C 
HETATM    2  C7  UNL     1      55.728  -8.089  42.892  1.00  0.00     0.074 C 
HETATM    3  C8  UNL     1      55.099  -7.930  41.520  1.00  0.00     0.148 C 
HETATM    4  C16 UNL     1      56.264  -8.263  40.640  1.00  0.00     0.207 C 
HETATM    5  O2  UNL     1      56.978  -9.215  41.366  1.00  0.00    -0.382 OA
ENDROOT
BRANCH   1   6
HETATM    6  C5  UNL     1      58.281  -7.786  42.799  1.00  0.00     0.164 C 
BRANCH   6   7
HETATM    7  N4  UNL     1      59.282  -8.429  43.552  1.00  0.00    -0.314 N 
HETATM    8  C4  UNL     1      60.389  -9.115  42.963  1.00  0.00     0.105 A 
HETATM    9  C1  UNL     1      60.577  -9.294  41.621  1.00  0.00     0.129 A 
HETATM   10  C3  UNL     1      61.327  -9.669  43.855  1.00  0.00     0.059 A 
HETATM   11  N2  UNL     1      61.669 -10.002  41.199  1.00  0.00    -0.337 N 
HETATM   12  C2  UNL     1      62.558 -10.525  42.061  1.00  0.00     0.182 A 
ATOM     13  H2  UNL     1      61.813 -10.136  40.198  1.00  0.00     0.168 HD
HETATM   14  N3  UNL     1      62.389 -10.361  43.381  1.00  0.00    -0.352 N 
ATOM     15  H3  UNL     1      63.065 -10.760  44.032  1.00  0.00     0.166 HD
HETATM   16  C18 UNL     1      61.229  -9.568  45.328  1.00  0.00     0.181 A 
HETATM   17  N9  UNL     1      60.071  -8.869  45.764  1.00  0.00    -0.359 N 
HETATM   18  C17 UNL     1      59.191  -8.353  45.001  1.00  0.00     0.191 A 
ATOM     19  H9  UNL     1      59.934  -8.773  46.770  1.00  0.00     0.162 HD
HETATM   20  N8  UNL     1      58.057  -7.734  45.562  1.00  0.00    -0.063 NA
BRANCH   9  21
HETATM   21  N1  UNL     1      59.747  -8.849  40.778  1.00  0.00    -0.384 N 
ATOM     22  H12 UNL     1      60.056  -8.451  39.891  1.00  0.00     0.157 HD
ATOM     23  H11 UNL     1      58.749  -8.857  40.990  1.00  0.00     0.157 HD
ENDBRANCH   9  21
ENDBRANCH   6   7
ENDBRANCH   1   6
BRANCH   3  24
HETATM   24  N5  UNL     1      54.619  -6.610  41.247  1.00  0.00    -0.068 N 
ATOM     25  H53 UNL     1      55.375  -5.930  41.328  1.00  0.00     0.275 HD
ATOM     26  H52 UNL     1      54.399  -6.507  40.256  1.00  0.00     0.275 HD
ATOM     27  H51 UNL     1      53.824  -6.328  41.820  1.00  0.00     0.275 HD
ENDBRANCH   3  24
BRANCH   3  28
HETATM   28  C9  UNL     1      54.000  -8.937  41.304  1.00  0.00     0.060 C 
BRANCH  28  29
HETATM   29  C10 UNL     1      53.188  -8.565  40.115  1.00  0.00     0.125 C 
BRANCH  29  30
HETATM   30  N6  UNL     1      53.351  -9.489  39.008  1.00  0.00    -0.359 N 
HETATM   31  C11 UNL     1      52.239  -9.967  38.290  1.00  0.00     0.248 C 
HETATM   32  O1  UNL     1      51.090  -9.583  38.619  1.00  0.00    -0.271 OA
ATOM     33  H6  UNL     1      54.287  -9.798  38.746  1.00  0.00     0.162 HD
BRANCH  31  34
HETATM   34  C12 UNL     1      52.335 -10.908  37.155  1.00  0.00     0.277 C 
HETATM   35  C13 UNL     1      51.108 -11.793  37.108  1.00  0.00     0.044 C 
HETATM   36  C14 UNL     1      51.499 -13.000  37.909  1.00  0.00     0.030 C 
HETATM   37  C15 UNL     1      52.988 -13.014  37.859  1.00  0.00     0.233 C 
HETATM   38  N7  UNL     1      53.463 -11.800  37.274  1.00  0.00    -0.062 N 
ATOM     39  H72 UNL     1      53.949 -11.949  36.389  1.00  0.00     0.278 HD
ATOM     40  H71 UNL     1      54.244 -11.390  37.786  1.00  0.00     0.278 HD
ENDBRANCH  31  34
ENDBRANCH  29  30
ENDBRANCH  28  29
ENDBRANCH   3  28
TORSDOF 8
ENDMDL
