MODEL 1
REMARK VINA RESULT: -8.191332410      0.000      0.000
REMARK  7 active torsions:
REMARK  status: ('A' for Active; 'I' for Inactive)
REMARK    1  A    between atoms: S1_2  and  N1_4 
REMARK    2  A    between atoms: S1_2  and  C9_17 
REMARK    3  A    between atoms: N1_4  and  C1_6 
REMARK    4  A    between atoms: C1_6  and  C2_7 
REMARK    5  A    between atoms: C2_7  and  O3_8 
REMARK    6  A    between atoms: O3_8  and  C3_9 
REMARK    7  A    between atoms: C3_9  and  C4_10 
ROOT
HETATM    1  O1  UNL     1      11.758 -41.749  10.743  1.00  0.00    -0.201 OA
HETATM    2  S1  UNL     1      11.141 -41.915   9.404  1.00  0.00     0.258 S 
HETATM    3  O2  UNL     1      10.443 -43.245   9.328  1.00  0.00    -0.201 OA
ENDROOT
BRANCH   2   4
HETATM    4  N1  UNL     1       9.947 -40.695   9.115  1.00  0.00    -0.313 N 
ATOM      5  H1  UNL     1       9.262 -40.728   8.360  1.00  0.00     0.172 HD
BRANCH   4   6
HETATM    6  C1  UNL     1      10.047 -39.619  10.084  1.00  0.00     0.158 C 
BRANCH   6   7
HETATM    7  C2  UNL     1       8.993 -39.875  11.128  1.00  0.00     0.188 C 
BRANCH   7   8
HETATM    8  O3  UNL     1       9.522 -39.856  12.387  1.00  0.00    -0.384 OA
BRANCH   8   9
HETATM    9  C3  UNL     1       8.561 -39.916  13.377  1.00  0.00     0.224 C 
BRANCH   9  10
HETATM   10  C4  UNL     1       8.401 -38.589  14.054  1.00  0.00     0.033 A 
HETATM   11  C5  UNL     1       7.930 -37.456  13.438  1.00  0.00     0.027 A 
HETATM   12  C6  UNL     1       7.797 -36.253  14.107  1.00  0.00     0.003 A 
HETATM   13  C7  UNL     1       8.151 -36.203  15.437  1.00  0.00     0.017 A 
HETATM   14  C8  UNL     1       8.629 -37.360  16.056  1.00  0.00     0.088 A 
HETATM   15  N2  UNL     1       8.735 -38.496  15.353  1.00  0.00    -0.367 N 
ATOM     16  H2  UNL     1       9.086 -39.329  15.826  1.00  0.00     0.165 HD
ENDBRANCH   9  10
ENDBRANCH   8   9
ENDBRANCH   7   8
ENDBRANCH   6   7
ENDBRANCH   4   6
ENDBRANCH   2   4
BRANCH   2  17
HETATM   17  C9  UNL     1      12.346 -41.814   8.110  1.00  0.00     0.081 A 
HETATM   18  C10 UNL     1      13.103 -42.929   7.806  1.00  0.00     0.026 A 
HETATM   19  C11 UNL     1      14.041 -42.824   6.787  1.00  0.00     0.015 A 
HETATM   20  C12 UNL     1      14.230 -41.647   6.083  1.00  0.00    -0.009 A 
HETATM   21  C13 UNL     1      15.162 -41.535   5.067  1.00  0.00     0.015 A 
HETATM   22  C16 UNL     1      13.472 -40.533   6.388  1.00  0.00     0.043 A 
HETATM   23  C14 UNL     1      15.343 -40.345   4.364  1.00  0.00     0.018 A 
HETATM   24  C15 UNL     1      14.558 -39.263   4.712  1.00  0.00     0.088 A 
HETATM   25  N3  UNL     1      13.654 -39.388   5.704  1.00  0.00    -0.365 N 
ATOM     26  H3  UNL     1      13.083 -38.579   5.948  1.00  0.00     0.165 HD
HETATM   27  C17 UNL     1      12.534 -40.641   7.407  1.00  0.00     0.055 A 
ENDBRANCH   2  17
TORSDOF 7
ENDMDL
MODEL 2
REMARK VINA RESULT: -8.049569789      1.524      1.856
REMARK  7 active torsions:
REMARK  status: ('A' for Active; 'I' for Inactive)
REMARK    1  A    between atoms: S1_2  and  N1_4 
REMARK    2  A    between atoms: S1_2  and  C9_17 
REMARK    3  A    between atoms: N1_4  and  C1_6 
REMARK    4  A    between atoms: C1_6  and  C2_7 
REMARK    5  A    between atoms: C2_7  and  O3_8 
REMARK    6  A    between atoms: O3_8  and  C3_9 
REMARK    7  A    between atoms: C3_9  and  C4_10 
ROOT
HETATM    1  O1  UNL     1      11.871 -41.763  10.630  1.00  0.00    -0.201 OA
HETATM    2  S1  UNL     1      11.121 -42.003   9.373  1.00  0.00     0.258 S 
HETATM    3  O2  UNL     1      10.217 -43.193   9.540  1.00  0.00    -0.201 OA
ENDROOT
BRANCH   2   4
HETATM    4  N1  UNL     1      10.114 -40.649   8.981  1.00  0.00    -0.313 N 
ATOM      5  H1  UNL     1       9.544 -40.580   8.139  1.00  0.00     0.172 HD
BRANCH   4   6
HETATM    6  C1  UNL     1      10.187 -39.625  10.007  1.00  0.00     0.158 C 
BRANCH   6   7
HETATM    7  C2  UNL     1       9.075 -39.906  10.982  1.00  0.00     0.188 C 
BRANCH   7   8
HETATM    8  O3  UNL     1       9.521 -39.868  12.273  1.00  0.00    -0.384 OA
BRANCH   8   9
HETATM    9  C3  UNL     1       8.499 -39.924  13.199  1.00  0.00     0.224 C 
BRANCH   9  10
HETATM   10  C4  UNL     1       8.373 -38.630  13.943  1.00  0.00     0.033 A 
HETATM   11  C5  UNL     1       7.893 -37.465  13.397  1.00  0.00     0.027 A 
HETATM   12  C6  UNL     1       7.792 -36.294  14.126  1.00  0.00     0.003 A 
HETATM   13  C7  UNL     1       8.190 -36.310  15.444  1.00  0.00     0.017 A 
HETATM   14  C8  UNL     1       8.676 -37.498  15.992  1.00  0.00     0.088 A 
HETATM   15  N2  UNL     1       8.749 -38.601  15.234  1.00  0.00    -0.367 N 
ATOM     16  H2  UNL     1       9.107 -39.458  15.655  1.00  0.00     0.165 HD
ENDBRANCH   9  10
ENDBRANCH   8   9
ENDBRANCH   7   8
ENDBRANCH   6   7
ENDBRANCH   4   6
ENDBRANCH   2   4
BRANCH   2  17
HETATM   17  C9  UNL     1      12.208 -42.286   8.004  1.00  0.00     0.081 A 
HETATM   18  C10 UNL     1      13.515 -41.844   8.079  1.00  0.00     0.026 A 
HETATM   19  C11 UNL     1      14.347 -42.079   6.992  1.00  0.00     0.015 A 
HETATM   20  C12 UNL     1      13.903 -42.733   5.856  1.00  0.00    -0.009 A 
HETATM   21  C13 UNL     1      14.726 -42.969   4.769  1.00  0.00     0.015 A 
HETATM   22  C16 UNL     1      12.596 -43.174   5.782  1.00  0.00     0.043 A 
HETATM   23  C14 UNL     1      14.268 -43.630   3.631  1.00  0.00     0.018 A 
HETATM   24  C15 UNL     1      12.952 -44.048   3.612  1.00  0.00     0.088 A 
HETATM   25  N3  UNL     1      12.162 -43.810   4.678  1.00  0.00    -0.365 N 
ATOM     26  H3  UNL     1      11.193 -44.126   4.647  1.00  0.00     0.165 HD
HETATM   27  C17 UNL     1      11.766 -42.938   6.871  1.00  0.00     0.055 A 
ENDBRANCH   2  17
TORSDOF 7
ENDMDL
MODEL 3
REMARK VINA RESULT: -8.031109251      2.006      2.969
REMARK  7 active torsions:
REMARK  status: ('A' for Active; 'I' for Inactive)
REMARK    1  A    between atoms: S1_2  and  N1_4 
REMARK    2  A    between atoms: S1_2  and  C9_17 
REMARK    3  A    between atoms: N1_4  and  C1_6 
REMARK    4  A    between atoms: C1_6  and  C2_7 
REMARK    5  A    between atoms: C2_7  and  O3_8 
REMARK    6  A    between atoms: O3_8  and  C3_9 
REMARK    7  A    between atoms: C3_9  and  C4_10 
ROOT
HETATM    1  O1  UNL     1      12.871 -39.809   9.271  1.00  0.00    -0.201 OA
HETATM    2  S1  UNL     1      12.097 -41.074   9.232  1.00  0.00     0.258 S 
HETATM    3  O2  UNL     1      12.117 -41.723  10.588  1.00  0.00    -0.201 OA
ENDROOT
BRANCH   2   4
HETATM    4  N1  UNL     1      10.438 -40.775   8.834  1.00  0.00    -0.313 N 
ATOM      5  H1  UNL     1       9.891 -41.340   8.185  1.00  0.00     0.172 HD
BRANCH   4   6
HETATM    6  C1  UNL     1       9.926 -39.617   9.544  1.00  0.00     0.158 C 
BRANCH   6   7
HETATM    7  C2  UNL     1       9.066 -40.138  10.663  1.00  0.00     0.188 C 
BRANCH   7   8
HETATM    8  O3  UNL     1       9.668 -39.967  11.878  1.00  0.00    -0.384 OA
BRANCH   8   9
HETATM    9  C3  UNL     1       8.825 -40.226  12.940  1.00  0.00     0.224 C 
BRANCH   9  10
HETATM   10  C4  UNL     1       8.597 -38.995  13.761  1.00  0.00     0.033 A 
HETATM   11  C5  UNL     1       8.979 -38.855  15.073  1.00  0.00     0.027 A 
HETATM   12  C6  UNL     1       8.749 -37.695  15.790  1.00  0.00     0.003 A 
HETATM   13  C7  UNL     1       8.115 -36.651  15.155  1.00  0.00     0.017 A 
HETATM   14  C8  UNL     1       7.731 -36.800  13.821  1.00  0.00     0.088 A 
HETATM   15  N2  UNL     1       7.982 -37.950  13.180  1.00  0.00    -0.367 N 
ATOM     16  H2  UNL     1       7.693 -38.037  12.206  1.00  0.00     0.165 HD
ENDBRANCH   9  10
ENDBRANCH   8   9
ENDBRANCH   7   8
ENDBRANCH   6   7
ENDBRANCH   4   6
ENDBRANCH   2   4
BRANCH   2  17
HETATM   17  C9  UNL     1      12.748 -42.205   8.035  1.00  0.00     0.081 A 
HETATM   18  C10 UNL     1      13.991 -41.962   7.485  1.00  0.00     0.026 A 
HETATM   19  C11 UNL     1      14.479 -42.864   6.548  1.00  0.00     0.015 A 
HETATM   20  C12 UNL     1      13.759 -43.981   6.161  1.00  0.00    -0.009 A 
HETATM   21  C13 UNL     1      14.237 -44.884   5.229  1.00  0.00     0.015 A 
HETATM   22  C16 UNL     1      12.515 -44.223   6.712  1.00  0.00     0.043 A 
HETATM   23  C14 UNL     1      13.503 -46.005   4.848  1.00  0.00     0.018 A 
HETATM   24  C15 UNL     1      12.266 -46.197   5.431  1.00  0.00     0.088 A 
HETATM   25  N3  UNL     1      11.813 -45.309   6.338  1.00  0.00    -0.365 N 
ATOM     26  H3  UNL     1      10.897 -45.466   6.758  1.00  0.00     0.165 HD
HETATM   27  C17 UNL     1      12.030 -43.319   7.649  1.00  0.00     0.055 A 
ENDBRANCH   2  17
TORSDOF 7
ENDMDL
MODEL 4
REMARK VINA RESULT: -7.920710157      3.908      5.617
REMARK  7 active torsions:
REMARK  status: ('A' for Active; 'I' for Inactive)
REMARK    1  A    between atoms: S1_2  and  N1_4 
REMARK    2  A    between atoms: S1_2  and  C9_17 
REMARK    3  A    between atoms: N1_4  and  C1_6 
REMARK    4  A    between atoms: C1_6  and  C2_7 
REMARK    5  A    between atoms: C2_7  and  O3_8 
REMARK    6  A    between atoms: O3_8  and  C3_9 
REMARK    7  A    between atoms: C3_9  and  C4_10 
ROOT
HETATM    1  O1  UNL     1      14.787 -46.245   6.810  1.00  0.00    -0.201 OA
HETATM    2  S1  UNL     1      13.692 -45.779   5.926  1.00  0.00     0.258 S 
HETATM    3  O2  UNL     1      13.065 -46.955   5.230  1.00  0.00    -0.201 OA
ENDROOT
BRANCH   2   4
HETATM    4  N1  UNL     1      12.444 -45.001   6.840  1.00  0.00    -0.313 N 
ATOM      5  H1  UNL     1      11.472 -44.927   6.540  1.00  0.00     0.172 HD
BRANCH   4   6
HETATM    6  C1  UNL     1      12.958 -44.470   8.089  1.00  0.00     0.158 C 
BRANCH   6   7
HETATM    7  C2  UNL     1      11.787 -43.872   8.822  1.00  0.00     0.188 C 
BRANCH   7   8
HETATM    8  O3  UNL     1      12.152 -42.758   9.524  1.00  0.00    -0.384 OA
BRANCH   8   9
HETATM    9  C3  UNL     1      12.498 -41.697   8.711  1.00  0.00     0.224 C 
BRANCH   9  10
HETATM   10  C4  UNL     1      11.291 -40.901   8.321  1.00  0.00     0.033 A 
HETATM   11  C5  UNL     1      10.921 -40.635   7.026  1.00  0.00     0.027 A 
HETATM   12  C6  UNL     1       9.795 -39.896   6.715  1.00  0.00     0.003 A 
HETATM   13  C7  UNL     1       9.024 -39.416   7.751  1.00  0.00     0.017 A 
HETATM   14  C8  UNL     1       9.406 -39.690   9.065  1.00  0.00     0.088 A 
HETATM   15  N2  UNL     1      10.510 -40.413   9.301  1.00  0.00    -0.367 N 
ATOM     16  H2  UNL     1      10.770 -40.601  10.269  1.00  0.00     0.165 HD
ENDBRANCH   9  10
ENDBRANCH   8   9
ENDBRANCH   7   8
ENDBRANCH   6   7
ENDBRANCH   4   6
ENDBRANCH   2   4
BRANCH   2  17
HETATM   17  C9  UNL     1      14.275 -44.627   4.713  1.00  0.00     0.081 A 
HETATM   18  C10 UNL     1      14.530 -45.071   3.430  1.00  0.00     0.026 A 
HETATM   19  C11 UNL     1      14.986 -44.148   2.498  1.00  0.00     0.015 A 
HETATM   20  C12 UNL     1      15.186 -42.817   2.821  1.00  0.00    -0.009 A 
HETATM   21  C13 UNL     1      15.640 -41.892   1.898  1.00  0.00     0.015 A 
HETATM   22  C16 UNL     1      14.930 -42.373   4.104  1.00  0.00     0.043 A 
HETATM   23  C14 UNL     1      15.837 -40.554   2.235  1.00  0.00     0.018 A 
HETATM   24  C15 UNL     1      15.565 -40.167   3.533  1.00  0.00     0.088 A 
HETATM   25  N3  UNL     1      15.124 -41.080   4.421  1.00  0.00    -0.365 N 
ATOM     26  H3  UNL     1      14.929 -40.777   5.375  1.00  0.00     0.165 HD
HETATM   27  C17 UNL     1      14.474 -43.299   5.035  1.00  0.00     0.055 A 
ENDBRANCH   2  17
TORSDOF 7
ENDMDL
MODEL 5
REMARK VINA RESULT: -7.768073188      2.376      2.886
REMARK  7 active torsions:
REMARK  status: ('A' for Active; 'I' for Inactive)
REMARK    1  A    between atoms: S1_2  and  N1_4 
REMARK    2  A    between atoms: S1_2  and  C9_17 
REMARK    3  A    between atoms: N1_4  and  C1_6 
REMARK    4  A    between atoms: C1_6  and  C2_7 
REMARK    5  A    between atoms: C2_7  and  O3_8 
REMARK    6  A    between atoms: O3_8  and  C3_9 
REMARK    7  A    between atoms: C3_9  and  C4_10 
ROOT
HETATM    1  O1  UNL     1       9.210 -39.562   7.870  1.00  0.00    -0.201 OA
HETATM    2  S1  UNL     1      10.098 -40.002   8.974  1.00  0.00     0.258 S 
HETATM    3  O2  UNL     1      10.760 -38.806   9.601  1.00  0.00    -0.201 OA
ENDROOT
BRANCH   2   4
HETATM    4  N1  UNL     1       9.194 -40.797  10.219  1.00  0.00    -0.313 N 
ATOM      5  H1  UNL     1       8.932 -41.782  10.201  1.00  0.00     0.172 HD
BRANCH   4   6
HETATM    6  C1  UNL     1       8.858 -39.880  11.293  1.00  0.00     0.158 C 
BRANCH   6   7
HETATM    7  C2  UNL     1       9.198 -40.577  12.583  1.00  0.00     0.188 C 
BRANCH   7   8
HETATM    8  O3  UNL     1       9.616 -39.691  13.535  1.00  0.00    -0.384 OA
BRANCH   8   9
HETATM    9  C3  UNL     1       8.699 -39.518  14.552  1.00  0.00     0.224 C 
BRANCH   9  10
HETATM   10  C4  UNL     1       8.412 -38.066  14.779  1.00  0.00     0.033 A 
HETATM   11  C5  UNL     1       8.054 -37.182  13.792  1.00  0.00     0.027 A 
HETATM   12  C6  UNL     1       7.795 -35.848  14.051  1.00  0.00     0.003 A 
HETATM   13  C7  UNL     1       7.904 -35.404  15.350  1.00  0.00     0.017 A 
HETATM   14  C8  UNL     1       8.268 -36.309  16.349  1.00  0.00     0.088 A 
HETATM   15  N2  UNL     1       8.506 -37.590  16.034  1.00  0.00    -0.367 N 
ATOM     16  H2  UNL     1       8.770 -38.233  16.779  1.00  0.00     0.165 HD
ENDBRANCH   9  10
ENDBRANCH   8   9
ENDBRANCH   7   8
ENDBRANCH   6   7
ENDBRANCH   4   6
ENDBRANCH   2   4
BRANCH   2  17
HETATM   17  C9  UNL     1      11.344 -41.126   8.405  1.00  0.00     0.081 A 
HETATM   18  C10 UNL     1      12.674 -40.803   8.584  1.00  0.00     0.026 A 
HETATM   19  C11 UNL     1      13.632 -41.701   8.130  1.00  0.00     0.015 A 
HETATM   20  C12 UNL     1      13.287 -42.891   7.512  1.00  0.00    -0.009 A 
HETATM   21  C13 UNL     1      14.233 -43.790   7.057  1.00  0.00     0.015 A 
HETATM   22  C16 UNL     1      11.955 -43.213   7.334  1.00  0.00     0.043 A 
HETATM   23  C14 UNL     1      13.873 -44.985   6.437  1.00  0.00     0.018 A 
HETATM   24  C15 UNL     1      12.527 -45.255   6.286  1.00  0.00     0.088 A 
HETATM   25  N3  UNL     1      11.617 -44.369   6.734  1.00  0.00    -0.365 N 
ATOM     26  H3  UNL     1      10.627 -44.585   6.614  1.00  0.00     0.165 HD
HETATM   27  C17 UNL     1      10.999 -42.313   7.790  1.00  0.00     0.055 A 
ENDBRANCH   2  17
TORSDOF 7
ENDMDL
