MODEL 1
REMARK VINA RESULT: -7.557629466      0.000      0.000
REMARK  7 active torsions:
REMARK  status: ('A' for Active; 'I' for Inactive)
REMARK    1  A    between atoms: N1_2  and  C2_3 
REMARK    2  A    between atoms: N1_2  and  C9_10 
REMARK    3  A    between atoms: C2_3  and  C3_4 
REMARK    4  A    between atoms: C9_10  and  C10_11 
REMARK    5  A    between atoms: N4_18  and  C12_19 
REMARK    6  A    between atoms: C12_19  and  C13_20 
REMARK    7  A    between atoms: C13_20  and  C14_21 
ROOT
HETATM    1  C14 UNL     1      11.726 -40.275   6.790  1.00  0.00    -0.057 A 
HETATM    2  C15 UNL     1      10.376 -40.312   7.032  1.00  0.00     0.009 A 
HETATM    3  C16 UNL     1       9.892 -40.404   8.314  1.00  0.00     0.023 A 
HETATM    4  C17 UNL     1      10.754 -40.460   9.393  1.00  0.00     0.044 A 
HETATM    5  C18 UNL     1      10.253 -40.555  10.725  1.00  0.00     0.099 C 
HETATM    6  N5  UNL     1       9.838 -40.634  11.791  1.00  0.00    -0.191 NA
HETATM    7  C19 UNL     1      12.121 -40.424   9.167  1.00  0.00     0.023 A 
HETATM    8  C20 UNL     1      12.585 -40.331   7.854  1.00  0.00     0.009 A 
ENDROOT
BRANCH   1   9
HETATM    9  C13 UNL     1      12.301 -40.177   5.425  1.00  0.00     0.059 C 
BRANCH   9  10
HETATM   10  C12 UNL     1      13.646 -39.441   5.459  1.00  0.00     0.140 C 
BRANCH  10  11
HETATM   11  N4  UNL     1      13.977 -39.113   4.105  1.00  0.00    -0.285 N 
HETATM   12  C10 UNL     1      14.769 -39.848   3.276  1.00  0.00     0.131 A 
HETATM   13  N2  UNL     1      14.792 -39.156   2.125  1.00  0.00    -0.283 N 
HETATM   14  N3  UNL     1      14.070 -38.065   2.213  1.00  0.00    -0.250 N 
ATOM     15  H2  UNL     1      15.303 -39.442   1.291  1.00  0.00     0.188 HD
HETATM   16  C11 UNL     1      13.560 -38.033   3.446  1.00  0.00     0.342 A 
ATOM     17  H3  UNL     1      13.925 -37.372   1.478  1.00  0.00     0.192 HD
HETATM   18  O1  UNL     1      12.810 -37.097   3.849  1.00  0.00    -0.245 OA
BRANCH  12  19
HETATM   19  C9  UNL     1      15.456 -41.135   3.586  1.00  0.00     0.350 C 
BRANCH  19  20
HETATM   20  N1  UNL     1      14.480 -42.184   3.506  1.00  0.00     0.095 N 
HETATM   21  C1  UNL     1      14.145 -42.537   2.146  1.00  0.00     0.310 C 
BRANCH  20  22
HETATM   22  C2  UNL     1      14.789 -43.322   4.334  1.00  0.00     0.311 C 
BRANCH  22  23
HETATM   23  C3  UNL     1      13.825 -43.543   5.425  1.00  0.00    -0.030 A 
HETATM   24  C4  UNL     1      14.294 -43.526   6.715  1.00  0.00     0.009 A 
HETATM   25  C5  UNL     1      13.456 -43.723   7.790  1.00  0.00     0.001 A 
HETATM   26  C6  UNL     1      12.116 -43.943   7.564  1.00  0.00     0.000 A 
HETATM   27  C7  UNL     1      11.653 -43.958   6.267  1.00  0.00     0.001 A 
HETATM   28  C8  UNL     1      12.494 -43.760   5.203  1.00  0.00     0.009 A 
ENDBRANCH  22  23
ENDBRANCH  20  22
ENDBRANCH  19  20
ENDBRANCH  12  19
ENDBRANCH  10  11
ENDBRANCH   9  10
ENDBRANCH   1   9
TORSDOF 7
ENDMDL
MODEL 2
REMARK VINA RESULT: -7.394416722      2.065      3.175
REMARK  7 active torsions:
REMARK  status: ('A' for Active; 'I' for Inactive)
REMARK    1  A    between atoms: N1_2  and  C2_3 
REMARK    2  A    between atoms: N1_2  and  C9_10 
REMARK    3  A    between atoms: C2_3  and  C3_4 
REMARK    4  A    between atoms: C9_10  and  C10_11 
REMARK    5  A    between atoms: N4_18  and  C12_19 
REMARK    6  A    between atoms: C12_19  and  C13_20 
REMARK    7  A    between atoms: C13_20  and  C14_21 
ROOT
HETATM    1  C14 UNL     1      12.818 -40.075   5.701  1.00  0.00    -0.057 A 
HETATM    2  C15 UNL     1      13.820 -40.624   6.458  1.00  0.00     0.009 A 
HETATM    3  C16 UNL     1      13.555 -41.629   7.357  1.00  0.00     0.023 A 
HETATM    4  C17 UNL     1      12.270 -42.111   7.519  1.00  0.00     0.044 A 
HETATM    5  C18 UNL     1      11.993 -43.154   8.452  1.00  0.00     0.099 C 
HETATM    6  N5  UNL     1      11.782 -43.992   9.207  1.00  0.00    -0.191 NA
HETATM    7  C19 UNL     1      11.245 -41.567   6.762  1.00  0.00     0.023 A 
HETATM    8  C20 UNL     1      11.543 -40.547   5.857  1.00  0.00     0.009 A 
ENDROOT
BRANCH   1   9
HETATM    9  C13 UNL     1      13.050 -38.989   4.716  1.00  0.00     0.059 C 
BRANCH   9  10
HETATM   10  C12 UNL     1      14.519 -38.548   4.735  1.00  0.00     0.140 C 
BRANCH  10  11
HETATM   11  N4  UNL     1      14.667 -37.543   3.726  1.00  0.00    -0.285 N 
HETATM   12  C10 UNL     1      15.106 -37.749   2.454  1.00  0.00     0.131 A 
HETATM   13  N2  UNL     1      15.079 -36.533   1.883  1.00  0.00    -0.283 N 
HETATM   14  N3  UNL     1      14.655 -35.623   2.726  1.00  0.00    -0.250 N 
ATOM     15  H2  UNL     1      15.353 -36.342   0.920  1.00  0.00     0.188 HD
HETATM   16  C11 UNL     1      14.397 -36.247   3.878  1.00  0.00     0.342 A 
ATOM     17  H3  UNL     1      14.544 -34.627   2.539  1.00  0.00     0.192 HD
HETATM   18  O1  UNL     1      13.968 -35.640   4.901  1.00  0.00    -0.245 OA
BRANCH  12  19
HETATM   19  C9  UNL     1      15.523 -39.042   1.838  1.00  0.00     0.350 C 
BRANCH  19  20
HETATM   20  N1  UNL     1      14.334 -39.765   1.487  1.00  0.00     0.095 N 
HETATM   21  C1  UNL     1      13.551 -39.100   0.472  1.00  0.00     0.310 C 
BRANCH  20  22
HETATM   22  C2  UNL     1      14.570 -41.159   1.209  1.00  0.00     0.311 C 
BRANCH  22  23
HETATM   23  C3  UNL     1      14.253 -42.052   2.336  1.00  0.00    -0.030 A 
HETATM   24  C4  UNL     1      12.957 -42.483   2.475  1.00  0.00     0.009 A 
HETATM   25  C5  UNL     1      12.581 -43.320   3.501  1.00  0.00     0.001 A 
HETATM   26  C6  UNL     1      13.529 -43.735   4.409  1.00  0.00     0.000 A 
HETATM   27  C7  UNL     1      14.827 -43.299   4.263  1.00  0.00     0.001 A 
HETATM   28  C8  UNL     1      15.193 -42.466   3.238  1.00  0.00     0.009 A 
ENDBRANCH  22  23
ENDBRANCH  20  22
ENDBRANCH  19  20
ENDBRANCH  12  19
ENDBRANCH  10  11
ENDBRANCH   9  10
ENDBRANCH   1   9
TORSDOF 7
ENDMDL
MODEL 3
REMARK VINA RESULT: -7.166402004      3.824      5.740
REMARK  7 active torsions:
REMARK  status: ('A' for Active; 'I' for Inactive)
REMARK    1  A    between atoms: N1_2  and  C2_3 
REMARK    2  A    between atoms: N1_2  and  C9_10 
REMARK    3  A    between atoms: C2_3  and  C3_4 
REMARK    4  A    between atoms: C9_10  and  C10_11 
REMARK    5  A    between atoms: N4_18  and  C12_19 
REMARK    6  A    between atoms: C12_19  and  C13_20 
REMARK    7  A    between atoms: C13_20  and  C14_21 
ROOT
HETATM    1  C14 UNL     1      12.182 -44.707   6.304  1.00  0.00    -0.057 A 
HETATM    2  C15 UNL     1      11.170 -43.783   6.344  1.00  0.00     0.009 A 
HETATM    3  C16 UNL     1      11.049 -42.916   7.402  1.00  0.00     0.023 A 
HETATM    4  C17 UNL     1      11.945 -42.953   8.453  1.00  0.00     0.044 A 
HETATM    5  C18 UNL     1      11.821 -42.053   9.553  1.00  0.00     0.099 C 
HETATM    6  N5  UNL     1      11.708 -41.326  10.433  1.00  0.00    -0.191 NA
HETATM    7  C19 UNL     1      12.974 -43.881   8.430  1.00  0.00     0.023 A 
HETATM    8  C20 UNL     1      13.073 -44.750   7.342  1.00  0.00     0.009 A 
ENDROOT
BRANCH   1   9
HETATM    9  C13 UNL     1      12.359 -45.667   5.186  1.00  0.00     0.059 C 
BRANCH   9  10
HETATM   10  C12 UNL     1      11.247 -45.491   4.144  1.00  0.00     0.140 C 
BRANCH  10  11
HETATM   11  N4  UNL     1      11.299 -46.632   3.280  1.00  0.00    -0.285 N 
HETATM   12  C10 UNL     1      11.916 -46.688   2.068  1.00  0.00     0.131 A 
HETATM   13  N2  UNL     1      11.702 -47.942   1.634  1.00  0.00    -0.283 N 
HETATM   14  N3  UNL     1      11.004 -48.632   2.503  1.00  0.00    -0.250 N 
ATOM     15  H2  UNL     1      12.039 -48.309   0.745  1.00  0.00     0.188 HD
HETATM   16  C11 UNL     1      10.749 -47.819   3.532  1.00  0.00     0.342 A 
ATOM     17  H3  UNL     1      10.711 -49.604   2.411  1.00  0.00     0.192 HD
HETATM   18  O1  UNL     1      10.088 -48.190   4.545  1.00  0.00    -0.245 OA
BRANCH  12  19
HETATM   19  C9  UNL     1      12.661 -45.595   1.380  1.00  0.00     0.350 C 
BRANCH  19  20
HETATM   20  N1  UNL     1      13.856 -45.337   2.132  1.00  0.00     0.095 N 
HETATM   21  C1  UNL     1      14.849 -46.374   1.982  1.00  0.00     0.310 C 
BRANCH  20  22
HETATM   22  C2  UNL     1      14.380 -44.008   1.941  1.00  0.00     0.311 C 
BRANCH  22  23
HETATM   23  C3  UNL     1      14.136 -43.103   3.076  1.00  0.00    -0.030 A 
HETATM   24  C4  UNL     1      14.978 -43.182   4.158  1.00  0.00     0.009 A 
HETATM   25  C5  UNL     1      14.817 -42.370   5.258  1.00  0.00     0.001 A 
HETATM   26  C6  UNL     1      13.787 -41.457   5.273  1.00  0.00     0.000 A 
HETATM   27  C7  UNL     1      12.946 -41.384   4.184  1.00  0.00     0.001 A 
HETATM   28  C8  UNL     1      13.114 -42.195   3.092  1.00  0.00     0.009 A 
ENDBRANCH  22  23
ENDBRANCH  20  22
ENDBRANCH  19  20
ENDBRANCH  12  19
ENDBRANCH  10  11
ENDBRANCH   9  10
ENDBRANCH   1   9
TORSDOF 7
ENDMDL
MODEL 4
REMARK VINA RESULT: -7.104101114      1.931      2.420
REMARK  7 active torsions:
REMARK  status: ('A' for Active; 'I' for Inactive)
REMARK    1  A    between atoms: N1_2  and  C2_3 
REMARK    2  A    between atoms: N1_2  and  C9_10 
REMARK    3  A    between atoms: C2_3  and  C3_4 
REMARK    4  A    between atoms: C9_10  and  C10_11 
REMARK    5  A    between atoms: N4_18  and  C12_19 
REMARK    6  A    between atoms: C12_19  and  C13_20 
REMARK    7  A    between atoms: C13_20  and  C14_21 
ROOT
HETATM    1  C14 UNL     1      12.701 -40.349   5.843  1.00  0.00    -0.057 A 
HETATM    2  C15 UNL     1      13.748 -41.084   6.335  1.00  0.00     0.009 A 
HETATM    3  C16 UNL     1      13.530 -42.149   7.174  1.00  0.00     0.023 A 
HETATM    4  C17 UNL     1      12.247 -42.507   7.543  1.00  0.00     0.044 A 
HETATM    5  C18 UNL     1      12.018 -43.613   8.414  1.00  0.00     0.099 C 
HETATM    6  N5  UNL     1      11.847 -44.503   9.117  1.00  0.00    -0.191 NA
HETATM    7  C19 UNL     1      11.176 -41.775   7.056  1.00  0.00     0.023 A 
HETATM    8  C20 UNL     1      11.428 -40.697   6.205  1.00  0.00     0.009 A 
ENDROOT
BRANCH   1   9
HETATM    9  C13 UNL     1      12.881 -39.189   4.934  1.00  0.00     0.059 C 
BRANCH   9  10
HETATM   10  C12 UNL     1      14.329 -38.686   4.983  1.00  0.00     0.140 C 
BRANCH  10  11
HETATM   11  N4  UNL     1      14.683 -38.301   3.650  1.00  0.00    -0.285 N 
HETATM   12  C10 UNL     1      15.335 -39.077   2.742  1.00  0.00     0.131 A 
HETATM   13  N2  UNL     1      15.445 -38.303   1.649  1.00  0.00    -0.283 N 
HETATM   14  N3  UNL     1      14.904 -37.125   1.845  1.00  0.00    -0.250 N 
ATOM     15  H2  UNL     1      15.891 -38.594   0.779  1.00  0.00     0.188 HD
HETATM   16  C11 UNL     1      14.428 -37.118   3.093  1.00  0.00     0.342 A 
ATOM     17  H3  UNL     1      14.856 -36.359   1.174  1.00  0.00     0.192 HD
HETATM   18  O1  UNL     1      13.841 -36.114   3.592  1.00  0.00    -0.245 OA
BRANCH  12  19
HETATM   19  C9  UNL     1      15.818 -40.476   2.926  1.00  0.00     0.350 C 
BRANCH  19  20
HETATM   20  N1  UNL     1      14.727 -41.360   2.627  1.00  0.00     0.095 N 
HETATM   21  C1  UNL     1      14.070 -41.040   1.382  1.00  0.00     0.310 C 
BRANCH  20  22
HETATM   22  C2  UNL     1      15.066 -42.755   2.755  1.00  0.00     0.311 C 
BRANCH  22  23
HETATM   23  C3  UNL     1      14.091 -43.535   3.534  1.00  0.00    -0.030 A 
HETATM   24  C4  UNL     1      14.568 -44.482   4.405  1.00  0.00     0.009 A 
HETATM   25  C5  UNL     1      13.721 -45.252   5.170  1.00  0.00     0.001 A 
HETATM   26  C6  UNL     1      12.362 -45.066   5.058  1.00  0.00     0.000 A 
HETATM   27  C7  UNL     1      11.890 -44.113   4.183  1.00  0.00     0.001 A 
HETATM   28  C8  UNL     1      12.741 -43.351   3.425  1.00  0.00     0.009 A 
ENDBRANCH  22  23
ENDBRANCH  20  22
ENDBRANCH  19  20
ENDBRANCH  12  19
ENDBRANCH  10  11
ENDBRANCH   9  10
ENDBRANCH   1   9
TORSDOF 7
ENDMDL
MODEL 5
REMARK VINA RESULT: -7.008181079      2.520      5.700
REMARK  7 active torsions:
REMARK  status: ('A' for Active; 'I' for Inactive)
REMARK    1  A    between atoms: N1_2  and  C2_3 
REMARK    2  A    between atoms: N1_2  and  C9_10 
REMARK    3  A    between atoms: C2_3  and  C3_4 
REMARK    4  A    between atoms: C9_10  and  C10_11 
REMARK    5  A    between atoms: N4_18  and  C12_19 
REMARK    6  A    between atoms: C12_19  and  C13_20 
REMARK    7  A    between atoms: C13_20  and  C14_21 
ROOT
HETATM    1  C14 UNL     1      12.855 -39.560   5.176  1.00  0.00    -0.057 A 
HETATM    2  C15 UNL     1      12.046 -38.773   4.397  1.00  0.00     0.009 A 
HETATM    3  C16 UNL     1      12.499 -37.581   3.888  1.00  0.00     0.023 A 
HETATM    4  C17 UNL     1      13.784 -37.145   4.148  1.00  0.00     0.044 A 
HETATM    5  C18 UNL     1      14.257 -35.907   3.620  1.00  0.00     0.099 C 
HETATM    6  N5  UNL     1      14.625 -34.908   3.192  1.00  0.00    -0.191 NA
HETATM    7  C19 UNL     1      14.616 -37.926   4.934  1.00  0.00     0.023 A 
HETATM    8  C20 UNL     1      14.128 -39.133   5.438  1.00  0.00     0.009 A 
ENDROOT
BRANCH   1   9
HETATM    9  C13 UNL     1      12.415 -40.855   5.751  1.00  0.00     0.059 C 
BRANCH   9  10
HETATM   10  C12 UNL     1      13.431 -41.360   6.783  1.00  0.00     0.140 C 
BRANCH  10  11
HETATM   11  N4  UNL     1      12.684 -41.983   7.834  1.00  0.00    -0.285 N 
HETATM   12  C10 UNL     1      12.195 -43.253   7.821  1.00  0.00     0.131 A 
HETATM   13  N2  UNL     1      11.572 -43.391   9.004  1.00  0.00    -0.283 N 
HETATM   14  N3  UNL     1      11.659 -42.293   9.716  1.00  0.00    -0.250 N 
ATOM     15  H2  UNL     1      11.095 -44.239   9.309  1.00  0.00     0.188 HD
HETATM   16  C11 UNL     1      12.350 -41.411   8.990  1.00  0.00     0.342 A 
ATOM     17  H3  UNL     1      11.271 -42.142  10.647  1.00  0.00     0.192 HD
HETATM   18  O1  UNL     1      12.608 -40.243   9.403  1.00  0.00    -0.245 OA
BRANCH  12  19
HETATM   19  C9  UNL     1      12.325 -44.263   6.731  1.00  0.00     0.350 C 
BRANCH  19  20
HETATM   20  N1  UNL     1      13.723 -44.430   6.452  1.00  0.00     0.095 N 
HETATM   21  C1  UNL     1      14.407 -45.212   7.455  1.00  0.00     0.310 C 
BRANCH  20  22
HETATM   22  C2  UNL     1      13.992 -44.864   5.105  1.00  0.00     0.311 C 
BRANCH  22  23
HETATM   23  C3  UNL     1      13.969 -43.775   4.113  1.00  0.00    -0.030 A 
HETATM   24  C4  UNL     1      15.056 -42.939   4.046  1.00  0.00     0.009 A 
HETATM   25  C5  UNL     1      15.112 -41.899   3.146  1.00  0.00     0.001 A 
HETATM   26  C6  UNL     1      14.051 -41.693   2.294  1.00  0.00     0.000 A 
HETATM   27  C7  UNL     1      12.964 -42.536   2.367  1.00  0.00     0.001 A 
HETATM   28  C8  UNL     1      12.917 -43.569   3.265  1.00  0.00     0.009 A 
ENDBRANCH  22  23
ENDBRANCH  20  22
ENDBRANCH  19  20
ENDBRANCH  12  19
ENDBRANCH  10  11
ENDBRANCH   9  10
ENDBRANCH   1   9
TORSDOF 7
ENDMDL
