MODEL 1
REMARK VINA RESULT: -6.615252773      0.000      0.000
REMARK  3 active torsions:
REMARK  status: ('A' for Active; 'I' for Inactive)
REMARK    1  A    between atoms: N1_1  and  N2_4 
REMARK    2  A    between atoms: N2_4  and  N3_5 
REMARK    3  A    between atoms: C4_9  and  N4_10 
ROOT
HETATM    1  N3  UNL     1     -26.823   3.446  26.661  1.00  0.00    -0.119 NA
HETATM    2  C1  UNL     1     -25.671   2.605  26.940  1.00  0.00     0.178 C 
HETATM    3  C2  UNL     1     -26.385   1.312  27.269  1.00  0.00     0.135 A 
HETATM    4  C3  UNL     1     -26.786   0.579  26.014  1.00  0.00     0.118 A 
HETATM    5  C4  UNL     1     -25.913  -0.423  26.681  1.00  0.00     0.083 A 
HETATM    6  N7  UNL     1     -25.591   0.237  27.743  1.00  0.00    -0.360 N 
ATOM      7  H7  UNL     1     -25.015   0.062  28.567  1.00  0.00     0.162 HD
HETATM    8  C6  UNL     1     -27.486   1.790  28.108  1.00  0.00     0.263 C 
HETATM    9  O1  UNL     1     -28.100   1.127  28.964  1.00  0.00    -0.269 OA
HETATM   10  N8  UNL     1     -27.699   3.144  27.739  1.00  0.00    -0.271 N 
ATOM     11  H8  UNL     1     -28.362   3.787  28.172  1.00  0.00     0.185 HD
ENDROOT
BRANCH   1  12
HETATM   12  N2  UNL     1     -26.527   4.781  26.581  1.00  0.00    -0.035 NA
BRANCH  12  13
HETATM   13  N1  UNL     1     -25.435   5.166  27.362  1.00  0.00    -0.332 N 
ATOM     14  H12 UNL     1     -24.706   4.508  27.638  1.00  0.00     0.173 HD
ATOM     15  H11 UNL     1     -25.441   6.152  27.623  1.00  0.00     0.173 HD
ENDBRANCH  12  13
ENDBRANCH   1  12
BRANCH   5  16
HETATM   16  N4  UNL     1     -25.550  -1.730  26.249  1.00  0.00    -0.323 N 
HETATM   17  C5  UNL     1     -26.251  -2.774  26.524  1.00  0.00     0.202 C 
HETATM   18  N5  UNL     1     -25.768  -4.021  26.026  1.00  0.00    -0.066 NA
HETATM   19  N6  UNL     1     -27.438  -2.681  27.282  1.00  0.00    -0.066 NA
ATOM     20  H4  UNL     1     -24.699  -1.844  25.698  1.00  0.00     0.169 HD
ENDBRANCH   5  16
TORSDOF 3
ENDMDL
MODEL 2
REMARK VINA RESULT: -6.341917074      2.831      4.125
REMARK  3 active torsions:
REMARK  status: ('A' for Active; 'I' for Inactive)
REMARK    1  A    between atoms: N1_1  and  N2_4 
REMARK    2  A    between atoms: N2_4  and  N3_5 
REMARK    3  A    between atoms: C4_9  and  N4_10 
ROOT
HETATM    1  N3  UNL     1     -25.844   2.536  28.456  1.00  0.00    -0.119 NA
HETATM    2  C1  UNL     1     -26.656   2.706  27.263  1.00  0.00     0.178 C 
HETATM    3  C2  UNL     1     -27.258   1.321  27.176  1.00  0.00     0.135 A 
HETATM    4  C3  UNL     1     -28.428   1.177  28.116  1.00  0.00     0.118 A 
HETATM    5  C4  UNL     1     -29.061   0.892  26.802  1.00  0.00     0.083 A 
HETATM    6  N7  UNL     1     -28.036   1.024  26.029  1.00  0.00    -0.360 N 
ATOM      7  H7  UNL     1     -27.860   0.947  25.027  1.00  0.00     0.162 HD
HETATM    8  C6  UNL     1     -26.097   0.477  27.470  1.00  0.00     0.263 C 
HETATM    9  O1  UNL     1     -25.941  -0.707  27.121  1.00  0.00    -0.269 OA
HETATM   10  N8  UNL     1     -25.208   1.286  28.226  1.00  0.00    -0.271 N 
ATOM     11  H8  UNL     1     -24.278   1.016  28.548  1.00  0.00     0.185 HD
ENDROOT
BRANCH   1  12
HETATM   12  N2  UNL     1     -24.948   3.551  28.664  1.00  0.00    -0.035 NA
BRANCH  12  13
HETATM   13  N1  UNL     1     -25.205   4.697  27.909  1.00  0.00    -0.332 N 
ATOM     14  H12 UNL     1     -26.152   4.979  27.655  1.00  0.00     0.173 HD
ATOM     15  H11 UNL     1     -24.367   5.214  27.643  1.00  0.00     0.173 HD
ENDBRANCH  12  13
ENDBRANCH   1  12
BRANCH   5  16
HETATM   16  N4  UNL     1     -30.416   0.569  26.507  1.00  0.00    -0.323 N 
HETATM   17  C5  UNL     1     -31.221   1.399  25.940  1.00  0.00     0.202 C 
HETATM   18  N5  UNL     1     -32.553   0.942  25.705  1.00  0.00    -0.066 NA
HETATM   19  N6  UNL     1     -30.801   2.695  25.573  1.00  0.00    -0.066 NA
ATOM     20  H4  UNL     1     -30.763  -0.357  26.755  1.00  0.00     0.169 HD
ENDBRANCH   5  16
TORSDOF 3
ENDMDL
MODEL 3
REMARK VINA RESULT: -5.970570934      1.546      5.554
REMARK  3 active torsions:
REMARK  status: ('A' for Active; 'I' for Inactive)
REMARK    1  A    between atoms: N1_1  and  N2_4 
REMARK    2  A    between atoms: N2_4  and  N3_5 
REMARK    3  A    between atoms: C4_9  and  N4_10 
ROOT
HETATM    1  N3  UNL     1     -26.996  -0.767  27.347  1.00  0.00    -0.119 NA
HETATM    2  C1  UNL     1     -26.187   0.126  26.533  1.00  0.00     0.178 C 
HETATM    3  C2  UNL     1     -26.781   1.451  26.958  1.00  0.00     0.135 A 
HETATM    4  C3  UNL     1     -26.204   1.908  28.274  1.00  0.00     0.118 A 
HETATM    5  C4  UNL     1     -25.834   3.034  27.376  1.00  0.00     0.083 A 
HETATM    6  N7  UNL     1     -26.341   2.608  26.267  1.00  0.00    -0.360 N 
ATOM      7  H7  UNL     1     -26.400   2.955  25.309  1.00  0.00     0.162 HD
HETATM    8  C6  UNL     1     -28.213   1.143  26.963  1.00  0.00     0.263 C 
HETATM    9  O1  UNL     1     -29.142   1.960  26.826  1.00  0.00    -0.269 OA
HETATM   10  N8  UNL     1     -28.310  -0.261  27.154  1.00  0.00    -0.271 N 
ATOM     11  H8  UNL     1     -29.170  -0.808  27.154  1.00  0.00     0.185 HD
ENDROOT
BRANCH   1  12
HETATM   12  N2  UNL     1     -26.884  -2.087  26.997  1.00  0.00    -0.035 NA
BRANCH  12  13
HETATM   13  N1  UNL     1     -25.740  -2.380  26.253  1.00  0.00    -0.332 N 
ATOM     14  H12 UNL     1     -25.013  -1.686  26.078  1.00  0.00     0.173 HD
ATOM     15  H11 UNL     1     -25.705  -3.340  25.909  1.00  0.00     0.173 HD
ENDBRANCH  12  13
ENDBRANCH   1  12
BRANCH   5  16
HETATM   16  N4  UNL     1     -25.122   4.229  27.678  1.00  0.00    -0.323 N 
HETATM   17  C5  UNL     1     -25.086   5.238  26.880  1.00  0.00     0.202 C 
HETATM   18  N5  UNL     1     -24.332   6.371  27.311  1.00  0.00    -0.066 NA
HETATM   19  N6  UNL     1     -25.762   5.218  25.641  1.00  0.00    -0.066 NA
ATOM     20  H4  UNL     1     -24.619   4.287  28.563  1.00  0.00     0.169 HD
ENDBRANCH   5  16
TORSDOF 3
ENDMDL
MODEL 4
REMARK VINA RESULT: -5.955896894      2.479      5.418
REMARK  3 active torsions:
REMARK  status: ('A' for Active; 'I' for Inactive)
REMARK    1  A    between atoms: N1_1  and  N2_4 
REMARK    2  A    between atoms: N2_4  and  N3_5 
REMARK    3  A    between atoms: C4_9  and  N4_10 
ROOT
HETATM    1  N3  UNL     1     -27.462  -2.241  24.415  1.00  0.00    -0.119 NA
HETATM    2  C1  UNL     1     -27.612  -0.796  24.358  1.00  0.00     0.178 C 
HETATM    3  C2  UNL     1     -27.480  -0.478  25.832  1.00  0.00     0.135 A 
HETATM    4  C3  UNL     1     -26.032  -0.447  26.253  1.00  0.00     0.118 A 
HETATM    5  C4  UNL     1     -26.476   0.929  26.600  1.00  0.00     0.083 A 
HETATM    6  N7  UNL     1     -27.710   0.864  26.227  1.00  0.00    -0.360 N 
ATOM      7  H7  UNL     1     -28.507   1.502  26.220  1.00  0.00     0.162 HD
HETATM    8  C6  UNL     1     -28.296  -1.533  26.435  1.00  0.00     0.263 C 
HETATM    9  O1  UNL     1     -28.857  -1.486  27.545  1.00  0.00    -0.269 OA
HETATM   10  N8  UNL     1     -28.309  -2.601  25.498  1.00  0.00    -0.271 N 
ATOM     11  H8  UNL     1     -28.833  -3.471  25.588  1.00  0.00     0.185 HD
ENDROOT
BRANCH   1  12
HETATM   12  N2  UNL     1     -27.800  -2.878  23.250  1.00  0.00    -0.035 NA
BRANCH  12  13
HETATM   13  N1  UNL     1     -29.176  -2.977  23.037  1.00  0.00    -0.332 N 
ATOM     14  H12 UNL     1     -29.619  -3.850  22.750  1.00  0.00     0.173 HD
ATOM     15  H11 UNL     1     -29.683  -2.107  23.195  1.00  0.00     0.173 HD
ENDBRANCH  12  13
ENDBRANCH   1  12
BRANCH   5  16
HETATM   16  N4  UNL     1     -25.730   1.996  27.176  1.00  0.00    -0.323 N 
HETATM   17  C5  UNL     1     -25.779   2.280  28.431  1.00  0.00     0.202 C 
HETATM   18  N5  UNL     1     -24.979   3.376  28.873  1.00  0.00    -0.066 NA
HETATM   19  N6  UNL     1     -26.586   1.539  29.321  1.00  0.00    -0.066 NA
ATOM     20  H4  UNL     1     -25.133   2.559  26.571  1.00  0.00     0.169 HD
ENDBRANCH   5  16
TORSDOF 3
ENDMDL
MODEL 5
REMARK VINA RESULT: -5.922562167      2.497      5.395
REMARK  3 active torsions:
REMARK  status: ('A' for Active; 'I' for Inactive)
REMARK    1  A    between atoms: N1_1  and  N2_4 
REMARK    2  A    between atoms: N2_4  and  N3_5 
REMARK    3  A    between atoms: C4_9  and  N4_10 
ROOT
HETATM    1  N3  UNL     1     -27.404  -2.173  24.243  1.00  0.00    -0.119 NA
HETATM    2  C1  UNL     1     -27.654  -0.834  24.750  1.00  0.00     0.178 C 
HETATM    3  C2  UNL     1     -27.246  -1.037  26.193  1.00  0.00     0.135 A 
HETATM    4  C3  UNL     1     -25.748  -0.963  26.348  1.00  0.00     0.118 A 
HETATM    5  C4  UNL     1     -26.198   0.133  27.248  1.00  0.00     0.083 A 
HETATM    6  N7  UNL     1     -27.476   0.038  27.088  1.00  0.00    -0.360 N 
ATOM      7  H7  UNL     1     -28.296   0.525  27.449  1.00  0.00     0.162 HD
HETATM    8  C6  UNL     1     -27.853  -2.336  26.490  1.00  0.00     0.263 C 
HETATM    9  O1  UNL     1     -28.177  -2.756  27.616  1.00  0.00    -0.269 OA
HETATM   10  N8  UNL     1     -27.988  -2.999  25.242  1.00  0.00    -0.271 N 
ATOM     11  H8  UNL     1     -28.426  -3.908  25.090  1.00  0.00     0.185 HD
ENDROOT
BRANCH   1  12
HETATM   12  N2  UNL     1     -27.930  -2.401  22.999  1.00  0.00    -0.035 NA
BRANCH  12  13
HETATM   13  N1  UNL     1     -29.227  -1.911  22.835  1.00  0.00    -0.332 N 
ATOM     14  H12 UNL     1     -29.700  -1.918  21.931  1.00  0.00     0.173 HD
ATOM     15  H11 UNL     1     -29.647  -1.554  23.693  1.00  0.00     0.173 HD
ENDBRANCH  12  13
ENDBRANCH   1  12
BRANCH   5  16
HETATM   16  N4  UNL     1     -25.421   1.019  28.045  1.00  0.00    -0.323 N 
HETATM   17  C5  UNL     1     -25.344   2.282  27.807  1.00  0.00     0.202 C 
HETATM   18  N5  UNL     1     -24.527   3.053  28.688  1.00  0.00    -0.066 NA
HETATM   19  N6  UNL     1     -26.037   2.869  26.727  1.00  0.00    -0.066 NA
ATOM     20  H4  UNL     1     -24.903   0.638  28.837  1.00  0.00     0.169 HD
ENDBRANCH   5  16
TORSDOF 3
ENDMDL
