MODEL 1
REMARK VINA RESULT: -5.779263827      0.000      0.000
REMARK  3 active torsions:
REMARK  status: ('A' for Active; 'I' for Inactive)
REMARK    1  A    between atoms: N1_1  and  N2_4 
REMARK       I    between atoms: C1_6  and  N3_7 
REMARK       I    between atoms: C1_6  and  N6_12 
REMARK    2  A    between atoms: N6_12  and  S1_14 
REMARK    3  A    between atoms: S1_14  and  N7_15 
ROOT
HETATM    1  N2  UNL     1     -28.566   1.459  27.612  1.00  0.00    -0.138 N 
ATOM      2  H2  UNL     1     -28.787   1.982  28.459  1.00  0.00     0.205 HD
HETATM    3  C1  UNL     1     -27.352   1.154  27.333  1.00  0.00     0.709 C 
HETATM    4  N3  UNL     1     -26.279   1.540  28.199  1.00  0.00    -0.164 N 
ATOM      5  H3  UNL     1     -26.217   1.119  29.126  1.00  0.00     0.186 HD
HETATM    6  C2  UNL     1     -25.393   2.398  27.848  1.00  0.00     0.215 C 
HETATM    7  N4  UNL     1     -25.489   2.978  26.553  1.00  0.00    -0.066 NA
HETATM    8  N5  UNL     1     -24.365   2.726  28.759  1.00  0.00    -0.066 NA
HETATM    9  N6  UNL     1     -27.108   0.427  26.145  1.00  0.00    -0.098 N 
ATOM     10  H6  UNL     1     -27.118   0.937  25.262  1.00  0.00     0.199 HD
ENDROOT
BRANCH   1  11
HETATM   11  N1  UNL     1     -29.578   1.066  26.743  1.00  0.00    -0.331 N 
ATOM     12  H12 UNL     1     -29.558   0.129  26.340  1.00  0.00     0.177 HD
ATOM     13  H11 UNL     1     -30.325   1.724  26.522  1.00  0.00     0.177 HD
ENDBRANCH   1  11
BRANCH   9  14
HETATM   14  S1  UNL     1     -26.794  -1.268  26.095  1.00  0.00     0.330 S 
HETATM   15  O1  UNL     1     -27.616  -1.941  27.129  1.00  0.00    -0.182 OA
HETATM   16  O2  UNL     1     -27.011  -1.839  24.728  1.00  0.00    -0.182 OA
BRANCH  14  17
HETATM   17  N7  UNL     1     -25.090  -1.436  26.454  1.00  0.00    -0.311 N 
ATOM     18  H72 UNL     1     -24.403  -0.684  26.500  1.00  0.00     0.170 HD
ATOM     19  H71 UNL     1     -24.941  -2.434  26.605  1.00  0.00     0.170 HD
ENDBRANCH  14  17
ENDBRANCH   9  14
TORSDOF 3
ENDMDL
MODEL 2
REMARK VINA RESULT: -5.659389576      1.553      1.668
REMARK  3 active torsions:
REMARK  status: ('A' for Active; 'I' for Inactive)
REMARK    1  A    between atoms: N1_1  and  N2_4 
REMARK       I    between atoms: C1_6  and  N3_7 
REMARK       I    between atoms: C1_6  and  N6_12 
REMARK    2  A    between atoms: N6_12  and  S1_14 
REMARK    3  A    between atoms: S1_14  and  N7_15 
ROOT
HETATM    1  N2  UNL     1     -28.820   2.713  26.884  1.00  0.00    -0.138 N 
ATOM      2  H2  UNL     1     -29.136   3.470  27.490  1.00  0.00     0.205 HD
HETATM    3  C1  UNL     1     -27.661   2.189  27.049  1.00  0.00     0.709 C 
HETATM    4  N3  UNL     1     -26.785   2.650  28.084  1.00  0.00    -0.164 N 
ATOM      5  H3  UNL     1     -27.043   2.491  29.057  1.00  0.00     0.186 HD
HETATM    6  C2  UNL     1     -25.686   3.258  27.825  1.00  0.00     0.215 C 
HETATM    7  N4  UNL     1     -25.335   3.474  26.464  1.00  0.00    -0.066 NA
HETATM    8  N5  UNL     1     -24.875   3.683  28.901  1.00  0.00    -0.066 NA
HETATM    9  N6  UNL     1     -27.278   1.142  26.179  1.00  0.00    -0.098 N 
ATOM     10  H6  UNL     1     -26.964   1.392  25.241  1.00  0.00     0.199 HD
ENDROOT
BRANCH   1  11
HETATM   11  N1  UNL     1     -29.639   2.236  25.867  1.00  0.00    -0.331 N 
ATOM     12  H12 UNL     1     -29.339   1.430  25.318  1.00  0.00     0.177 HD
ATOM     13  H11 UNL     1     -30.528   2.701  25.688  1.00  0.00     0.177 HD
ENDBRANCH   1  11
BRANCH   9  14
HETATM   14  S1  UNL     1     -27.308  -0.530  26.603  1.00  0.00     0.330 S 
HETATM   15  O1  UNL     1     -26.001  -0.899  27.198  1.00  0.00    -0.182 OA
HETATM   16  O2  UNL     1     -28.462  -0.861  27.498  1.00  0.00    -0.182 OA
BRANCH  14  17
HETATM   17  N7  UNL     1     -27.566  -1.385  25.099  1.00  0.00    -0.311 N 
ATOM     18  H72 UNL     1     -26.854  -1.842  24.531  1.00  0.00     0.170 HD
ATOM     19  H71 UNL     1     -28.569  -1.326  24.922  1.00  0.00     0.170 HD
ENDBRANCH  14  17
ENDBRANCH   9  14
TORSDOF 3
ENDMDL
MODEL 3
REMARK VINA RESULT: -5.477826164      1.327      1.683
REMARK  3 active torsions:
REMARK  status: ('A' for Active; 'I' for Inactive)
REMARK    1  A    between atoms: N1_1  and  N2_4 
REMARK       I    between atoms: C1_6  and  N3_7 
REMARK       I    between atoms: C1_6  and  N6_12 
REMARK    2  A    between atoms: N6_12  and  S1_14 
REMARK    3  A    between atoms: S1_14  and  N7_15 
ROOT
HETATM    1  N2  UNL     1     -28.346   0.755  27.906  1.00  0.00    -0.138 N 
ATOM      2  H2  UNL     1     -28.411   0.897  28.913  1.00  0.00     0.205 HD
HETATM    3  C1  UNL     1     -27.224   0.895  27.299  1.00  0.00     0.709 C 
HETATM    4  N3  UNL     1     -26.039   1.253  28.019  1.00  0.00    -0.164 N 
ATOM      5  H3  UNL     1     -25.646   0.587  28.684  1.00  0.00     0.186 HD
HETATM    6  C2  UNL     1     -25.456   2.383  27.854  1.00  0.00     0.215 C 
HETATM    7  N4  UNL     1     -26.013   3.303  26.923  1.00  0.00    -0.066 NA
HETATM    8  N5  UNL     1     -24.290   2.662  28.601  1.00  0.00    -0.066 NA
HETATM    9  N6  UNL     1     -27.197   0.686  25.902  1.00  0.00    -0.098 N 
ATOM     10  H6  UNL     1     -27.545   1.431  25.300  1.00  0.00     0.199 HD
ENDROOT
BRANCH   1  11
HETATM   11  N1  UNL     1     -29.473   0.408  27.169  1.00  0.00    -0.331 N 
ATOM     12  H12 UNL     1     -30.028  -0.401  27.450  1.00  0.00     0.177 HD
ATOM     13  H11 UNL     1     -29.726   0.971  26.357  1.00  0.00     0.177 HD
ENDBRANCH   1  11
BRANCH   9  14
HETATM   14  S1  UNL     1     -26.610  -0.752  25.149  1.00  0.00     0.330 S 
HETATM   15  O1  UNL     1     -25.951  -0.391  23.871  1.00  0.00    -0.182 OA
HETATM   16  O2  UNL     1     -25.713  -1.535  26.058  1.00  0.00    -0.182 OA
BRANCH  14  17
HETATM   17  N7  UNL     1     -28.027  -1.735  24.858  1.00  0.00    -0.311 N 
ATOM     18  H72 UNL     1     -28.196  -2.676  25.211  1.00  0.00     0.170 HD
ATOM     19  H71 UNL     1     -28.636  -1.166  24.269  1.00  0.00     0.170 HD
ENDBRANCH  14  17
ENDBRANCH   9  14
TORSDOF 3
ENDMDL
MODEL 4
REMARK VINA RESULT: -5.465179225      1.898      3.164
REMARK  3 active torsions:
REMARK  status: ('A' for Active; 'I' for Inactive)
REMARK    1  A    between atoms: N1_1  and  N2_4 
REMARK       I    between atoms: C1_6  and  N3_7 
REMARK       I    between atoms: C1_6  and  N6_12 
REMARK    2  A    between atoms: N6_12  and  S1_14 
REMARK    3  A    between atoms: S1_14  and  N7_15 
ROOT
HETATM    1  N2  UNL     1     -25.779  -0.646  26.711  1.00  0.00    -0.138 N 
ATOM      2  H2  UNL     1     -24.786  -0.560  26.493  1.00  0.00     0.205 HD
HETATM    3  C1  UNL     1     -26.446   0.372  27.119  1.00  0.00     0.709 C 
HETATM    4  N3  UNL     1     -25.816   1.649  27.277  1.00  0.00    -0.164 N 
ATOM      5  H3  UNL     1     -25.486   2.142  26.448  1.00  0.00     0.186 HD
HETATM    6  C2  UNL     1     -25.655   2.191  28.427  1.00  0.00     0.215 C 
HETATM    7  N4  UNL     1     -26.119   1.494  29.576  1.00  0.00    -0.066 NA
HETATM    8  N5  UNL     1     -25.024   3.453  28.502  1.00  0.00    -0.066 NA
HETATM    9  N6  UNL     1     -27.818   0.193  27.404  1.00  0.00    -0.098 N 
ATOM     10  H6  UNL     1     -28.068  -0.248  28.290  1.00  0.00     0.199 HD
ENDROOT
BRANCH   1  11
HETATM   11  N1  UNL     1     -26.428  -1.867  26.572  1.00  0.00    -0.331 N 
ATOM     12  H12 UNL     1     -27.087  -2.001  25.805  1.00  0.00     0.177 HD
ATOM     13  H11 UNL     1     -26.234  -2.610  27.242  1.00  0.00     0.177 HD
ENDBRANCH   1  11
BRANCH   9  14
HETATM   14  S1  UNL     1     -29.098   0.672  26.351  1.00  0.00     0.330 S 
HETATM   15  O1  UNL     1     -28.879   0.061  25.019  1.00  0.00    -0.182 OA
HETATM   16  O2  UNL     1     -30.444   0.345  26.920  1.00  0.00    -0.182 OA
BRANCH  14  17
HETATM   17  N7  UNL     1     -28.992   2.415  26.256  1.00  0.00    -0.311 N 
ATOM     18  H72 UNL     1     -28.287   3.006  26.696  1.00  0.00     0.170 HD
ATOM     19  H71 UNL     1     -29.779   2.703  25.674  1.00  0.00     0.170 HD
ENDBRANCH  14  17
ENDBRANCH   9  14
TORSDOF 3
ENDMDL
MODEL 5
REMARK VINA RESULT: -5.450807189      2.814      4.294
REMARK  3 active torsions:
REMARK  status: ('A' for Active; 'I' for Inactive)
REMARK    1  A    between atoms: N1_1  and  N2_4 
REMARK       I    between atoms: C1_6  and  N3_7 
REMARK       I    between atoms: C1_6  and  N6_12 
REMARK    2  A    between atoms: N6_12  and  S1_14 
REMARK    3  A    between atoms: S1_14  and  N7_15 
ROOT
HETATM    1  N2  UNL     1     -25.093   1.169  27.918  1.00  0.00    -0.138 N 
ATOM      2  H2  UNL     1     -24.461   0.474  28.314  1.00  0.00     0.205 HD
HETATM    3  C1  UNL     1     -26.096   0.806  27.204  1.00  0.00     0.709 C 
HETATM    4  N3  UNL     1     -26.352  -0.580  26.947  1.00  0.00    -0.164 N 
ATOM      5  H3  UNL     1     -26.628  -1.182  27.721  1.00  0.00     0.186 HD
HETATM    6  C2  UNL     1     -26.243  -1.087  25.774  1.00  0.00     0.215 C 
HETATM    7  N4  UNL     1     -25.857  -0.237  24.702  1.00  0.00    -0.066 NA
HETATM    8  N5  UNL     1     -26.512  -2.462  25.601  1.00  0.00    -0.066 NA
HETATM    9  N6  UNL     1     -26.938   1.814  26.682  1.00  0.00    -0.098 N 
ATOM     10  H6  UNL     1     -26.617   2.326  25.860  1.00  0.00     0.199 HD
ENDROOT
BRANCH   1  11
HETATM   11  N1  UNL     1     -24.881   2.525  28.142  1.00  0.00    -0.331 N 
ATOM     12  H12 UNL     1     -24.440   2.827  29.011  1.00  0.00     0.177 HD
ATOM     13  H11 UNL     1     -25.172   3.196  27.432  1.00  0.00     0.177 HD
ENDBRANCH   1  11
BRANCH   9  14
HETATM   14  S1  UNL     1     -28.473   2.234  27.347  1.00  0.00     0.330 S 
HETATM   15  O1  UNL     1     -28.346   2.344  28.820  1.00  0.00    -0.182 OA
HETATM   16  O2  UNL     1     -29.033   3.476  26.724  1.00  0.00    -0.182 OA
BRANCH  14  17
HETATM   17  N7  UNL     1     -29.542   0.919  26.915  1.00  0.00    -0.311 N 
ATOM     18  H72 UNL     1     -30.323   0.961  26.261  1.00  0.00     0.170 HD
ATOM     19  H71 UNL     1     -29.214   0.116  27.452  1.00  0.00     0.170 HD
ENDBRANCH  14  17
ENDBRANCH   9  14
TORSDOF 3
ENDMDL
