MODEL 1
REMARK VINA RESULT: -6.181115485      0.000      0.000
REMARK  3 active torsions:
REMARK  status: ('A' for Active; 'I' for Inactive)
REMARK    1  A    between atoms: N1_1  and  N2_4 
REMARK       I    between atoms: N2_4  and  C1_6 
REMARK       I    between atoms: C1_6  and  N3_8 
REMARK       I    between atoms: N3_8  and  C2_10 
REMARK       I    between atoms: C2_10  and  N4_12 
REMARK       I    between atoms: N4_12  and  C3_14 
REMARK    2  A    between atoms: C3_14  and  C4_16 
REMARK    3  A    between atoms: C4_16  and  N5_17 
ROOT
HETATM    1  N2  UNL     1     -25.762   4.327  25.975  1.00  0.00    -0.258 N 
ATOM      2  H2  UNL     1     -26.269   3.634  25.424  1.00  0.00     0.191 HD
HETATM    3  C1  UNL     1     -25.293   4.014  27.253  1.00  0.00     0.342 C 
HETATM    4  O1  UNL     1     -24.664   4.978  27.843  1.00  0.00    -0.245 OA
HETATM    5  N3  UNL     1     -25.402   2.834  27.969  1.00  0.00    -0.259 N 
ATOM      6  H3  UNL     1     -24.975   2.819  28.895  1.00  0.00     0.175 HD
HETATM    7  C2  UNL     1     -26.066   1.608  27.535  1.00  0.00     0.330 C 
HETATM    8  O2  UNL     1     -25.975   0.722  28.457  1.00  0.00    -0.246 OA
HETATM    9  N4  UNL     1     -26.670   1.527  26.297  1.00  0.00    -0.275 N 
ATOM     10  H4  UNL     1     -26.805   2.217  25.559  1.00  0.00     0.173 HD
HETATM   11  C3  UNL     1     -27.122  -0.133  26.420  1.00  0.00     0.292 C 
HETATM   12  O3  UNL     1     -26.809  -0.644  27.382  1.00  0.00    -0.268 OA
ENDROOT
BRANCH  11  13
HETATM   13  C4  UNL     1     -27.824  -0.536  25.230  1.00  0.00     0.387 A 
HETATM   14  C5  UNL     1     -26.870  -0.805  24.052  1.00  0.00     0.316 A 
HETATM   15  N6  UNL     1     -27.621  -1.861  24.676  1.00  0.00    -0.025 N 
ATOM     16  H62 UNL     1     -27.345  -2.748  25.095  1.00  0.00     0.281 HD
ATOM     17  H61 UNL     1     -28.267  -2.558  24.306  1.00  0.00     0.281 HD
BRANCH  13  18
HETATM   18  N5  UNL     1     -29.062   0.148  24.828  1.00  0.00    -0.034 N 
ATOM     19  H53 UNL     1     -29.712   0.121  25.614  1.00  0.00     0.278 HD
ATOM     20  H52 UNL     1     -28.868   1.146  24.756  1.00  0.00     0.278 HD
ATOM     21  H51 UNL     1     -29.564  -0.142  23.989  1.00  0.00     0.278 HD
ENDBRANCH  13  18
ENDBRANCH  11  13
BRANCH   1  22
HETATM   22  N1  UNL     1     -25.522   5.629  25.457  1.00  0.00    -0.341 N 
ATOM     23  H12 UNL     1     -25.126   6.347  26.063  1.00  0.00     0.177 HD
ATOM     24  H11 UNL     1     -25.752   5.821  24.482  1.00  0.00     0.177 HD
ENDBRANCH   1  22
TORSDOF 3
ENDMDL
MODEL 2
REMARK VINA RESULT: -6.117976100      1.642      2.150
REMARK  3 active torsions:
REMARK  status: ('A' for Active; 'I' for Inactive)
REMARK    1  A    between atoms: N1_1  and  N2_4 
REMARK       I    between atoms: N2_4  and  C1_6 
REMARK       I    between atoms: C1_6  and  N3_8 
REMARK       I    between atoms: N3_8  and  C2_10 
REMARK       I    between atoms: C2_10  and  N4_12 
REMARK       I    between atoms: N4_12  and  C3_14 
REMARK    2  A    between atoms: C3_14  and  C4_16 
REMARK    3  A    between atoms: C4_16  and  N5_17 
ROOT
HETATM    1  N2  UNL     1     -25.876   3.441  27.275  1.00  0.00    -0.258 N 
ATOM      2  H2  UNL     1     -26.611   3.238  26.598  1.00  0.00     0.191 HD
HETATM    3  C1  UNL     1     -25.237   2.406  27.962  1.00  0.00     0.342 C 
HETATM    4  O1  UNL     1     -24.321   2.797  28.787  1.00  0.00    -0.245 OA
HETATM    5  N3  UNL     1     -25.442   1.039  27.886  1.00  0.00    -0.259 N 
ATOM      6  H3  UNL     1     -24.852   0.455  28.480  1.00  0.00     0.175 HD
HETATM    7  C2  UNL     1     -26.414   0.347  27.045  1.00  0.00     0.330 C 
HETATM    8  O2  UNL     1     -26.325  -0.917  27.240  1.00  0.00    -0.246 OA
HETATM    9  N4  UNL     1     -27.254   1.048  26.206  1.00  0.00    -0.275 N 
ATOM     10  H4  UNL     1     -27.388   2.048  26.056  1.00  0.00     0.173 HD
HETATM   11  C3  UNL     1     -28.001  -0.334  25.495  1.00  0.00     0.292 C 
HETATM   12  O3  UNL     1     -27.616  -1.332  25.870  1.00  0.00    -0.268 OA
ENDROOT
BRANCH  11  13
HETATM   13  C4  UNL     1     -28.991   0.086  24.538  1.00  0.00     0.387 A 
HETATM   14  C5  UNL     1     -30.415  -0.334  24.948  1.00  0.00     0.316 A 
HETATM   15  N6  UNL     1     -30.011   1.046  24.916  1.00  0.00    -0.025 N 
ATOM     16  H62 UNL     1     -30.034   1.787  25.616  1.00  0.00     0.281 HD
ATOM     17  H61 UNL     1     -30.394   1.865  24.444  1.00  0.00     0.281 HD
BRANCH  13  18
HETATM   18  N5  UNL     1     -28.739  -0.052  23.096  1.00  0.00    -0.034 N 
ATOM     19  H53 UNL     1     -29.637  -0.071  22.614  1.00  0.00     0.278 HD
ATOM     20  H52 UNL     1     -28.341   0.823  22.756  1.00  0.00     0.278 HD
ATOM     21  H51 UNL     1     -28.170  -0.821  22.742  1.00  0.00     0.278 HD
ENDBRANCH  13  18
ENDBRANCH  11  13
BRANCH   1  22
HETATM   22  N1  UNL     1     -25.482   4.782  27.536  1.00  0.00    -0.341 N 
ATOM     23  H12 UNL     1     -25.099   5.026  28.449  1.00  0.00     0.177 HD
ATOM     24  H11 UNL     1     -25.591   5.479  26.799  1.00  0.00     0.177 HD
ENDBRANCH   1  22
TORSDOF 3
ENDMDL
MODEL 3
REMARK VINA RESULT: -6.111543841      2.177      2.637
REMARK  3 active torsions:
REMARK  status: ('A' for Active; 'I' for Inactive)
REMARK    1  A    between atoms: N1_1  and  N2_4 
REMARK       I    between atoms: N2_4  and  C1_6 
REMARK       I    between atoms: C1_6  and  N3_8 
REMARK       I    between atoms: N3_8  and  C2_10 
REMARK       I    between atoms: C2_10  and  N4_12 
REMARK       I    between atoms: N4_12  and  C3_14 
REMARK    2  A    between atoms: C3_14  and  C4_16 
REMARK    3  A    between atoms: C4_16  and  N5_17 
ROOT
HETATM    1  N2  UNL     1     -25.758   4.100  26.962  1.00  0.00    -0.258 N 
ATOM      2  H2  UNL     1     -26.469   3.841  26.278  1.00  0.00     0.191 HD
HETATM    3  C1  UNL     1     -25.710   3.471  28.209  1.00  0.00     0.342 C 
HETATM    4  O1  UNL     1     -24.759   3.888  28.981  1.00  0.00    -0.245 OA
HETATM    5  N3  UNL     1     -26.522   2.478  28.729  1.00  0.00    -0.259 N 
ATOM      6  H3  UNL     1     -26.302   2.154  29.670  1.00  0.00     0.175 HD
HETATM    7  C2  UNL     1     -27.662   1.847  28.068  1.00  0.00     0.330 C 
HETATM    8  O2  UNL     1     -28.180   0.974  28.851  1.00  0.00    -0.246 OA
HETATM    9  N4  UNL     1     -28.036   2.214  26.793  1.00  0.00    -0.275 N 
ATOM     10  H4  UNL     1     -27.682   2.930  26.159  1.00  0.00     0.173 HD
HETATM   11  C3  UNL     1     -29.303   1.057  26.631  1.00  0.00     0.292 C 
HETATM   12  O3  UNL     1     -29.445   0.375  27.525  1.00  0.00    -0.268 OA
ENDROOT
BRANCH  11  13
HETATM   13  C4  UNL     1     -29.936   1.203  25.346  1.00  0.00     0.387 A 
HETATM   14  C5  UNL     1     -31.463   1.358  25.461  1.00  0.00     0.316 A 
HETATM   15  N6  UNL     1     -30.624   2.433  25.007  1.00  0.00    -0.025 N 
ATOM     16  H62 UNL     1     -30.509   3.397  25.321  1.00  0.00     0.281 HD
ATOM     17  H61 UNL     1     -30.635   3.006  24.163  1.00  0.00     0.281 HD
BRANCH  13  18
HETATM   18  N5  UNL     1     -29.521   0.362  24.213  1.00  0.00    -0.034 N 
ATOM     19  H53 UNL     1     -28.511   0.449  24.103  1.00  0.00     0.278 HD
ATOM     20  H52 UNL     1     -29.615  -0.615  24.488  1.00  0.00     0.278 HD
ATOM     21  H51 UNL     1     -29.955   0.480  23.297  1.00  0.00     0.278 HD
ENDBRANCH  13  18
ENDBRANCH  11  13
BRANCH   1  22
HETATM   22  N1  UNL     1     -24.800   5.107  26.665  1.00  0.00    -0.341 N 
ATOM     23  H12 UNL     1     -23.810   4.864  26.623  1.00  0.00     0.177 HD
ATOM     24  H11 UNL     1     -25.124   6.060  26.498  1.00  0.00     0.177 HD
ENDBRANCH   1  22
TORSDOF 3
ENDMDL
MODEL 4
REMARK VINA RESULT: -5.996075246      1.532      5.314
REMARK  3 active torsions:
REMARK  status: ('A' for Active; 'I' for Inactive)
REMARK    1  A    between atoms: N1_1  and  N2_4 
REMARK       I    between atoms: N2_4  and  C1_6 
REMARK       I    between atoms: C1_6  and  N3_8 
REMARK       I    between atoms: N3_8  and  C2_10 
REMARK       I    between atoms: C2_10  and  N4_12 
REMARK       I    between atoms: N4_12  and  C3_14 
REMARK    2  A    between atoms: C3_14  and  C4_16 
REMARK    3  A    between atoms: C4_16  and  N5_17 
ROOT
HETATM    1  N2  UNL     1     -26.651  -0.026  25.159  1.00  0.00    -0.258 N 
ATOM      2  H2  UNL     1     -26.620   0.983  25.012  1.00  0.00     0.191 HD
HETATM    3  C1  UNL     1     -26.224  -0.581  26.368  1.00  0.00     0.342 C 
HETATM    4  O1  UNL     1     -26.318  -1.870  26.427  1.00  0.00    -0.245 OA
HETATM    5  N3  UNL     1     -25.721   0.043  27.496  1.00  0.00    -0.259 N 
ATOM      6  H3  UNL     1     -25.473  -0.561  28.281  1.00  0.00     0.175 HD
HETATM    7  C2  UNL     1     -25.508   1.476  27.680  1.00  0.00     0.330 C 
HETATM    8  O2  UNL     1     -25.024   1.690  28.848  1.00  0.00    -0.246 OA
HETATM    9  N4  UNL     1     -25.815   2.374  26.680  1.00  0.00    -0.275 N 
ATOM     10  H4  UNL     1     -26.156   2.242  25.727  1.00  0.00     0.173 HD
HETATM   11  C3  UNL     1     -25.431   3.793  27.580  1.00  0.00     0.292 C 
HETATM   12  O3  UNL     1     -25.084   3.606  28.643  1.00  0.00    -0.268 OA
ENDROOT
BRANCH  11  13
HETATM   13  C4  UNL     1     -25.641   4.960  26.763  1.00  0.00     0.387 A 
HETATM   14  C5  UNL     1     -24.826   6.171  27.254  1.00  0.00     0.316 A 
HETATM   15  N6  UNL     1     -24.544   5.525  26.001  1.00  0.00    -0.025 N 
ATOM     16  H62 UNL     1     -23.694   5.118  25.611  1.00  0.00     0.281 HD
ATOM     17  H61 UNL     1     -24.478   5.874  25.045  1.00  0.00     0.281 HD
BRANCH  13  18
HETATM   18  N5  UNL     1     -26.993   5.316  26.308  1.00  0.00    -0.034 N 
ATOM     19  H53 UNL     1     -27.371   4.529  25.781  1.00  0.00     0.278 HD
ATOM     20  H52 UNL     1     -27.609   5.336  27.120  1.00  0.00     0.278 HD
ATOM     21  H51 UNL     1     -27.149   6.167  25.768  1.00  0.00     0.278 HD
ENDBRANCH  13  18
ENDBRANCH  11  13
BRANCH   1  22
HETATM   22  N1  UNL     1     -27.128  -0.893  24.138  1.00  0.00    -0.341 N 
ATOM     23  H12 UNL     1     -26.791  -0.780  23.182  1.00  0.00     0.177 HD
ATOM     24  H11 UNL     1     -27.804  -1.617  24.384  1.00  0.00     0.177 HD
ENDBRANCH   1  22
TORSDOF 3
ENDMDL
MODEL 5
REMARK VINA RESULT: -5.925886024      1.962      2.247
REMARK  3 active torsions:
REMARK  status: ('A' for Active; 'I' for Inactive)
REMARK    1  A    between atoms: N1_1  and  N2_4 
REMARK       I    between atoms: N2_4  and  C1_6 
REMARK       I    between atoms: C1_6  and  N3_8 
REMARK       I    between atoms: N3_8  and  C2_10 
REMARK       I    between atoms: C2_10  and  N4_12 
REMARK       I    between atoms: N4_12  and  C3_14 
REMARK    2  A    between atoms: C3_14  and  C4_16 
REMARK    3  A    between atoms: C4_16  and  N5_17 
ROOT
HETATM    1  N2  UNL     1     -25.920   3.562  27.430  1.00  0.00    -0.258 N 
ATOM      2  H2  UNL     1     -26.787   3.482  26.897  1.00  0.00     0.191 HD
HETATM    3  C1  UNL     1     -25.293   2.423  27.941  1.00  0.00     0.342 C 
HETATM    4  O1  UNL     1     -24.202   2.661  28.593  1.00  0.00    -0.245 OA
HETATM    5  N3  UNL     1     -25.668   1.094  27.851  1.00  0.00    -0.259 N 
ATOM      6  H3  UNL     1     -25.053   0.414  28.298  1.00  0.00     0.175 HD
HETATM    7  C2  UNL     1     -26.853   0.564  27.182  1.00  0.00     0.330 C 
HETATM    8  O2  UNL     1     -26.880  -0.712  27.306  1.00  0.00    -0.246 OA
HETATM    9  N4  UNL     1     -27.744   1.403  26.546  1.00  0.00    -0.275 N 
ATOM     10  H4  UNL     1     -27.785   2.419  26.465  1.00  0.00     0.173 HD
HETATM   11  C3  UNL     1     -28.767   0.157  25.935  1.00  0.00     0.292 C 
HETATM   12  O3  UNL     1     -28.440  -0.898  26.189  1.00  0.00    -0.268 OA
ENDROOT
BRANCH  11  13
HETATM   13  C4  UNL     1     -29.860   0.740  25.201  1.00  0.00     0.387 A 
HETATM   14  C5  UNL     1     -29.886   0.283  23.731  1.00  0.00     0.316 A 
HETATM   15  N6  UNL     1     -30.910  -0.103  24.663  1.00  0.00    -0.025 N 
ATOM     16  H62 UNL     1     -31.278  -1.011  24.946  1.00  0.00     0.281 HD
ATOM     17  H61 UNL     1     -31.926  -0.012  24.647  1.00  0.00     0.281 HD
BRANCH  13  18
HETATM   18  N5  UNL     1     -30.198   2.161  25.373  1.00  0.00    -0.034 N 
ATOM     19  H53 UNL     1     -30.098   2.396  26.360  1.00  0.00     0.278 HD
ATOM     20  H52 UNL     1     -29.457   2.720  24.951  1.00  0.00     0.278 HD
ATOM     21  H51 UNL     1     -31.095   2.521  25.047  1.00  0.00     0.278 HD
ENDBRANCH  13  18
ENDBRANCH  11  13
BRANCH   1  22
HETATM   22  N1  UNL     1     -25.330   4.834  27.665  1.00  0.00    -0.341 N 
ATOM     23  H12 UNL     1     -24.679   5.222  26.982  1.00  0.00     0.177 HD
ATOM     24  H11 UNL     1     -25.571   5.338  28.519  1.00  0.00     0.177 HD
ENDBRANCH   1  22
TORSDOF 3
ENDMDL
