MODEL 1
REMARK VINA RESULT: -6.078393603      0.000      0.000
REMARK  5 active torsions:
REMARK  status: ('A' for Active; 'I' for Inactive)
REMARK    1  A    between atoms: N1_1  and  N2_4 
REMARK       I    between atoms: N2_4  and  C1_6 
REMARK       I    between atoms: C1_6  and  N3_8 
REMARK    2  A    between atoms: N3_8  and  C2_10 
REMARK    3  A    between atoms: C2_10  and  C3_11 
REMARK    4  A    between atoms: C2_10  and  C4_14 
REMARK       I    between atoms: C4_14  and  N5_16 
REMARK    5  A    between atoms: N5_16  and  N6_18 
ROOT
HETATM    1  C2  UNL     1     -25.843   1.927  27.523  1.00  0.00     0.269 C 
ENDROOT
BRANCH   1   2
HETATM    2  N3  UNL     1     -26.540   1.260  26.422  1.00  0.00    -0.321 N 
HETATM    3  C1  UNL     1     -26.573  -0.139  26.269  1.00  0.00     0.335 C 
HETATM    4  N2  UNL     1     -27.259  -0.716  25.191  1.00  0.00    -0.258 N 
HETATM    5  O1  UNL     1     -25.992  -0.872  27.092  1.00  0.00    -0.246 OA
ATOM      6  H2  UNL     1     -27.727  -0.098  24.528  1.00  0.00     0.191 HD
ATOM      7  H3  UNL     1     -27.024   1.836  25.735  1.00  0.00     0.165 HD
BRANCH   4   8
HETATM    8  N1  UNL     1     -27.333  -2.093  24.978  1.00  0.00    -0.341 N 
ATOM      9  H12 UNL     1     -26.511  -2.648  25.215  1.00  0.00     0.177 HD
ATOM     10  H11 UNL     1     -28.159  -2.558  24.603  1.00  0.00     0.177 HD
ENDBRANCH   4   8
ENDBRANCH   1   2
BRANCH   1  11
HETATM   11  C3  UNL     1     -26.575   1.717  28.771  1.00  0.00     0.263 C 
HETATM   12  N4  UNL     1     -27.932   2.039  28.935  1.00  0.00    -0.060 NA
HETATM   13  O2  UNL     1     -25.966   1.220  29.761  1.00  0.00    -0.274 OA
ENDBRANCH   1  11
BRANCH   1  14
HETATM   14  C4  UNL     1     -25.665   3.341  27.132  1.00  0.00     0.267 C 
HETATM   15  O3  UNL     1     -24.520   3.898  27.250  1.00  0.00    -0.269 OA
HETATM   16  N5  UNL     1     -26.762   4.070  26.628  1.00  0.00    -0.274 N 
ATOM     17  H5  UNL     1     -27.674   3.623  26.536  1.00  0.00     0.189 HD
BRANCH  16  18
HETATM   18  N6  UNL     1     -26.599   5.396  26.257  1.00  0.00    -0.343 N 
ATOM     19  H62 UNL     1     -26.606   6.117  26.979  1.00  0.00     0.176 HD
ATOM     20  H61 UNL     1     -26.474   5.638  25.274  1.00  0.00     0.176 HD
ENDBRANCH  16  18
ENDBRANCH   1  14
TORSDOF 5
ENDMDL
MODEL 2
REMARK VINA RESULT: -6.016095701      1.951      4.677
REMARK  5 active torsions:
REMARK  status: ('A' for Active; 'I' for Inactive)
REMARK    1  A    between atoms: N1_1  and  N2_4 
REMARK       I    between atoms: N2_4  and  C1_6 
REMARK       I    between atoms: C1_6  and  N3_8 
REMARK    2  A    between atoms: N3_8  and  C2_10 
REMARK    3  A    between atoms: C2_10  and  C3_11 
REMARK    4  A    between atoms: C2_10  and  C4_14 
REMARK       I    between atoms: C4_14  and  N5_16 
REMARK    5  A    between atoms: N5_16  and  N6_18 
ROOT
HETATM    1  C2  UNL     1     -26.889   1.875  27.145  1.00  0.00     0.269 C 
ENDROOT
BRANCH   1   2
HETATM    2  N3  UNL     1     -25.753   2.756  26.870  1.00  0.00    -0.321 N 
HETATM    3  C1  UNL     1     -25.898   4.118  26.542  1.00  0.00     0.335 C 
HETATM    4  N2  UNL     1     -24.768   4.908  26.289  1.00  0.00    -0.258 N 
HETATM    5  O1  UNL     1     -27.033   4.627  26.475  1.00  0.00    -0.246 OA
ATOM      6  H2  UNL     1     -23.848   4.472  26.349  1.00  0.00     0.191 HD
ATOM      7  H3  UNL     1     -24.812   2.365  26.918  1.00  0.00     0.165 HD
BRANCH   4   8
HETATM    8  N1  UNL     1     -24.838   6.262  25.960  1.00  0.00    -0.341 N 
ATOM      9  H12 UNL     1     -25.033   6.918  26.716  1.00  0.00     0.177 HD
ATOM     10  H11 UNL     1     -24.704   6.616  25.013  1.00  0.00     0.177 HD
ENDBRANCH   4   8
ENDBRANCH   1   2
BRANCH   1  11
HETATM   11  C3  UNL     1     -27.165   1.857  28.580  1.00  0.00     0.263 C 
HETATM   12  N4  UNL     1     -26.222   1.464  29.544  1.00  0.00    -0.060 NA
HETATM   13  O2  UNL     1     -28.307   2.212  28.988  1.00  0.00    -0.274 OA
ENDBRANCH   1  11
BRANCH   1  14
HETATM   14  C4  UNL     1     -26.571   0.558  26.551  1.00  0.00     0.267 C 
HETATM   15  O3  UNL     1     -27.220   0.144  25.530  1.00  0.00    -0.269 OA
HETATM   16  N5  UNL     1     -25.552  -0.235  27.116  1.00  0.00    -0.274 N 
ATOM     17  H5  UNL     1     -25.037   0.098  27.932  1.00  0.00     0.189 HD
BRANCH  16  18
HETATM   18  N6  UNL     1     -25.249  -1.469  26.562  1.00  0.00    -0.343 N 
ATOM     19  H62 UNL     1     -25.360  -1.602  25.557  1.00  0.00     0.176 HD
ATOM     20  H61 UNL     1     -24.922  -2.229  27.159  1.00  0.00     0.176 HD
ENDBRANCH  16  18
ENDBRANCH   1  14
TORSDOF 5
ENDMDL
MODEL 3
REMARK VINA RESULT: -5.943915926      1.902      2.534
REMARK  5 active torsions:
REMARK  status: ('A' for Active; 'I' for Inactive)
REMARK    1  A    between atoms: N1_1  and  N2_4 
REMARK       I    between atoms: N2_4  and  C1_6 
REMARK       I    between atoms: C1_6  and  N3_8 
REMARK    2  A    between atoms: N3_8  and  C2_10 
REMARK    3  A    between atoms: C2_10  and  C3_11 
REMARK    4  A    between atoms: C2_10  and  C4_14 
REMARK       I    between atoms: C4_14  and  N5_16 
REMARK    5  A    between atoms: N5_16  and  N6_18 
ROOT
HETATM    1  C2  UNL     1     -25.954   2.084  27.194  1.00  0.00     0.269 C 
ENDROOT
BRANCH   1   2
HETATM    2  N3  UNL     1     -25.693   0.683  27.526  1.00  0.00    -0.321 N 
HETATM    3  C1  UNL     1     -25.857  -0.369  26.606  1.00  0.00     0.335 C 
HETATM    4  N2  UNL     1     -25.589  -1.691  26.987  1.00  0.00    -0.258 N 
HETATM    5  O1  UNL     1     -26.241  -0.129  25.444  1.00  0.00    -0.246 OA
ATOM      6  H2  UNL     1     -25.277  -1.865  27.943  1.00  0.00     0.191 HD
ATOM      7  H3  UNL     1     -25.377   0.459  28.470  1.00  0.00     0.165 HD
BRANCH   4   8
HETATM    8  N1  UNL     1     -25.729  -2.781  26.128  1.00  0.00    -0.341 N 
ATOM      9  H12 UNL     1     -24.911  -3.373  25.987  1.00  0.00     0.177 HD
ATOM     10  H11 UNL     1     -26.599  -3.005  25.644  1.00  0.00     0.177 HD
ENDBRANCH   4   8
ENDBRANCH   1   2
BRANCH   1  11
HETATM   11  C3  UNL     1     -24.952   2.938  27.828  1.00  0.00     0.263 C 
HETATM   12  N4  UNL     1     -24.721   4.271  27.450  1.00  0.00    -0.060 NA
HETATM   13  O2  UNL     1     -24.249   2.464  28.765  1.00  0.00    -0.274 OA
ENDBRANCH   1  11
BRANCH   1  14
HETATM   14  C4  UNL     1     -27.354   2.369  27.578  1.00  0.00     0.267 C 
HETATM   15  O3  UNL     1     -27.746   2.149  28.774  1.00  0.00    -0.269 OA
HETATM   16  N5  UNL     1     -28.251   2.882  26.618  1.00  0.00    -0.274 N 
ATOM     17  H5  UNL     1     -27.935   3.054  25.664  1.00  0.00     0.189 HD
BRANCH  16  18
HETATM   18  N6  UNL     1     -29.563   3.152  26.974  1.00  0.00    -0.343 N 
ATOM     19  H62 UNL     1     -29.936   4.089  26.823  1.00  0.00     0.176 HD
ATOM     20  H61 UNL     1     -30.142   2.416  27.381  1.00  0.00     0.176 HD
ENDBRANCH  16  18
ENDBRANCH   1  14
TORSDOF 5
ENDMDL
MODEL 4
REMARK VINA RESULT: -5.837395663      1.713      4.615
REMARK  5 active torsions:
REMARK  status: ('A' for Active; 'I' for Inactive)
REMARK    1  A    between atoms: N1_1  and  N2_4 
REMARK       I    between atoms: N2_4  and  C1_6 
REMARK       I    between atoms: C1_6  and  N3_8 
REMARK    2  A    between atoms: N3_8  and  C2_10 
REMARK    3  A    between atoms: C2_10  and  C3_11 
REMARK    4  A    between atoms: C2_10  and  C4_14 
REMARK       I    between atoms: C4_14  and  N5_16 
REMARK    5  A    between atoms: N5_16  and  N6_18 
ROOT
HETATM    1  C2  UNL     1     -26.469   0.797  27.295  1.00  0.00     0.269 C 
ENDROOT
BRANCH   1   2
HETATM    2  N3  UNL     1     -26.426   2.057  26.551  1.00  0.00    -0.321 N 
HETATM    3  C1  UNL     1     -25.578   3.126  26.897  1.00  0.00     0.335 C 
HETATM    4  N2  UNL     1     -25.585   4.307  26.143  1.00  0.00    -0.258 N 
HETATM    5  O1  UNL     1     -24.814   3.026  27.877  1.00  0.00    -0.246 OA
ATOM      6  H2  UNL     1     -26.218   4.368  25.345  1.00  0.00     0.191 HD
ATOM      7  H3  UNL     1     -27.040   2.165  25.744  1.00  0.00     0.165 HD
BRANCH   4   8
HETATM    8  N1  UNL     1     -24.772   5.404  26.428  1.00  0.00    -0.341 N 
ATOM      9  H12 UNL     1     -23.926   5.230  26.970  1.00  0.00     0.177 HD
ATOM     10  H11 UNL     1     -24.984   6.353  26.122  1.00  0.00     0.177 HD
ENDBRANCH   4   8
ENDBRANCH   1   2
BRANCH   1  11
HETATM   11  C3  UNL     1     -26.041  -0.302  26.431  1.00  0.00     0.263 C 
HETATM   12  N4  UNL     1     -26.012  -0.218  25.030  1.00  0.00    -0.060 NA
HETATM   13  O2  UNL     1     -25.677  -1.390  26.961  1.00  0.00    -0.274 OA
ENDBRANCH   1  11
BRANCH   1  14
HETATM   14  C4  UNL     1     -27.833   0.665  27.849  1.00  0.00     0.267 C 
HETATM   15  O3  UNL     1     -28.134   1.236  28.952  1.00  0.00    -0.269 OA
HETATM   16  N5  UNL     1     -28.798  -0.094  27.155  1.00  0.00    -0.274 N 
ATOM     17  H5  UNL     1     -28.554  -0.550  26.275  1.00  0.00     0.189 HD
BRANCH  16  18
HETATM   18  N6  UNL     1     -30.080  -0.219  27.669  1.00  0.00    -0.343 N 
ATOM     19  H62 UNL     1     -30.290   0.185  28.582  1.00  0.00     0.176 HD
ATOM     20  H61 UNL     1     -30.797  -0.711  27.135  1.00  0.00     0.176 HD
ENDBRANCH  16  18
ENDBRANCH   1  14
TORSDOF 5
ENDMDL
MODEL 5
REMARK VINA RESULT: -5.769157651      2.143      2.271
REMARK  5 active torsions:
REMARK  status: ('A' for Active; 'I' for Inactive)
REMARK    1  A    between atoms: N1_1  and  N2_4 
REMARK       I    between atoms: N2_4  and  C1_6 
REMARK       I    between atoms: C1_6  and  N3_8 
REMARK    2  A    between atoms: N3_8  and  C2_10 
REMARK    3  A    between atoms: C2_10  and  C3_11 
REMARK    4  A    between atoms: C2_10  and  C4_14 
REMARK       I    between atoms: C4_14  and  N5_16 
REMARK    5  A    between atoms: N5_16  and  N6_18 
ROOT
HETATM    1  C2  UNL     1     -26.171   2.747  27.078  1.00  0.00     0.269 C 
ENDROOT
BRANCH   1   2
HETATM    2  N3  UNL     1     -27.608   2.473  27.126  1.00  0.00    -0.321 N 
HETATM    3  C1  UNL     1     -28.172   1.252  26.708  1.00  0.00     0.335 C 
HETATM    4  N2  UNL     1     -29.557   1.052  26.779  1.00  0.00    -0.258 N 
HETATM    5  O1  UNL     1     -27.440   0.342  26.273  1.00  0.00    -0.246 OA
ATOM      6  H2  UNL     1     -30.138   1.810  27.138  1.00  0.00     0.191 HD
ATOM      7  H3  UNL     1     -28.229   3.200  27.478  1.00  0.00     0.165 HD
BRANCH   4   8
HETATM    8  N1  UNL     1     -30.183  -0.130  26.383  1.00  0.00    -0.341 N 
ATOM      9  H12 UNL     1     -31.194  -0.103  26.251  1.00  0.00     0.177 HD
ATOM     10  H11 UNL     1     -29.681  -1.003  26.224  1.00  0.00     0.177 HD
ENDBRANCH   4   8
ENDBRANCH   1   2
BRANCH   1  11
HETATM   11  C3  UNL     1     -25.558   2.393  28.357  1.00  0.00     0.263 C 
HETATM   12  N4  UNL     1     -26.262   1.790  29.412  1.00  0.00    -0.060 NA
HETATM   13  O2  UNL     1     -24.331   2.639  28.536  1.00  0.00    -0.274 OA
ENDBRANCH   1  11
BRANCH   1  14
HETATM   14  C4  UNL     1     -26.011   4.160  26.675  1.00  0.00     0.267 C 
HETATM   15  O3  UNL     1     -27.035   4.851  26.347  1.00  0.00    -0.269 OA
HETATM   16  N5  UNL     1     -24.725   4.740  26.656  1.00  0.00    -0.274 N 
ATOM     17  H5  UNL     1     -23.910   4.185  26.918  1.00  0.00     0.189 HD
BRANCH  16  18
HETATM   18  N6  UNL     1     -24.571   6.065  26.281  1.00  0.00    -0.343 N 
ATOM     19  H62 UNL     1     -24.505   6.296  25.289  1.00  0.00     0.176 HD
ATOM     20  H61 UNL     1     -24.524   6.794  26.993  1.00  0.00     0.176 HD
ENDBRANCH  16  18
ENDBRANCH   1  14
TORSDOF 5
ENDMDL
