MODEL 1
REMARK VINA RESULT: -7.042627570      0.000      0.000
REMARK  6 active torsions:
REMARK  status: ('A' for Active; 'I' for Inactive)
REMARK    1  A    between atoms: N1_1  and  S1_4 
REMARK    2  A    between atoms: S1_4  and  N2_6 
REMARK    3  A    between atoms: S1_4  and  N7_17 
REMARK    4  A    between atoms: N2_6  and  C1_8 
REMARK       I    between atoms: N7_17  and  C2_19 
REMARK       I    between atoms: C2_19  and  N9_24 
REMARK    5  A    between atoms: N8_20  and  O2_22 
REMARK    6  A    between atoms: N9_24  and  O3_26 
ROOT
HETATM    1  S1  UNL     1     -14.492 -20.304  46.886  1.00  0.00     0.224 S 
HETATM    2  O1  UNL     1     -15.584 -19.360  46.499  1.00  0.00    -0.205 OA
ENDROOT
BRANCH   1   3
HETATM    3  N1  UNL     1     -13.421 -20.432  45.513  1.00  0.00    -0.327 N 
ATOM      4  H12 UNL     1     -13.409 -19.808  44.707  1.00  0.00     0.169 HD
ATOM      5  H11 UNL     1     -12.823 -21.241  45.678  1.00  0.00     0.169 HD
ENDBRANCH   1   3
BRANCH   1   6
HETATM    6  N2  UNL     1     -13.562 -19.755  48.208  1.00  0.00    -0.114 N 
ATOM      7  H2  UNL     1     -14.051 -19.370  49.016  1.00  0.00     0.197 HD
BRANCH   6   8
HETATM    8  C1  UNL     1     -12.267 -19.802  48.238  1.00  0.00     0.723 A 
HETATM    9  N3  UNL     1     -11.454 -20.749  48.733  1.00  0.00    -0.114 N 
HETATM   10  N4  UNL     1     -10.213 -20.341  48.527  1.00  0.00    -0.213 N 
ATOM     11  H3  UNL     1     -11.740 -21.619  49.182  1.00  0.00     0.207 HD
HETATM   12  N5  UNL     1     -10.214 -19.170  47.920  1.00  0.00    -0.213 N 
ATOM     13  H4  UNL     1      -9.376 -20.857  48.800  1.00  0.00     0.210 HD
HETATM   14  N6  UNL     1     -11.470 -18.841  47.744  1.00  0.00    -0.114 N 
ATOM     15  H5  UNL     1      -9.396 -18.627  47.642  1.00  0.00     0.210 HD
ATOM     16  H6  UNL     1     -11.794 -17.983  47.298  1.00  0.00     0.207 HD
ENDBRANCH   6   8
ENDBRANCH   1   6
BRANCH   1  17
HETATM   17  N7  UNL     1     -15.119 -21.715  47.137  1.00  0.00    -0.113 N 
HETATM   18  C2  UNL     1     -14.372 -22.848  46.752  1.00  0.00     0.731 C 
HETATM   19  N8  UNL     1     -13.511 -23.355  47.548  1.00  0.00    -0.096 N 
HETATM   20  N9  UNL     1     -14.578 -23.422  45.481  1.00  0.00    -0.096 N 
ATOM     21  H8  UNL     1     -13.395 -22.907  48.457  1.00  0.00     0.213 HD
ATOM     22  H9  UNL     1     -13.770 -23.823  45.005  1.00  0.00     0.213 HD
ATOM     23  H7  UNL     1     -16.039 -21.813  47.567  1.00  0.00     0.197 HD
BRANCH  19  24
HETATM   24  O2  UNL     1     -12.739 -24.437  47.289  1.00  0.00    -0.276 OA
ATOM     25  H2  UNL     1     -12.992 -25.343  47.425  1.00  0.00     0.245 HD
ENDBRANCH  19  24
BRANCH  20  26
HETATM   26  O3  UNL     1     -15.770 -23.478  44.849  1.00  0.00    -0.276 OA
ATOM     27  H3  UNL     1     -15.998 -22.967  44.082  1.00  0.00     0.245 HD
ENDBRANCH  20  26
ENDBRANCH   1  17
TORSDOF 6
ENDMDL
MODEL 2
REMARK VINA RESULT: -7.021312424      2.224      5.095
REMARK  6 active torsions:
REMARK  status: ('A' for Active; 'I' for Inactive)
REMARK    1  A    between atoms: N1_1  and  S1_4 
REMARK    2  A    between atoms: S1_4  and  N2_6 
REMARK    3  A    between atoms: S1_4  and  N7_17 
REMARK    4  A    between atoms: N2_6  and  C1_8 
REMARK       I    between atoms: N7_17  and  C2_19 
REMARK       I    between atoms: C2_19  and  N9_24 
REMARK    5  A    between atoms: N8_20  and  O2_22 
REMARK    6  A    between atoms: N9_24  and  O3_26 
ROOT
HETATM    1  S1  UNL     1     -13.863 -20.270  46.945  1.00  0.00     0.224 S 
HETATM    2  O1  UNL     1     -13.473 -19.580  45.679  1.00  0.00    -0.205 OA
ENDROOT
BRANCH   1   3
HETATM    3  N1  UNL     1     -15.546 -19.902  47.228  1.00  0.00    -0.327 N 
ATOM      4  H12 UNL     1     -15.943 -19.564  48.105  1.00  0.00     0.169 HD
ATOM      5  H11 UNL     1     -16.041 -20.088  46.357  1.00  0.00     0.169 HD
ENDBRANCH   1   3
BRANCH   1   6
HETATM    6  N2  UNL     1     -13.722 -21.970  46.857  1.00  0.00    -0.114 N 
ATOM      7  H2  UNL     1     -13.134 -22.442  47.543  1.00  0.00     0.197 HD
BRANCH   6   8
HETATM    8  C1  UNL     1     -14.324 -22.691  45.963  1.00  0.00     0.723 A 
HETATM    9  N3  UNL     1     -13.818 -23.336  44.900  1.00  0.00    -0.114 N 
HETATM   10  N4  UNL     1     -14.830 -23.932  44.291  1.00  0.00    -0.213 N 
ATOM     11  H3  UNL     1     -12.840 -23.362  44.615  1.00  0.00     0.207 HD
HETATM   12  N5  UNL     1     -15.956 -23.686  44.933  1.00  0.00    -0.213 N 
ATOM     13  H4  UNL     1     -14.752 -24.499  43.446  1.00  0.00     0.210 HD
HETATM   14  N6  UNL     1     -15.645 -22.927  45.955  1.00  0.00    -0.114 N 
ATOM     15  H5  UNL     1     -16.887 -24.021  44.683  1.00  0.00     0.210 HD
ATOM     16  H6  UNL     1     -16.309 -22.569  46.642  1.00  0.00     0.207 HD
ENDBRANCH   6   8
ENDBRANCH   1   6
BRANCH   1  17
HETATM   17  N7  UNL     1     -13.034 -19.660  48.122  1.00  0.00    -0.113 N 
HETATM   18  C2  UNL     1     -11.630 -19.788  48.076  1.00  0.00     0.731 C 
HETATM   19  N8  UNL     1     -10.923 -18.927  47.450  1.00  0.00    -0.096 N 
HETATM   20  N9  UNL     1     -11.005 -20.872  48.724  1.00  0.00    -0.096 N 
ATOM     21  H8  UNL     1     -11.417 -18.159  46.996  1.00  0.00     0.213 HD
ATOM     22  H9  UNL     1     -10.171 -21.268  48.290  1.00  0.00     0.213 HD
ATOM     23  H7  UNL     1     -13.493 -19.184  48.898  1.00  0.00     0.197 HD
BRANCH  19  24
HETATM   24  O2  UNL     1      -9.573 -18.946  47.338  1.00  0.00    -0.276 OA
ATOM     25  H2  UNL     1      -9.069 -19.564  46.821  1.00  0.00     0.245 HD
ENDBRANCH  19  24
BRANCH  20  26
HETATM   26  O3  UNL     1     -11.432 -21.424  49.880  1.00  0.00    -0.276 OA
ATOM     27  H3  UNL     1     -11.321 -22.338  50.114  1.00  0.00     0.245 HD
ENDBRANCH  20  26
ENDBRANCH   1  17
TORSDOF 6
ENDMDL
MODEL 3
REMARK VINA RESULT: -6.978737589      1.618      2.243
REMARK  6 active torsions:
REMARK  status: ('A' for Active; 'I' for Inactive)
REMARK    1  A    between atoms: N1_1  and  S1_4 
REMARK    2  A    between atoms: S1_4  and  N2_6 
REMARK    3  A    between atoms: S1_4  and  N7_17 
REMARK    4  A    between atoms: N2_6  and  C1_8 
REMARK       I    between atoms: N7_17  and  C2_19 
REMARK       I    between atoms: C2_19  and  N9_24 
REMARK    5  A    between atoms: N8_20  and  O2_22 
REMARK    6  A    between atoms: N9_24  and  O3_26 
ROOT
HETATM    1  S1  UNL     1     -12.957 -19.912  46.876  1.00  0.00     0.224 S 
HETATM    2  O1  UNL     1     -13.872 -19.085  47.719  1.00  0.00    -0.205 OA
ENDROOT
BRANCH   1   3
HETATM    3  N1  UNL     1     -12.326 -18.863  45.632  1.00  0.00    -0.327 N 
ATOM      4  H12 UNL     1     -11.801 -18.002  45.787  1.00  0.00     0.169 HD
ATOM      5  H11 UNL     1     -12.583 -19.277  44.736  1.00  0.00     0.169 HD
ENDBRANCH   1   3
BRANCH   1   6
HETATM    6  N2  UNL     1     -11.623 -20.535  47.741  1.00  0.00    -0.114 N 
ATOM      7  H2  UNL     1     -11.399 -21.524  47.636  1.00  0.00     0.197 HD
BRANCH   6   8
HETATM    8  C1  UNL     1     -10.882 -19.817  48.525  1.00  0.00     0.723 A 
HETATM    9  N3  UNL     1     -10.428 -20.084  49.760  1.00  0.00    -0.114 N 
HETATM   10  N4  UNL     1      -9.711 -19.041  50.144  1.00  0.00    -0.213 N 
ATOM     11  H3  UNL     1     -10.603 -20.931  50.300  1.00  0.00     0.207 HD
HETATM   12  N5  UNL     1      -9.695 -18.125  49.195  1.00  0.00    -0.213 N 
ATOM     13  H4  UNL     1      -9.239 -18.956  51.045  1.00  0.00     0.210 HD
HETATM   14  N6  UNL     1     -10.412 -18.600  48.205  1.00  0.00    -0.114 N 
ATOM     15  H5  UNL     1      -9.219 -17.223  49.225  1.00  0.00     0.210 HD
ATOM     16  H6  UNL     1     -10.586 -18.118  47.324  1.00  0.00     0.207 HD
ENDBRANCH   6   8
ENDBRANCH   1   6
BRANCH   1  17
HETATM   17  N7  UNL     1     -13.796 -21.032  46.179  1.00  0.00    -0.113 N 
HETATM   18  C2  UNL     1     -14.558 -21.892  46.998  1.00  0.00     0.731 C 
HETATM   19  N8  UNL     1     -15.740 -21.564  47.355  1.00  0.00    -0.096 N 
HETATM   20  N9  UNL     1     -14.011 -23.119  47.422  1.00  0.00    -0.096 N 
ATOM     21  H8  UNL     1     -16.096 -20.667  47.024  1.00  0.00     0.213 HD
ATOM     22  H9  UNL     1     -14.263 -23.454  48.352  1.00  0.00     0.213 HD
ATOM     23  H7  UNL     1     -13.794 -21.138  45.164  1.00  0.00     0.197 HD
BRANCH  19  24
HETATM   24  O2  UNL     1     -16.562 -22.305  48.135  1.00  0.00    -0.276 OA
ATOM     25  H2  UNL     1     -17.058 -21.983  48.880  1.00  0.00     0.245 HD
ENDBRANCH  19  24
BRANCH  20  26
HETATM   26  O3  UNL     1     -13.176 -23.883  46.685  1.00  0.00    -0.276 OA
ATOM     27  H3  UNL     1     -12.266 -24.048  46.900  1.00  0.00     0.245 HD
ENDBRANCH  20  26
ENDBRANCH   1  17
TORSDOF 6
ENDMDL
MODEL 4
REMARK VINA RESULT: -6.957827733      2.137      5.254
REMARK  6 active torsions:
REMARK  status: ('A' for Active; 'I' for Inactive)
REMARK    1  A    between atoms: N1_1  and  S1_4 
REMARK    2  A    between atoms: S1_4  and  N2_6 
REMARK    3  A    between atoms: S1_4  and  N7_17 
REMARK    4  A    between atoms: N2_6  and  C1_8 
REMARK       I    between atoms: N7_17  and  C2_19 
REMARK       I    between atoms: C2_19  and  N9_24 
REMARK    5  A    between atoms: N8_20  and  O2_22 
REMARK    6  A    between atoms: N9_24  and  O3_26 
ROOT
HETATM    1  S1  UNL     1     -13.098 -22.015  47.723  1.00  0.00     0.224 S 
HETATM    2  O1  UNL     1     -14.446 -22.150  48.352  1.00  0.00    -0.205 OA
ENDROOT
BRANCH   1   3
HETATM    3  N1  UNL     1     -12.036 -23.122  48.555  1.00  0.00    -0.327 N 
ATOM      4  H12 UNL     1     -11.336 -23.721  48.117  1.00  0.00     0.169 HD
ATOM      5  H11 UNL     1     -12.252 -23.050  49.549  1.00  0.00     0.169 HD
ENDBRANCH   1   3
BRANCH   1   6
HETATM    6  N2  UNL     1     -13.081 -22.440  46.069  1.00  0.00    -0.114 N 
ATOM      7  H2  UNL     1     -12.233 -22.260  45.532  1.00  0.00     0.197 HD
BRANCH   6   8
HETATM    8  C1  UNL     1     -14.091 -22.978  45.460  1.00  0.00     0.723 A 
HETATM    9  N3  UNL     1     -15.385 -23.018  45.815  1.00  0.00    -0.114 N 
HETATM   10  N4  UNL     1     -16.027 -23.681  44.867  1.00  0.00    -0.213 N 
ATOM     11  H3  UNL     1     -15.796 -22.614  46.656  1.00  0.00     0.207 HD
HETATM   12  N5  UNL     1     -15.184 -24.060  43.926  1.00  0.00    -0.213 N 
ATOM     13  H4  UNL     1     -17.029 -23.873  44.865  1.00  0.00     0.210 HD
HETATM   14  N6  UNL     1     -14.000 -23.630  44.290  1.00  0.00    -0.114 N 
ATOM     15  H5  UNL     1     -15.408 -24.585  43.081  1.00  0.00     0.210 HD
ATOM     16  H6  UNL     1     -13.139 -23.770  43.762  1.00  0.00     0.207 HD
ENDBRANCH   6   8
ENDBRANCH   1   6
BRANCH   1  17
HETATM   17  N7  UNL     1     -12.572 -20.565  47.975  1.00  0.00    -0.113 N 
HETATM   18  C2  UNL     1     -13.235 -19.500  47.329  1.00  0.00     0.731 C 
HETATM   19  N8  UNL     1     -14.263 -18.961  47.862  1.00  0.00    -0.096 N 
HETATM   20  N9  UNL     1     -12.759 -19.030  46.088  1.00  0.00    -0.096 N 
ATOM     21  H8  UNL     1     -14.572 -19.333  48.761  1.00  0.00     0.213 HD
ATOM     22  H9  UNL     1     -13.447 -18.704  45.409  1.00  0.00     0.213 HD
ATOM     23  H7  UNL     1     -11.774 -20.393  48.588  1.00  0.00     0.197 HD
BRANCH  19  24
HETATM   24  O2  UNL     1     -14.978 -17.937  47.338  1.00  0.00    -0.276 OA
ATOM     25  H2  UNL     1     -15.542 -17.348  47.827  1.00  0.00     0.245 HD
ENDBRANCH  19  24
BRANCH  20  26
HETATM   26  O3  UNL     1     -11.457 -18.980  45.736  1.00  0.00    -0.276 OA
ATOM     27  H3  UNL     1     -10.874 -18.255  45.925  1.00  0.00     0.245 HD
ENDBRANCH  20  26
ENDBRANCH   1  17
TORSDOF 6
ENDMDL
MODEL 5
REMARK VINA RESULT: -6.955950755      2.253      3.899
REMARK  6 active torsions:
REMARK  status: ('A' for Active; 'I' for Inactive)
REMARK    1  A    between atoms: N1_1  and  S1_4 
REMARK    2  A    between atoms: S1_4  and  N2_6 
REMARK    3  A    between atoms: S1_4  and  N7_17 
REMARK    4  A    between atoms: N2_6  and  C1_8 
REMARK       I    between atoms: N7_17  and  C2_19 
REMARK       I    between atoms: C2_19  and  N9_24 
REMARK    5  A    between atoms: N8_20  and  O2_22 
REMARK    6  A    between atoms: N9_24  and  O3_26 
ROOT
HETATM    1  S1  UNL     1     -11.573 -20.445  48.619  1.00  0.00     0.224 S 
HETATM    2  O1  UNL     1     -11.932 -21.808  48.123  1.00  0.00    -0.205 OA
ENDROOT
BRANCH   1   3
HETATM    3  N1  UNL     1     -11.651 -20.502  50.362  1.00  0.00    -0.327 N 
ATOM      4  H12 UNL     1     -12.503 -20.567  50.919  1.00  0.00     0.169 HD
ATOM      5  H11 UNL     1     -10.691 -20.457  50.704  1.00  0.00     0.169 HD
ENDBRANCH   1   3
BRANCH   1   6
HETATM    6  N2  UNL     1      -9.989 -19.969  48.195  1.00  0.00    -0.114 N 
ATOM      7  H2  UNL     1      -9.394 -20.643  47.714  1.00  0.00     0.197 HD
BRANCH   6   8
HETATM    8  C1  UNL     1      -9.503 -18.796  48.454  1.00  0.00     0.723 A 
HETATM    9  N3  UNL     1      -9.901 -17.881  49.353  1.00  0.00    -0.114 N 
HETATM   10  N4  UNL     1      -9.088 -16.844  49.238  1.00  0.00    -0.213 N 
ATOM     11  H3  UNL     1     -10.683 -17.969  50.002  1.00  0.00     0.207 HD
HETATM   12  N5  UNL     1      -8.190 -17.072  48.298  1.00  0.00    -0.213 N 
ATOM     13  H4  UNL     1      -9.148 -15.991  49.794  1.00  0.00     0.210 HD
HETATM   14  N6  UNL     1      -8.446 -18.266  47.820  1.00  0.00    -0.114 N 
ATOM     15  H5  UNL     1      -7.444 -16.443  48.002  1.00  0.00     0.210 HD
ATOM     16  H6  UNL     1      -7.919 -18.723  47.076  1.00  0.00     0.207 HD
ENDBRANCH   6   8
ENDBRANCH   1   6
BRANCH   1  17
HETATM   17  N7  UNL     1     -12.657 -19.433  48.123  1.00  0.00    -0.113 N 
HETATM   18  C2  UNL     1     -13.557 -19.864  47.126  1.00  0.00     0.731 C 
HETATM   19  N8  UNL     1     -14.628 -20.482  47.446  1.00  0.00    -0.096 N 
HETATM   20  N9  UNL     1     -13.270 -19.611  45.769  1.00  0.00    -0.096 N 
ATOM     21  H8  UNL     1     -14.794 -20.644  48.440  1.00  0.00     0.213 HD
ATOM     22  H9  UNL     1     -13.556 -20.312  45.086  1.00  0.00     0.213 HD
ATOM     23  H7  UNL     1     -12.712 -18.490  48.509  1.00  0.00     0.197 HD
BRANCH  19  24
HETATM   24  O2  UNL     1     -15.562 -20.942  46.580  1.00  0.00    -0.276 OA
ATOM     25  H2  UNL     1     -15.792 -21.854  46.448  1.00  0.00     0.245 HD
ENDBRANCH  19  24
BRANCH  20  26
HETATM   26  O3  UNL     1     -12.644 -18.506  45.311  1.00  0.00    -0.276 OA
ATOM     27  H3  UNL     1     -13.028 -17.638  45.292  1.00  0.00     0.245 HD
ENDBRANCH  20  26
ENDBRANCH   1  17
TORSDOF 6
ENDMDL
