MODEL 1
REMARK VINA RESULT: -5.510950861      0.000      0.000
REMARK  2 active torsions:
REMARK  status: ('A' for Active; 'I' for Inactive)
REMARK    1  A    between atoms: C1_2  and  C2_4 
REMARK    2  A    between atoms: C2_4  and  N2_5 
ROOT
HETATM    1  C2  UNL     1     -13.693 -20.348  46.751  1.00  0.00     0.330 C 
HETATM    2  N3  UNL     1     -12.590 -19.984  47.560  1.00  0.00    -0.251 N 
ATOM      3  H3  UNL     1     -12.239 -19.029  47.494  1.00  0.00     0.177 HD
HETATM    4  S1  UNL     1     -11.843 -21.023  48.602  1.00  0.00     0.360 S 
HETATM    5  O2  UNL     1     -12.285 -20.743  50.033  1.00  0.00    -0.176 OA
HETATM    6  O3  UNL     1     -10.346 -20.946  48.491  1.00  0.00    -0.176 OA
HETATM    7  O4  UNL     1     -12.280 -22.642  48.316  1.00  0.00    -0.255 OA
HETATM    8  C3  UNL     1     -13.635 -22.540  48.044  1.00  0.00     0.251 C 
HETATM    9  C4  UNL     1     -13.830 -21.874  46.731  1.00  0.00     0.197 C 
HETATM   10  N4  UNL     1     -15.050 -22.378  46.135  1.00  0.00    -0.310 N 
ATOM     11  H4  UNL     1     -16.032 -22.106  46.091  1.00  0.00     0.167 HD
HETATM   12  C5  UNL     1     -14.214 -23.458  45.628  1.00  0.00     0.320 C 
HETATM   13  O5  UNL     1     -14.311 -24.678  45.323  1.00  0.00    -0.247 OA
HETATM   14  N5  UNL     1     -13.184 -22.478  45.604  1.00  0.00    -0.310 N 
ATOM     15  H5  UNL     1     -12.357 -22.289  45.038  1.00  0.00     0.167 HD
ENDROOT
BRANCH   1  16
HETATM   16  C1  UNL     1     -14.930 -19.754  47.401  1.00  0.00     0.293 C 
HETATM   17  N1  UNL     1     -14.895 -18.288  47.374  1.00  0.00    -0.058 NA
HETATM   18  O1  UNL     1     -15.862 -20.303  47.904  1.00  0.00    -0.272 OA
ENDBRANCH   1  16
BRANCH   1  19
HETATM   19  N2  UNL     1     -13.590 -19.858  45.431  1.00  0.00    -0.039 N 
ATOM     20  H23 UNL     1     -13.738 -20.587  44.732  1.00  0.00     0.278 HD
ATOM     21  H22 UNL     1     -14.375 -19.257  45.176  1.00  0.00     0.278 HD
ATOM     22  H21 UNL     1     -12.691 -19.390  45.321  1.00  0.00     0.278 HD
ENDBRANCH   1  19
TORSDOF 2
ENDMDL
MODEL 2
REMARK VINA RESULT: -5.067039594      5.755      7.554
REMARK  2 active torsions:
REMARK  status: ('A' for Active; 'I' for Inactive)
REMARK    1  A    between atoms: C1_2  and  C2_4 
REMARK    2  A    between atoms: C2_4  and  N2_5 
ROOT
HETATM    1  C2  UNL     1      -9.037 -18.325  49.781  1.00  0.00     0.330 C 
HETATM    2  N3  UNL     1      -9.631 -18.664  51.020  1.00  0.00    -0.251 N 
ATOM      3  H3  UNL     1     -10.623 -18.463  51.150  1.00  0.00     0.177 HD
HETATM    4  S1  UNL     1      -8.807 -19.367  52.265  1.00  0.00     0.360 S 
HETATM    5  O2  UNL     1      -9.119 -20.857  52.330  1.00  0.00    -0.176 OA
HETATM    6  O3  UNL     1      -9.113 -18.709  53.581  1.00  0.00    -0.176 OA
HETATM    7  O4  UNL     1      -7.122 -19.281  52.046  1.00  0.00    -0.255 OA
HETATM    8  C3  UNL     1      -6.985 -19.528  50.689  1.00  0.00     0.251 C 
HETATM    9  C4  UNL     1      -7.511 -18.373  49.918  1.00  0.00     0.197 C 
HETATM   10  N4  UNL     1      -6.776 -18.277  48.674  1.00  0.00    -0.310 N 
ATOM     11  H4  UNL     1      -6.884 -18.596  47.711  1.00  0.00     0.167 HD
HETATM   12  C5  UNL     1      -5.808 -17.507  49.446  1.00  0.00     0.320 C 
HETATM   13  O5  UNL     1      -4.568 -17.273  49.461  1.00  0.00    -0.247 OA
HETATM   14  N5  UNL     1      -6.936 -17.094  50.206  1.00  0.00    -0.310 N 
ATOM     15  H5  UNL     1      -7.211 -16.260  50.725  1.00  0.00     0.167 HD
ENDROOT
BRANCH   1  16
HETATM   16  C1  UNL     1      -9.472 -19.380  48.780  1.00  0.00     0.293 C 
HETATM   17  N1  UNL     1      -9.490 -18.843  47.415  1.00  0.00    -0.058 NA
HETATM   18  O1  UNL     1      -9.788 -20.516  48.962  1.00  0.00    -0.272 OA
ENDBRANCH   1  16
BRANCH   1  19
HETATM   19  N2  UNL     1      -9.437 -17.055  49.311  1.00  0.00    -0.039 N 
ATOM     20  H23 UNL     1     -10.195 -16.656  49.864  1.00  0.00     0.278 HD
ATOM     21  H22 UNL     1      -8.737 -16.335  49.490  1.00  0.00     0.278 HD
ATOM     22  H21 UNL     1      -9.673 -17.129  48.321  1.00  0.00     0.278 HD
ENDBRANCH   1  19
TORSDOF 2
ENDMDL
MODEL 3
REMARK VINA RESULT: -4.999607390      6.949      8.301
REMARK  2 active torsions:
REMARK  status: ('A' for Active; 'I' for Inactive)
REMARK    1  A    between atoms: C1_2  and  C2_4 
REMARK    2  A    between atoms: C2_4  and  N2_5 
ROOT
HETATM    1  C2  UNL     1      -7.552 -19.009  49.650  1.00  0.00     0.330 C 
HETATM    2  N3  UNL     1      -6.147 -19.176  49.690  1.00  0.00    -0.251 N 
ATOM      3  H3  UNL     1      -5.731 -19.895  49.099  1.00  0.00     0.177 HD
HETATM    4  S1  UNL     1      -5.148 -18.270  50.642  1.00  0.00     0.360 S 
HETATM    5  O2  UNL     1      -4.448 -17.205  49.807  1.00  0.00    -0.176 OA
HETATM    6  O3  UNL     1      -4.139 -19.120  51.361  1.00  0.00    -0.176 OA
HETATM    7  O4  UNL     1      -6.006 -17.405  51.829  1.00  0.00    -0.255 OA
HETATM    8  C3  UNL     1      -7.130 -16.985  51.136  1.00  0.00     0.251 C 
HETATM    9  C4  UNL     1      -7.998 -18.154  50.841  1.00  0.00     0.197 C 
HETATM   10  N4  UNL     1      -9.375 -17.707  50.801  1.00  0.00    -0.310 N 
ATOM     11  H4  UNL     1     -10.044 -17.401  50.095  1.00  0.00     0.167 HD
HETATM   12  C5  UNL     1      -9.354 -17.903  52.245  1.00  0.00     0.320 C 
HETATM   13  O5  UNL     1      -9.895 -17.426  53.281  1.00  0.00    -0.247 OA
HETATM   14  N5  UNL     1      -8.421 -18.937  51.963  1.00  0.00    -0.310 N 
ATOM     15  H5  UNL     1      -8.167 -19.835  52.375  1.00  0.00     0.167 HD
ENDROOT
BRANCH   1  16
HETATM   16  C1  UNL     1      -7.870 -18.263  48.367  1.00  0.00     0.293 C 
HETATM   17  N1  UNL     1      -9.134 -18.723  47.783  1.00  0.00    -0.058 NA
HETATM   18  O1  UNL     1      -7.251 -17.409  47.810  1.00  0.00    -0.272 OA
ENDBRANCH   1  16
BRANCH   1  19
HETATM   19  N2  UNL     1      -8.251 -20.236  49.651  1.00  0.00    -0.039 N 
ATOM     20  H23 UNL     1      -8.989 -20.262  50.355  1.00  0.00     0.278 HD
ATOM     21  H22 UNL     1      -8.838 -20.350  48.825  1.00  0.00     0.278 HD
ATOM     22  H21 UNL     1      -7.581 -20.997  49.761  1.00  0.00     0.278 HD
ENDBRANCH   1  19
TORSDOF 2
ENDMDL
MODEL 4
REMARK VINA RESULT: -4.927370311      6.164      7.589
REMARK  2 active torsions:
REMARK  status: ('A' for Active; 'I' for Inactive)
REMARK    1  A    between atoms: C1_2  and  C2_4 
REMARK    2  A    between atoms: C2_4  and  N2_5 
ROOT
HETATM    1  C2  UNL     1      -8.078 -17.261  51.011  1.00  0.00     0.330 C 
HETATM    2  N3  UNL     1      -6.685 -17.014  51.007  1.00  0.00    -0.251 N 
ATOM      3  H3  UNL     1      -6.338 -16.201  51.515  1.00  0.00     0.177 HD
HETATM    4  S1  UNL     1      -5.592 -17.971  50.223  1.00  0.00     0.360 S 
HETATM    5  O2  UNL     1      -4.874 -18.875  51.218  1.00  0.00    -0.176 OA
HETATM    6  O3  UNL     1      -4.597 -17.160  49.441  1.00  0.00    -0.176 OA
HETATM    7  O4  UNL     1      -6.341 -19.033  49.126  1.00  0.00    -0.255 OA
HETATM    8  C3  UNL     1      -7.472 -19.429  49.821  1.00  0.00     0.251 C 
HETATM    9  C4  UNL     1      -8.417 -18.288  49.925  1.00  0.00     0.197 C 
HETATM   10  N4  UNL     1      -9.768 -18.810  49.967  1.00  0.00    -0.310 N 
ATOM     11  H4  UNL     1     -10.452 -19.063  50.679  1.00  0.00     0.167 HD
HETATM   12  C5  UNL     1      -9.688 -18.800  48.512  1.00  0.00     0.320 C 
HETATM   13  O5  UNL     1     -10.150 -19.439  47.527  1.00  0.00    -0.247 OA
HETATM   14  N5  UNL     1      -8.829 -17.683  48.694  1.00  0.00    -0.310 N 
ATOM     15  H5  UNL     1      -8.606 -16.831  48.178  1.00  0.00     0.167 HD
ENDROOT
BRANCH   1  16
HETATM   16  C1  UNL     1      -8.416 -17.854  52.367  1.00  0.00     0.293 C 
HETATM   17  N1  UNL     1      -9.796 -17.544  52.755  1.00  0.00    -0.058 NA
HETATM   18  O1  UNL     1      -7.734 -18.493  53.108  1.00  0.00    -0.272 OA
ENDBRANCH   1  16
BRANCH   1  19
HETATM   19  N2  UNL     1      -8.843 -16.090  50.820  1.00  0.00    -0.039 N 
ATOM     20  H23 UNL     1      -8.992 -15.878  49.834  1.00  0.00     0.278 HD
ATOM     21  H22 UNL     1      -9.820 -16.216  51.087  1.00  0.00     0.278 HD
ATOM     22  H21 UNL     1      -8.400 -15.320  51.321  1.00  0.00     0.278 HD
ENDBRANCH   1  19
TORSDOF 2
ENDMDL
MODEL 5
REMARK VINA RESULT: -4.885103496      5.650      6.904
REMARK  2 active torsions:
REMARK  status: ('A' for Active; 'I' for Inactive)
REMARK    1  A    between atoms: C1_2  and  C2_4 
REMARK    2  A    between atoms: C2_4  and  N2_5 
ROOT
HETATM    1  C2  UNL     1      -7.646 -17.497  49.570  1.00  0.00     0.330 C 
HETATM    2  N3  UNL     1      -6.419 -18.095  49.941  1.00  0.00    -0.251 N 
ATOM      3  H3  UNL     1      -5.585 -17.508  49.965  1.00  0.00     0.177 HD
HETATM    4  S1  UNL     1      -6.264 -19.690  50.336  1.00  0.00     0.360 S 
HETATM    5  O2  UNL     1      -6.171 -19.852  51.849  1.00  0.00    -0.176 OA
HETATM    6  O3  UNL     1      -5.074 -20.319  49.667  1.00  0.00    -0.176 OA
HETATM    7  O4  UNL     1      -7.628 -20.598  49.880  1.00  0.00    -0.255 OA
HETATM    8  C3  UNL     1      -8.672 -19.742  50.194  1.00  0.00     0.251 C 
HETATM    9  C4  UNL     1      -8.672 -18.592  49.255  1.00  0.00     0.197 C 
HETATM   10  N4  UNL     1     -10.035 -18.133  49.087  1.00  0.00    -0.310 N 
ATOM     11  H4  UNL     1     -10.644 -17.424  49.496  1.00  0.00     0.167 HD
HETATM   12  C5  UNL     1     -10.127 -19.160  48.058  1.00  0.00     0.320 C 
HETATM   13  O5  UNL     1     -10.992 -19.921  47.543  1.00  0.00    -0.247 OA
HETATM   14  N5  UNL     1      -8.743 -18.904  47.859  1.00  0.00    -0.310 N 
ATOM     15  H5  UNL     1      -8.093 -18.930  47.073  1.00  0.00     0.167 HD
ENDROOT
BRANCH   1  16
HETATM   16  C1  UNL     1      -8.131 -16.705  50.772  1.00  0.00     0.293 C 
HETATM   17  N1  UNL     1      -7.094 -16.618  51.806  1.00  0.00    -0.058 NA
HETATM   18  O1  UNL     1      -9.188 -16.187  50.964  1.00  0.00    -0.272 OA
ENDBRANCH   1  16
BRANCH   1  19
HETATM   19  N2  UNL     1      -7.521 -16.625  48.468  1.00  0.00    -0.039 N 
ATOM     20  H23 UNL     1      -6.561 -16.306  48.331  1.00  0.00     0.278 HD
ATOM     21  H22 UNL     1      -7.639 -17.105  47.576  1.00  0.00     0.278 HD
ATOM     22  H21 UNL     1      -8.175 -15.851  48.582  1.00  0.00     0.278 HD
ENDBRANCH   1  19
TORSDOF 2
ENDMDL
