MODEL 1
REMARK VINA RESULT: -7.141213934      0.000      0.000
REMARK  4 active torsions:
REMARK  status: ('A' for Active; 'I' for Inactive)
REMARK    1  A    between atoms: N1_1  and  N2_4 
REMARK    2  A    between atoms: C1_8  and  N5_9 
REMARK    3  A    between atoms: N5_9  and  N6_11 
REMARK       I    between atoms: N6_11  and  C2_13 
REMARK    4  A    between atoms: C2_13  and  C3_15 
ROOT
HETATM    1  N6  UNL     1     -11.796 -19.394  48.132  1.00  0.00    -0.263 N 
ATOM      2  H6  UNL     1     -12.237 -19.847  48.933  1.00  0.00     0.190 HD
HETATM    3  C2  UNL     1     -12.305 -19.676  46.859  1.00  0.00     0.277 C 
HETATM    4  O1  UNL     1     -11.789 -19.139  45.848  1.00  0.00    -0.266 OA
ENDROOT
BRANCH   1   5
HETATM    5  N5  UNL     1     -10.725 -18.534  48.379  1.00  0.00    -0.266 N 
ATOM      6  H5  UNL     1     -10.815 -17.529  48.235  1.00  0.00     0.190 HD
BRANCH   5   7
HETATM    7  C1  UNL     1      -9.611 -19.052  48.797  1.00  0.00     0.229 A 
HETATM    8  N4  UNL     1      -8.322 -18.463  48.708  1.00  0.00    -0.249 N 
HETATM    9  N3  UNL     1      -7.405 -19.349  49.276  1.00  0.00     0.020 NA
ATOM     10  H4  UNL     1      -8.105 -17.554  48.301  1.00  0.00     0.187 HD
HETATM   11  N2  UNL     1      -8.090 -20.474  49.714  1.00  0.00    -0.119 N 
HETATM   12  N10 UNL     1      -9.427 -20.308  49.431  1.00  0.00    -0.234 N 
ATOM     13  H10 UNL     1     -10.165 -20.979  49.643  1.00  0.00     0.193 HD
BRANCH  11  14
HETATM   14  N1  UNL     1      -7.625 -21.517  50.288  1.00  0.00    -0.310 N 
ATOM     15  H12 UNL     1      -7.681 -22.448  49.875  1.00  0.00     0.180 HD
ATOM     16  H11 UNL     1      -7.153 -21.590  51.189  1.00  0.00     0.180 HD
ENDBRANCH  11  14
ENDBRANCH   5   7
ENDBRANCH   1   5
BRANCH   3  17
HETATM   17  C3  UNL     1     -13.421 -20.583  46.688  1.00  0.00     0.119 A 
HETATM   18  C4  UNL     1     -13.219 -21.909  46.291  1.00  0.00     0.131 A 
HETATM   19  N7  UNL     1     -14.241 -22.757  46.130  1.00  0.00    -0.296 N 
HETATM   20  N8  UNL     1     -15.474 -22.354  46.346  1.00  0.00    -0.240 N 
ATOM     21  H7  UNL     1     -14.064 -23.719  45.841  1.00  0.00     0.187 HD
HETATM   22  N9  UNL     1     -15.702 -21.109  46.721  1.00  0.00    -0.251 N 
ATOM     23  H8  UNL     1     -16.253 -23.001  46.223  1.00  0.00     0.208 HD
HETATM   24  C5  UNL     1     -14.727 -20.203  46.902  1.00  0.00     0.278 A 
ATOM     25  H9  UNL     1     -16.667 -20.821  46.881  1.00  0.00     0.192 HD
HETATM   26  O2  UNL     1     -14.940 -19.020  47.258  1.00  0.00    -0.266 OA
ENDBRANCH   3  17
TORSDOF 4
ENDMDL
MODEL 2
REMARK VINA RESULT: -7.132119905      0.391      1.136
REMARK  4 active torsions:
REMARK  status: ('A' for Active; 'I' for Inactive)
REMARK    1  A    between atoms: N1_1  and  N2_4 
REMARK    2  A    between atoms: C1_8  and  N5_9 
REMARK    3  A    between atoms: N5_9  and  N6_11 
REMARK       I    between atoms: N6_11  and  C2_13 
REMARK    4  A    between atoms: C2_13  and  C3_15 
ROOT
HETATM    1  N6  UNL     1     -11.662 -19.542  48.158  1.00  0.00    -0.263 N 
ATOM      2  H6  UNL     1     -12.076 -20.040  48.946  1.00  0.00     0.190 HD
HETATM    3  C2  UNL     1     -12.234 -19.728  46.894  1.00  0.00     0.277 C 
HETATM    4  O1  UNL     1     -11.754 -19.134  45.899  1.00  0.00    -0.266 OA
ENDROOT
BRANCH   1   5
HETATM    5  N5  UNL     1     -10.564 -18.720  48.411  1.00  0.00    -0.266 N 
ATOM      6  H5  UNL     1     -10.604 -17.719  48.226  1.00  0.00     0.190 HD
BRANCH   5   7
HETATM    7  C1  UNL     1      -9.490 -19.269  48.891  1.00  0.00     0.229 A 
HETATM    8  N4  UNL     1      -9.385 -20.570  49.449  1.00  0.00    -0.249 N 
HETATM    9  N3  UNL     1      -8.059 -20.764  49.841  1.00  0.00     0.020 NA
ATOM     10  H4  UNL     1     -10.145 -21.244  49.546  1.00  0.00     0.187 HD
HETATM   11  N2  UNL     1      -7.338 -19.617  49.542  1.00  0.00    -0.119 N 
HETATM   12  N10 UNL     1      -8.191 -18.703  48.966  1.00  0.00    -0.234 N 
ATOM     13  H10 UNL     1      -7.931 -17.770  48.645  1.00  0.00     0.193 HD
BRANCH  11  14
HETATM   14  N1  UNL     1      -6.097 -19.382  49.739  1.00  0.00    -0.310 N 
ATOM     15  H12 UNL     1      -5.557 -19.837  50.474  1.00  0.00     0.180 HD
ATOM     16  H11 UNL     1      -5.482 -18.746  49.232  1.00  0.00     0.180 HD
ENDBRANCH  11  14
ENDBRANCH   5   7
ENDBRANCH   1   5
BRANCH   3  17
HETATM   17  C3  UNL     1     -13.376 -20.602  46.716  1.00  0.00     0.119 A 
HETATM   18  C4  UNL     1     -13.212 -21.926  46.298  1.00  0.00     0.131 A 
HETATM   19  N7  UNL     1     -14.258 -22.744  46.130  1.00  0.00    -0.296 N 
HETATM   20  N8  UNL     1     -15.479 -22.310  46.358  1.00  0.00    -0.240 N 
ATOM     21  H7  UNL     1     -14.109 -23.705  45.825  1.00  0.00     0.187 HD
HETATM   22  N9  UNL     1     -15.670 -21.066  46.753  1.00  0.00    -0.251 N 
ATOM     23  H8  UNL     1     -16.275 -22.934  46.229  1.00  0.00     0.208 HD
HETATM   24  C5  UNL     1     -14.670 -20.190  46.943  1.00  0.00     0.278 A 
ATOM     25  H9  UNL     1     -16.626 -20.754  46.923  1.00  0.00     0.192 HD
HETATM   26  O2  UNL     1     -14.849 -19.007  47.317  1.00  0.00    -0.266 OA
ENDBRANCH   3  17
TORSDOF 4
ENDMDL
MODEL 3
REMARK VINA RESULT: -7.086744993      1.954      2.228
REMARK  4 active torsions:
REMARK  status: ('A' for Active; 'I' for Inactive)
REMARK    1  A    between atoms: N1_1  and  N2_4 
REMARK    2  A    between atoms: C1_8  and  N5_9 
REMARK    3  A    between atoms: N5_9  and  N6_11 
REMARK       I    between atoms: N6_11  and  C2_13 
REMARK    4  A    between atoms: C2_13  and  C3_15 
ROOT
HETATM    1  N6  UNL     1     -10.988 -19.326  47.457  1.00  0.00    -0.263 N 
ATOM      2  H6  UNL     1     -11.441 -18.746  46.750  1.00  0.00     0.190 HD
HETATM    3  C2  UNL     1     -11.719 -20.391  47.995  1.00  0.00     0.277 C 
HETATM    4  O1  UNL     1     -11.198 -21.128  48.867  1.00  0.00    -0.266 OA
ENDROOT
BRANCH   1   5
HETATM    5  N5  UNL     1      -9.680 -19.006  47.821  1.00  0.00    -0.266 N 
ATOM      6  H5  UNL     1      -8.887 -19.326  47.267  1.00  0.00     0.190 HD
BRANCH   5   7
HETATM    7  C1  UNL     1      -9.503 -18.288  48.888  1.00  0.00     0.229 A 
HETATM    8  N4  UNL     1      -9.058 -16.940  48.932  1.00  0.00    -0.249 N 
HETATM    9  N3  UNL     1      -9.006 -16.549  50.271  1.00  0.00     0.020 NA
ATOM     10  H4  UNL     1      -8.818 -16.361  48.128  1.00  0.00     0.187 HD
HETATM   11  N2  UNL     1      -9.407 -17.618  51.060  1.00  0.00    -0.119 N 
HETATM   12  N10 UNL     1      -9.711 -18.678  50.236  1.00  0.00    -0.234 N 
ATOM     13  H10 UNL     1     -10.033 -19.595  50.545  1.00  0.00     0.193 HD
BRANCH  11  14
HETATM   14  N1  UNL     1      -9.500 -17.678  52.333  1.00  0.00    -0.310 N 
ATOM     15  H12 UNL     1     -10.379 -17.536  52.832  1.00  0.00     0.180 HD
ATOM     16  H11 UNL     1      -8.767 -17.865  53.017  1.00  0.00     0.180 HD
ENDBRANCH  11  14
ENDBRANCH   5   7
ENDBRANCH   1   5
BRANCH   3  17
HETATM   17  C3  UNL     1     -13.077 -20.656  47.562  1.00  0.00     0.119 A 
HETATM   18  C4  UNL     1     -13.702 -21.872  47.854  1.00  0.00     0.131 A 
HETATM   19  N7  UNL     1     -14.955 -22.129  47.460  1.00  0.00    -0.296 N 
HETATM   20  N8  UNL     1     -15.631 -21.229  46.780  1.00  0.00    -0.240 N 
ATOM     21  H7  UNL     1     -15.387 -23.024  47.687  1.00  0.00     0.187 HD
HETATM   22  N9  UNL     1     -15.072 -20.071  46.487  1.00  0.00    -0.251 N 
ATOM     23  H8  UNL     1     -16.586 -21.426  46.480  1.00  0.00     0.208 HD
HETATM   24  C5  UNL     1     -13.820 -19.743  46.849  1.00  0.00     0.278 A 
ATOM     25  H9  UNL     1     -15.617 -19.390  45.959  1.00  0.00     0.192 HD
HETATM   26  O2  UNL     1     -13.286 -18.643  46.571  1.00  0.00    -0.266 OA
ENDBRANCH   3  17
TORSDOF 4
ENDMDL
MODEL 4
REMARK VINA RESULT: -7.067806192      1.963      2.381
REMARK  4 active torsions:
REMARK  status: ('A' for Active; 'I' for Inactive)
REMARK    1  A    between atoms: N1_1  and  N2_4 
REMARK    2  A    between atoms: C1_8  and  N5_9 
REMARK    3  A    between atoms: N5_9  and  N6_11 
REMARK       I    between atoms: N6_11  and  C2_13 
REMARK    4  A    between atoms: C2_13  and  C3_15 
ROOT
HETATM    1  N6  UNL     1     -11.159 -19.414  48.174  1.00  0.00    -0.263 N 
ATOM      2  H6  UNL     1     -11.411 -19.823  49.074  1.00  0.00     0.190 HD
HETATM    3  C2  UNL     1     -12.018 -19.636  47.091  1.00  0.00     0.277 C 
HETATM    4  O1  UNL     1     -11.742 -19.152  45.967  1.00  0.00    -0.266 OA
ENDROOT
BRANCH   1   5
HETATM    5  N5  UNL     1      -9.980 -18.672  48.103  1.00  0.00    -0.266 N 
ATOM      6  H5  UNL     1      -9.449 -18.611  47.235  1.00  0.00     0.190 HD
BRANCH   5   7
HETATM    7  C1  UNL     1      -9.580 -18.060  49.175  1.00  0.00     0.229 A 
HETATM    8  N4  UNL     1      -9.145 -16.711  49.263  1.00  0.00    -0.249 N 
HETATM    9  N3  UNL     1      -8.805 -16.455  50.593  1.00  0.00     0.020 NA
ATOM     10  H4  UNL     1      -9.090 -16.047  48.491  1.00  0.00     0.187 HD
HETATM   11  N2  UNL     1      -9.017 -17.609  51.333  1.00  0.00    -0.119 N 
HETATM   12  N10 UNL     1      -9.486 -18.589  50.488  1.00  0.00    -0.234 N 
ATOM     13  H10 UNL     1      -9.727 -19.542  50.762  1.00  0.00     0.193 HD
BRANCH  11  14
HETATM   14  N1  UNL     1      -8.831 -17.800  52.583  1.00  0.00    -0.310 N 
ATOM     15  H12 UNL     1      -8.973 -17.071  53.282  1.00  0.00     0.180 HD
ATOM     16  H11 UNL     1      -8.530 -18.650  53.059  1.00  0.00     0.180 HD
ENDBRANCH  11  14
ENDBRANCH   5   7
ENDBRANCH   1   5
BRANCH   3  17
HETATM   17  C3  UNL     1     -13.225 -20.423  47.249  1.00  0.00     0.119 A 
HETATM   18  C4  UNL     1     -14.436 -20.003  46.689  1.00  0.00     0.131 A 
HETATM   19  N7  UNL     1     -15.558 -20.720  46.827  1.00  0.00    -0.296 N 
HETATM   20  N8  UNL     1     -15.542 -21.849  47.501  1.00  0.00    -0.240 N 
ATOM     21  H7  UNL     1     -16.427 -20.390  46.408  1.00  0.00     0.187 HD
HETATM   22  N9  UNL     1     -14.416 -22.274  48.042  1.00  0.00    -0.251 N 
ATOM     23  H8  UNL     1     -16.397 -22.394  47.605  1.00  0.00     0.208 HD
HETATM   24  C5  UNL     1     -13.253 -21.609  47.946  1.00  0.00     0.278 A 
ATOM     25  H9  UNL     1     -14.430 -23.153  48.560  1.00  0.00     0.192 HD
HETATM   26  O2  UNL     1     -12.183 -22.011  48.459  1.00  0.00    -0.266 OA
ENDBRANCH   3  17
TORSDOF 4
ENDMDL
MODEL 5
REMARK VINA RESULT: -6.997216657      1.629      1.802
REMARK  4 active torsions:
REMARK  status: ('A' for Active; 'I' for Inactive)
REMARK    1  A    between atoms: N1_1  and  N2_4 
REMARK    2  A    between atoms: C1_8  and  N5_9 
REMARK    3  A    between atoms: N5_9  and  N6_11 
REMARK       I    between atoms: N6_11  and  C2_13 
REMARK    4  A    between atoms: C2_13  and  C3_15 
ROOT
HETATM    1  N6  UNL     1     -11.423 -19.537  48.232  1.00  0.00    -0.263 N 
ATOM      2  H6  UNL     1     -11.678 -19.918  49.144  1.00  0.00     0.190 HD
HETATM    3  C2  UNL     1     -12.288 -19.776  47.158  1.00  0.00     0.277 C 
HETATM    4  O1  UNL     1     -12.010 -19.325  46.021  1.00  0.00    -0.266 OA
ENDROOT
BRANCH   1   5
HETATM    5  N5  UNL     1     -10.235 -18.811  48.139  1.00  0.00    -0.266 N 
ATOM      6  H5  UNL     1      -9.745 -18.719  47.250  1.00  0.00     0.190 HD
BRANCH   5   7
HETATM    7  C1  UNL     1      -9.773 -18.257  49.217  1.00  0.00     0.229 A 
HETATM    8  N4  UNL     1      -9.423 -16.890  49.379  1.00  0.00    -0.249 N 
HETATM    9  N3  UNL     1      -8.972 -16.714  50.688  1.00  0.00     0.020 NA
ATOM     10  H4  UNL     1      -9.490 -16.165  48.665  1.00  0.00     0.187 HD
HETATM   11  N2  UNL     1      -9.031 -17.936  51.344  1.00  0.00    -0.119 N 
HETATM   12  N10 UNL     1      -9.514 -18.879  50.466  1.00  0.00    -0.234 N 
ATOM     13  H10 UNL     1      -9.662 -19.866  50.678  1.00  0.00     0.193 HD
BRANCH  11  14
HETATM   14  N1  UNL     1      -8.709 -18.209  52.550  1.00  0.00    -0.310 N 
ATOM     15  H12 UNL     1      -8.475 -17.493  53.237  1.00  0.00     0.180 HD
ATOM     16  H11 UNL     1      -8.637 -19.123  52.998  1.00  0.00     0.180 HD
ENDBRANCH  11  14
ENDBRANCH   5   7
ENDBRANCH   1   5
BRANCH   3  17
HETATM   17  C3  UNL     1     -13.505 -20.542  47.340  1.00  0.00     0.119 A 
HETATM   18  C4  UNL     1     -13.463 -21.926  47.535  1.00  0.00     0.131 A 
HETATM   19  N7  UNL     1     -14.579 -22.644  47.705  1.00  0.00    -0.296 N 
HETATM   20  N8  UNL     1     -15.754 -22.054  47.690  1.00  0.00    -0.240 N 
ATOM     21  H7  UNL     1     -14.519 -23.653  47.846  1.00  0.00     0.187 HD
HETATM   22  N9  UNL     1     -15.830 -20.749  47.508  1.00  0.00    -0.251 N 
ATOM     23  H8  UNL     1     -16.604 -22.602  47.819  1.00  0.00     0.208 HD
HETATM   24  C5  UNL     1     -14.755 -19.964  47.331  1.00  0.00     0.278 A 
ATOM     25  H9  UNL     1     -16.753 -20.315  47.500  1.00  0.00     0.192 HD
HETATM   26  O2  UNL     1     -14.824 -18.725  47.157  1.00  0.00    -0.266 OA
ENDBRANCH   3  17
TORSDOF 4
ENDMDL
