MODEL 1
REMARK VINA RESULT: -6.364193538      0.000      0.000
REMARK  2 active torsions:
REMARK  status: ('A' for Active; 'I' for Inactive)
REMARK    1  A    between atoms: C4_8  and  C5_9 
REMARK       I    between atoms: C5_9  and  N3_11 
REMARK       I    between atoms: C6_13  and  N5_15 
REMARK    2  A    between atoms: N5_15  and  N6_17 
ROOT
HETATM    1  C5  UNL     1      -9.777 -19.383  48.533  1.00  0.00     0.281 C 
HETATM    2  O2  UNL     1      -9.530 -20.552  48.924  1.00  0.00    -0.267 OA
HETATM    3  N3  UNL     1     -10.429 -19.154  47.297  1.00  0.00    -0.296 N 
ATOM      4  H3  UNL     1      -9.907 -18.836  46.481  1.00  0.00     0.171 HD
HETATM    5  C6  UNL     1     -11.696 -19.358  47.232  1.00  0.00     0.210 C 
HETATM    6  N4  UNL     1     -12.464 -19.800  48.334  1.00  0.00    -0.062 NA
HETATM    7  N5  UNL     1     -12.370 -19.135  46.002  1.00  0.00    -0.259 N 
ATOM      8  H5  UNL     1     -12.291 -18.241  45.517  1.00  0.00     0.191 HD
ENDROOT
BRANCH   1   9
HETATM    9  C4  UNL     1      -9.400 -18.185  49.337  1.00  0.00     0.385 C 
HETATM   10  O1  UNL     1      -8.509 -17.369  48.647  1.00  0.00    -0.225 OA
HETATM   11  N2  UNL     1      -8.359 -16.243  49.345  1.00  0.00    -0.205 N 
HETATM   12  N1  UNL     1      -8.368 -16.387  50.719  1.00  0.00    -0.081 NA
ATOM     13  H2  UNL     1      -8.246 -15.334  48.895  1.00  0.00     0.211 HD
HETATM   14  C2  UNL     1      -7.967 -17.735  51.092  1.00  0.00     0.149 C 
HETATM   15  C1  UNL     1      -8.042 -17.935  52.593  1.00  0.00     0.067 C 
HETATM   16  C3  UNL     1      -6.554 -17.942  50.658  1.00  0.00     0.067 C 
HETATM   17  O3  UNL     1      -8.860 -18.649  50.533  1.00  0.00    -0.322 OA
ENDBRANCH   1   9
BRANCH   7  18
HETATM   18  N6  UNL     1     -13.141 -20.167  45.476  1.00  0.00    -0.247 N 
HETATM   19  N7  UNL     1     -14.207 -20.479  46.115  1.00  0.00    -0.331 N 
ATOM     20  H72 UNL     1     -14.465 -19.984  46.969  1.00  0.00     0.178 HD
ATOM     21  H71 UNL     1     -14.772 -21.236  45.730  1.00  0.00     0.178 HD
ATOM     22  H6  UNL     1     -12.869 -20.653  44.621  1.00  0.00     0.207 HD
ENDBRANCH   7  18
TORSDOF 2
ENDMDL
MODEL 2
REMARK VINA RESULT: -6.042319451      2.067      2.981
REMARK  2 active torsions:
REMARK  status: ('A' for Active; 'I' for Inactive)
REMARK    1  A    between atoms: C4_8  and  C5_9 
REMARK       I    between atoms: C5_9  and  N3_11 
REMARK       I    between atoms: C6_13  and  N5_15 
REMARK    2  A    between atoms: N5_15  and  N6_17 
ROOT
HETATM    1  C5  UNL     1     -11.391 -19.448  47.411  1.00  0.00     0.281 C 
HETATM    2  O2  UNL     1     -11.292 -19.052  46.221  1.00  0.00    -0.267 OA
HETATM    3  N3  UNL     1     -12.659 -19.605  48.020  1.00  0.00    -0.296 N 
ATOM      4  H3  UNL     1     -13.004 -18.920  48.693  1.00  0.00     0.171 HD
HETATM    5  C6  UNL     1     -13.363 -20.632  47.703  1.00  0.00     0.210 C 
HETATM    6  N4  UNL     1     -12.929 -21.608  46.775  1.00  0.00    -0.062 NA
HETATM    7  N5  UNL     1     -14.638 -20.808  48.303  1.00  0.00    -0.259 N 
ATOM      8  H5  UNL     1     -14.744 -20.804  49.317  1.00  0.00     0.191 HD
ENDROOT
BRANCH   1   9
HETATM    9  C4  UNL     1     -10.192 -19.771  48.236  1.00  0.00     0.385 C 
HETATM   10  O1  UNL     1     -10.524 -19.907  49.582  1.00  0.00    -0.225 OA
HETATM   11  N2  UNL     1      -9.449 -20.367  50.224  1.00  0.00    -0.205 N 
HETATM   12  N1  UNL     1      -8.234 -19.889  49.773  1.00  0.00    -0.081 NA
ATOM     13  H2  UNL     1      -9.520 -21.028  50.998  1.00  0.00     0.211 HD
HETATM   14  C2  UNL     1      -8.406 -18.601  49.116  1.00  0.00     0.149 C 
HETATM   15  C1  UNL     1      -7.094 -18.095  48.550  1.00  0.00     0.067 C 
HETATM   16  C3  UNL     1      -8.892 -17.618  50.130  1.00  0.00     0.067 C 
HETATM   17  O3  UNL     1      -9.266 -18.753  48.029  1.00  0.00    -0.322 OA
ENDBRANCH   1   9
BRANCH   7  18
HETATM   18  N6  UNL     1     -15.739 -20.986  47.470  1.00  0.00    -0.247 N 
HETATM   19  N7  UNL     1     -15.746 -20.330  46.369  1.00  0.00    -0.331 N 
ATOM     20  H72 UNL     1     -14.972 -19.710  46.128  1.00  0.00     0.178 HD
ATOM     21  H71 UNL     1     -16.553 -20.459  45.759  1.00  0.00     0.178 HD
ATOM     22  H6  UNL     1     -16.505 -21.609  47.725  1.00  0.00     0.207 HD
ENDBRANCH   7  18
TORSDOF 2
ENDMDL
MODEL 3
REMARK VINA RESULT: -5.949503380      1.838      2.249
REMARK  2 active torsions:
REMARK  status: ('A' for Active; 'I' for Inactive)
REMARK    1  A    between atoms: C4_8  and  C5_9 
REMARK       I    between atoms: C5_9  and  N3_11 
REMARK       I    between atoms: C6_13  and  N5_15 
REMARK    2  A    between atoms: N5_15  and  N6_17 
ROOT
HETATM    1  C5  UNL     1     -10.914 -19.038  47.754  1.00  0.00     0.281 C 
HETATM    2  O2  UNL     1     -10.316 -19.151  46.653  1.00  0.00    -0.267 OA
HETATM    3  N3  UNL     1     -12.319 -18.878  47.804  1.00  0.00    -0.296 N 
ATOM      4  H3  UNL     1     -12.736 -17.967  47.996  1.00  0.00     0.171 HD
HETATM    5  C6  UNL     1     -13.056 -19.911  47.600  1.00  0.00     0.210 C 
HETATM    6  N4  UNL     1     -12.528 -21.194  47.328  1.00  0.00    -0.062 NA
HETATM    7  N5  UNL     1     -14.469 -19.771  47.645  1.00  0.00    -0.259 N 
ATOM      8  H5  UNL     1     -14.928 -19.361  48.458  1.00  0.00     0.191 HD
ENDROOT
BRANCH   1   9
HETATM    9  C4  UNL     1     -10.184 -19.066  49.054  1.00  0.00     0.385 C 
HETATM   10  O1  UNL     1      -9.645 -17.820  49.361  1.00  0.00    -0.225 OA
HETATM   11  N2  UNL     1      -9.168 -17.874  50.605  1.00  0.00    -0.205 N 
HETATM   12  N1  UNL     1      -8.593 -19.076  50.972  1.00  0.00    -0.081 NA
ATOM     13  H2  UNL     1      -9.225 -17.081  51.245  1.00  0.00     0.211 HD
HETATM   14  C2  UNL     1      -8.121 -19.794  49.797  1.00  0.00     0.149 C 
HETATM   15  C1  UNL     1      -7.553 -21.148  50.173  1.00  0.00     0.067 C 
HETATM   16  C3  UNL     1      -7.039 -18.989  49.158  1.00  0.00     0.067 C 
HETATM   17  O3  UNL     1      -9.202 -20.046  48.951  1.00  0.00    -0.322 OA
ENDBRANCH   1   9
BRANCH   7  18
HETATM   18  N6  UNL     1     -15.209 -20.210  46.551  1.00  0.00    -0.247 N 
HETATM   19  N7  UNL     1     -15.533 -21.450  46.530  1.00  0.00    -0.331 N 
ATOM     20  H72 UNL     1     -15.254 -22.074  47.287  1.00  0.00     0.178 HD
ATOM     21  H71 UNL     1     -16.076 -21.772  45.728  1.00  0.00     0.178 HD
ATOM     22  H6  UNL     1     -15.481 -19.574  45.802  1.00  0.00     0.207 HD
ENDBRANCH   7  18
TORSDOF 2
ENDMDL
MODEL 4
REMARK VINA RESULT: -5.925084756      2.656      6.335
REMARK  2 active torsions:
REMARK  status: ('A' for Active; 'I' for Inactive)
REMARK    1  A    between atoms: C4_8  and  C5_9 
REMARK       I    between atoms: C5_9  and  N3_11 
REMARK       I    between atoms: C6_13  and  N5_15 
REMARK    2  A    between atoms: N5_15  and  N6_17 
ROOT
HETATM    1  C5  UNL     1     -11.373 -20.098  48.836  1.00  0.00     0.281 C 
HETATM    2  O2  UNL     1     -11.399 -20.590  49.993  1.00  0.00    -0.267 OA
HETATM    3  N3  UNL     1     -10.757 -18.847  48.593  1.00  0.00    -0.296 N 
ATOM      4  H3  UNL     1     -11.316 -18.006  48.452  1.00  0.00     0.171 HD
HETATM    5  C6  UNL     1      -9.473 -18.799  48.556  1.00  0.00     0.210 C 
HETATM    6  N4  UNL     1      -8.653 -19.936  48.748  1.00  0.00    -0.062 NA
HETATM    7  N5  UNL     1      -8.834 -17.554  48.315  1.00  0.00    -0.259 N 
ATOM      8  H5  UNL     1      -9.074 -16.993  47.497  1.00  0.00     0.191 HD
ENDROOT
BRANCH   1   9
HETATM    9  C4  UNL     1     -11.984 -20.795  47.668  1.00  0.00     0.385 C 
HETATM   10  O1  UNL     1     -12.986 -20.025  47.083  1.00  0.00    -0.225 OA
HETATM   11  N2  UNL     1     -13.357 -20.626  45.952  1.00  0.00    -0.205 N 
HETATM   12  N1  UNL     1     -13.366 -22.007  45.985  1.00  0.00    -0.081 NA
ATOM     13  H2  UNL     1     -13.617 -20.100  45.117  1.00  0.00     0.211 HD
HETATM   14  C2  UNL     1     -13.529 -22.482  47.351  1.00  0.00     0.149 C 
HETATM   15  C1  UNL     1     -13.468 -23.995  47.416  1.00  0.00     0.067 C 
HETATM   16  C3  UNL     1     -14.869 -22.043  47.843  1.00  0.00     0.067 C 
HETATM   17  O3  UNL     1     -12.469 -22.015  48.128  1.00  0.00    -0.322 OA
ENDBRANCH   1   9
BRANCH   7  18
HETATM   18  N6  UNL     1      -7.872 -17.120  49.222  1.00  0.00    -0.247 N 
HETATM   19  N7  UNL     1      -6.660 -17.469  48.995  1.00  0.00    -0.331 N 
ATOM     20  H72 UNL     1      -6.427 -18.040  48.181  1.00  0.00     0.178 HD
ATOM     21  H71 UNL     1      -5.955 -17.151  49.660  1.00  0.00     0.178 HD
ATOM     22  H6  UNL     1      -8.121 -16.550  50.031  1.00  0.00     0.207 HD
ENDBRANCH   7  18
TORSDOF 2
ENDMDL
MODEL 5
REMARK VINA RESULT: -5.800884874      2.664      3.910
REMARK  2 active torsions:
REMARK  status: ('A' for Active; 'I' for Inactive)
REMARK    1  A    between atoms: C4_8  and  C5_9 
REMARK       I    between atoms: C5_9  and  N3_11 
REMARK       I    between atoms: C6_13  and  N5_15 
REMARK    2  A    between atoms: N5_15  and  N6_17 
ROOT
HETATM    1  C5  UNL     1     -12.556 -20.744  48.235  1.00  0.00     0.281 C 
HETATM    2  O2  UNL     1     -13.129 -19.624  48.231  1.00  0.00    -0.267 OA
HETATM    3  N3  UNL     1     -13.263 -21.921  47.891  1.00  0.00    -0.296 N 
ATOM      4  H3  UNL     1     -13.568 -22.577  48.609  1.00  0.00     0.171 HD
HETATM    5  C6  UNL     1     -13.510 -22.140  46.648  1.00  0.00     0.210 C 
HETATM    6  N4  UNL     1     -13.110 -21.260  45.616  1.00  0.00    -0.062 NA
HETATM    7  N5  UNL     1     -14.217 -23.315  46.281  1.00  0.00    -0.259 N 
ATOM      8  H5  UNL     1     -13.895 -24.235  46.582  1.00  0.00     0.191 HD
ENDROOT
BRANCH   1   9
HETATM    9  C4  UNL     1     -11.118 -20.893  48.598  1.00  0.00     0.385 C 
HETATM   10  O1  UNL     1     -10.965 -21.213  49.944  1.00  0.00    -0.225 OA
HETATM   11  N2  UNL     1      -9.680 -21.504  50.153  1.00  0.00    -0.205 N 
HETATM   12  N1  UNL     1      -8.773 -20.754  49.430  1.00  0.00    -0.081 NA
ATOM     13  H2  UNL     1      -9.386 -22.233  50.803  1.00  0.00     0.211 HD
HETATM   14  C2  UNL     1      -9.355 -19.473  49.056  1.00  0.00     0.149 C 
HETATM   15  C1  UNL     1      -8.400 -18.665  48.199  1.00  0.00     0.067 C 
HETATM   16  C3  UNL     1      -9.634 -18.703  50.305  1.00  0.00     0.067 C 
HETATM   17  O3  UNL     1     -10.487 -19.695  48.274  1.00  0.00    -0.322 OA
ENDBRANCH   1   9
BRANCH   7  18
HETATM   18  N6  UNL     1     -15.362 -23.178  45.501  1.00  0.00    -0.247 N 
HETATM   19  N7  UNL     1     -15.431 -23.897  44.442  1.00  0.00    -0.331 N 
ATOM     20  H72 UNL     1     -14.674 -24.535  44.196  1.00  0.00     0.178 HD
ATOM     21  H71 UNL     1     -16.270 -23.797  43.870  1.00  0.00     0.178 HD
ATOM     22  H6  UNL     1     -16.110 -22.535  45.760  1.00  0.00     0.207 HD
ENDBRANCH   7  18
TORSDOF 2
ENDMDL
