MODEL 1
REMARK VINA RESULT: -5.700506036      0.000      0.000
REMARK  9 active torsions:
REMARK  status: ('A' for Active; 'I' for Inactive)
REMARK    1  A    between atoms: C2_2  and  C3_3 
REMARK    2  A    between atoms: C3_3  and  N1_4 
REMARK    3  A    between atoms: C3_3  and  C4_8 
REMARK    4  A    between atoms: C4_8  and  O1_9 
REMARK    5  A    between atoms: C4_8  and  N2_11 
REMARK    6  A    between atoms: N2_11  and  C5_13 
REMARK    7  A    between atoms: C6_16  and  C7_17 
REMARK       I    between atoms: C7_17  and  N4_19 
REMARK    8  A    between atoms: N4_19  and  N5_21 
REMARK    9  A    between atoms: N10_34  and  N11_35 
ROOT
HETATM    1  C5  UNL     1      14.192  19.038  77.095  1.00  0.00     0.707 A 
HETATM    2  N3  UNL     1      15.446  18.665  77.386  1.00  0.00    -0.169 N 
ATOM      3  H3  UNL     1      16.004  18.231  76.650  1.00  0.00     0.186 HD
HETATM    4  C6  UNL     1      16.011  18.832  78.601  1.00  0.00     0.195 A 
HETATM    5  N9  UNL     1      15.237  19.408  79.534  1.00  0.00    -0.287 N 
ATOM      6  H9  UNL     1      15.629  19.551  80.466  1.00  0.00     0.172 HD
HETATM    7  C10 UNL     1      13.960  19.810  79.304  1.00  0.00     0.361 A 
HETATM    8  O4  UNL     1      13.281  20.338  80.202  1.00  0.00    -0.244 OA
HETATM    9  N10 UNL     1      13.467  19.609  78.071  1.00  0.00    -0.038 N 
ENDROOT
BRANCH   4  10
HETATM   10  C7  UNL     1      17.366  18.421  78.890  1.00  0.00     0.306 C 
HETATM   11  O2  UNL     1      17.799  18.729  80.046  1.00  0.00    -0.263 OA
HETATM   12  N4  UNL     1      18.175  17.722  77.960  1.00  0.00    -0.239 N 
ATOM     13  H4  UNL     1      17.791  17.494  77.043  1.00  0.00     0.192 HD
BRANCH  12  14
HETATM   14  N5  UNL     1      19.485  17.335  78.260  1.00  0.00    -0.123 N 
HETATM   15  N6  UNL     1      20.573  18.203  78.172  1.00  0.00     0.006 NA
HETATM   16  N7  UNL     1      21.638  17.555  77.573  1.00  0.00    -0.278 N 
HETATM   17  C8  UNL     1      21.937  16.224  77.972  1.00  0.00     0.200 C 
ATOM     18  H7  UNL     1      22.198  18.022  76.860  1.00  0.00     0.185 HD
HETATM   19  N8  UNL     1      21.034  15.456  78.507  1.00  0.00    -0.301 N 
HETATM   20  C9  UNL     1      19.736  16.000  78.677  1.00  0.00     0.360 C 
ATOM     21  H8  UNL     1      21.251  14.502  78.793  1.00  0.00     0.171 HD
HETATM   22  O3  UNL     1      18.794  15.301  79.199  1.00  0.00    -0.243 OA
ENDBRANCH  12  14
ENDBRANCH   4  10
BRANCH   1  23
HETATM   23  N2  UNL     1      13.651  18.882  75.946  1.00  0.00    -0.196 N 
ATOM     24  H2  UNL     1      13.645  19.665  75.292  1.00  0.00     0.180 HD
BRANCH  23  25
HETATM   25  C4  UNL     1      13.048  17.632  75.548  1.00  0.00     0.265 C 
BRANCH  25  26
HETATM   26  C3  UNL     1      13.331  17.378  74.085  1.00  0.00     0.231 C 
BRANCH  26  27
HETATM   27  C2  UNL     1      12.591  16.194  73.534  1.00  0.00     0.033 C 
HETATM   28  C1  UNL     1      11.154  16.168  73.952  1.00  0.00     0.007 C 
ENDBRANCH  26  27
BRANCH  26  29
HETATM   29  N1  UNL     1      12.980  18.557  73.318  1.00  0.00    -0.071 N 
ATOM     30  H13 UNL     1      12.358  18.342  72.540  1.00  0.00     0.274 HD
ATOM     31  H12 UNL     1      12.358  19.182  73.831  1.00  0.00     0.274 HD
ATOM     32  H11 UNL     1      13.834  19.025  73.014  1.00  0.00     0.274 HD
ENDBRANCH  26  29
ENDBRANCH  25  26
BRANCH  25  33
HETATM   33  O1  UNL     1      13.708  16.625  76.263  1.00  0.00    -0.374 OA
ATOM     34  H1  UNL     1      13.097  15.901  76.336  1.00  0.00     0.212 HD
ENDBRANCH  25  33
ENDBRANCH  23  25
ENDBRANCH   1  23
BRANCH   9  35
HETATM   35  N11 UNL     1      12.138  20.014  77.790  1.00  0.00    -0.320 N 
ATOM     36 2H11 UNL     1      11.936  20.451  76.891  1.00  0.00     0.178 HD
ATOM     37 1H11 UNL     1      11.415  19.857  78.493  1.00  0.00     0.178 HD
ENDBRANCH   9  35
TORSDOF 9
ENDMDL
MODEL 2
REMARK VINA RESULT: -5.595209481      1.648      2.017
REMARK  9 active torsions:
REMARK  status: ('A' for Active; 'I' for Inactive)
REMARK    1  A    between atoms: C2_2  and  C3_3 
REMARK    2  A    between atoms: C3_3  and  N1_4 
REMARK    3  A    between atoms: C3_3  and  C4_8 
REMARK    4  A    between atoms: C4_8  and  O1_9 
REMARK    5  A    between atoms: C4_8  and  N2_11 
REMARK    6  A    between atoms: N2_11  and  C5_13 
REMARK    7  A    between atoms: C6_16  and  C7_17 
REMARK       I    between atoms: C7_17  and  N4_19 
REMARK    8  A    between atoms: N4_19  and  N5_21 
REMARK    9  A    between atoms: N10_34  and  N11_35 
ROOT
HETATM    1  C5  UNL     1      14.868  19.333  77.092  1.00  0.00     0.707 A 
HETATM    2  N3  UNL     1      15.841  18.441  77.330  1.00  0.00    -0.169 N 
ATOM      3  H3  UNL     1      15.969  17.679  76.664  1.00  0.00     0.186 HD
HETATM    4  C6  UNL     1      16.658  18.497  78.402  1.00  0.00     0.195 A 
HETATM    5  N9  UNL     1      16.448  19.519  79.248  1.00  0.00    -0.287 N 
ATOM      6  H9  UNL     1      17.046  19.595  80.071  1.00  0.00     0.172 HD
HETATM    7  C10 UNL     1      15.482  20.456  79.064  1.00  0.00     0.361 A 
HETATM    8  O4  UNL     1      15.326  21.385  79.876  1.00  0.00    -0.244 OA
HETATM    9  N10 UNL     1      14.707  20.333  77.974  1.00  0.00    -0.038 N 
ENDROOT
BRANCH   4  10
HETATM   10  C7  UNL     1      17.699  17.523  78.637  1.00  0.00     0.306 C 
HETATM   11  O2  UNL     1      17.349  16.491  79.294  1.00  0.00    -0.263 OA
HETATM   12  N4  UNL     1      19.029  17.690  78.176  1.00  0.00    -0.239 N 
ATOM     13  H4  UNL     1      19.269  18.532  77.653  1.00  0.00     0.192 HD
BRANCH  12  14
HETATM   14  N5  UNL     1      20.022  16.735  78.415  1.00  0.00    -0.123 N 
HETATM   15  N6  UNL     1      20.323  15.711  77.517  1.00  0.00     0.006 NA
HETATM   16  N7  UNL     1      20.492  14.523  78.206  1.00  0.00    -0.278 N 
HETATM   17  C8  UNL     1      21.247  14.535  79.410  1.00  0.00     0.200 C 
ATOM     18  H7  UNL     1      20.083  13.656  77.857  1.00  0.00     0.185 HD
HETATM   19  N8  UNL     1      21.393  15.622  80.109  1.00  0.00    -0.301 N 
HETATM   20  C9  UNL     1      20.768  16.797  79.622  1.00  0.00     0.360 C 
ATOM     21  H8  UNL     1      21.936  15.628  80.972  1.00  0.00     0.171 HD
HETATM   22  O3  UNL     1      20.870  17.907  80.259  1.00  0.00    -0.243 OA
ENDBRANCH  12  14
ENDBRANCH   4  10
BRANCH   1  23
HETATM   23  N2  UNL     1      14.090  19.285  76.077  1.00  0.00    -0.196 N 
ATOM     24  H2  UNL     1      14.071  20.074  75.430  1.00  0.00     0.180 HD
BRANCH  23  25
HETATM   25  C4  UNL     1      13.238  18.148  75.819  1.00  0.00     0.265 C 
BRANCH  25  26
HETATM   26  C3  UNL     1      12.277  18.480  74.700  1.00  0.00     0.231 C 
BRANCH  26  27
HETATM   27  C2  UNL     1      11.546  19.774  74.910  1.00  0.00     0.033 C 
HETATM   28  C1  UNL     1      10.235  19.587  75.609  1.00  0.00     0.007 C 
ENDBRANCH  26  27
BRANCH  26  29
HETATM   29  N1  UNL     1      13.004  18.542  73.449  1.00  0.00    -0.071 N 
ATOM     30  H13 UNL     1      13.610  17.733  73.312  1.00  0.00     0.274 HD
ATOM     31  H12 UNL     1      12.397  18.405  72.641  1.00  0.00     0.274 HD
ATOM     32  H11 UNL     1      13.517  19.422  73.402  1.00  0.00     0.274 HD
ENDBRANCH  26  29
ENDBRANCH  25  26
BRANCH  25  33
HETATM   33  O1  UNL     1      14.068  17.126  75.342  1.00  0.00    -0.374 OA
ATOM     34  H1  UNL     1      14.666  16.911  76.050  1.00  0.00     0.212 HD
ENDBRANCH  25  33
ENDBRANCH  23  25
ENDBRANCH   1  23
BRANCH   9  35
HETATM   35  N11 UNL     1      13.687  21.290  77.746  1.00  0.00    -0.320 N 
ATOM     36 2H11 UNL     1      12.979  21.435  78.464  1.00  0.00     0.178 HD
ATOM     37 1H11 UNL     1      13.688  21.812  76.869  1.00  0.00     0.178 HD
ENDBRANCH   9  35
TORSDOF 9
ENDMDL
MODEL 3
REMARK VINA RESULT: -5.581442634      1.100      1.430
REMARK  9 active torsions:
REMARK  status: ('A' for Active; 'I' for Inactive)
REMARK    1  A    between atoms: C2_2  and  C3_3 
REMARK    2  A    between atoms: C3_3  and  N1_4 
REMARK    3  A    between atoms: C3_3  and  C4_8 
REMARK    4  A    between atoms: C4_8  and  O1_9 
REMARK    5  A    between atoms: C4_8  and  N2_11 
REMARK    6  A    between atoms: N2_11  and  C5_13 
REMARK    7  A    between atoms: C6_16  and  C7_17 
REMARK       I    between atoms: C7_17  and  N4_19 
REMARK    8  A    between atoms: N4_19  and  N5_21 
REMARK    9  A    between atoms: N10_34  and  N11_35 
ROOT
HETATM    1  C5  UNL     1      14.330  18.737  77.123  1.00  0.00     0.707 A 
HETATM    2  N3  UNL     1      15.507  18.153  77.387  1.00  0.00    -0.169 N 
ATOM      3  H3  UNL     1      15.960  17.622  76.643  1.00  0.00     0.186 HD
HETATM    4  C6  UNL     1      16.126  18.229  78.584  1.00  0.00     0.195 A 
HETATM    5  N9  UNL     1      15.490  18.940  79.529  1.00  0.00    -0.287 N 
ATOM      6  H9  UNL     1      15.927  19.021  80.448  1.00  0.00     0.172 HD
HETATM    7  C10 UNL     1      14.297  19.557  79.326  1.00  0.00     0.361 A 
HETATM    8  O4  UNL     1      13.746  20.204  80.234  1.00  0.00    -0.244 OA
HETATM    9  N10 UNL     1      13.743  19.434  78.109  1.00  0.00    -0.038 N 
ENDROOT
BRANCH   4  10
HETATM   10  C7  UNL     1      17.395  17.591  78.844  1.00  0.00     0.306 C 
HETATM   11  O2  UNL     1      17.419  16.798  79.839  1.00  0.00    -0.263 OA
HETATM   12  N4  UNL     1      18.551  17.822  78.056  1.00  0.00    -0.239 N 
ATOM     13  H4  UNL     1      18.491  18.466  77.268  1.00  0.00     0.192 HD
BRANCH  12  14
HETATM   14  N5  UNL     1      19.771  17.194  78.327  1.00  0.00    -0.123 N 
HETATM   15  N6  UNL     1      20.107  15.938  77.821  1.00  0.00     0.006 NA
HETATM   16  N7  UNL     1      20.698  15.179  78.815  1.00  0.00    -0.278 N 
HETATM   17  C8  UNL     1      21.669  15.791  79.652  1.00  0.00     0.200 C 
ATOM     18  H7  UNL     1      20.443  14.200  78.944  1.00  0.00     0.185 HD
HETATM   19  N8  UNL     1      21.700  17.079  79.829  1.00  0.00    -0.301 N 
HETATM   20  C9  UNL     1      20.722  17.851  79.151  1.00  0.00     0.360 C 
ATOM     21  H8  UNL     1      22.397  17.516  80.430  1.00  0.00     0.171 HD
HETATM   22  O3  UNL     1      20.691  19.129  79.277  1.00  0.00    -0.243 OA
ENDBRANCH  12  14
ENDBRANCH   4  10
BRANCH   1  23
HETATM   23  N2  UNL     1      13.738  18.667  75.990  1.00  0.00    -0.196 N 
ATOM     24  H2  UNL     1      13.760  19.477  75.370  1.00  0.00     0.180 HD
BRANCH  23  25
HETATM   25  C4  UNL     1      13.041  17.477  75.563  1.00  0.00     0.265 C 
BRANCH  25  26
HETATM   26  C3  UNL     1      13.315  17.230  74.097  1.00  0.00     0.231 C 
BRANCH  26  27
HETATM   27  C2  UNL     1      12.501  16.108  73.522  1.00  0.00     0.033 C 
HETATM   28  C1  UNL     1      11.060  16.176  73.926  1.00  0.00     0.007 C 
ENDBRANCH  26  27
BRANCH  26  29
HETATM   29  N1  UNL     1      13.049  18.442  73.350  1.00  0.00    -0.071 N 
ATOM     30  H13 UNL     1      12.334  18.308  72.636  1.00  0.00     0.274 HD
ATOM     31  H12 UNL     1      12.564  19.143  73.909  1.00  0.00     0.274 HD
ATOM     32  H11 UNL     1      13.924  18.794  72.961  1.00  0.00     0.274 HD
ENDBRANCH  26  29
ENDBRANCH  25  26
BRANCH  25  33
HETATM   33  O1  UNL     1      13.612  16.407  76.262  1.00  0.00    -0.374 OA
ATOM     34  H1  UNL     1      13.177  15.620  75.955  1.00  0.00     0.212 HD
ENDBRANCH  25  33
ENDBRANCH  23  25
ENDBRANCH   1  23
BRANCH   9  35
HETATM   35  N11 UNL     1      12.498  20.063  77.856  1.00  0.00    -0.320 N 
ATOM     36 2H11 UNL     1      12.487  21.050  77.601  1.00  0.00     0.178 HD
ATOM     37 1H11 UNL     1      11.642  19.512  77.935  1.00  0.00     0.178 HD
ENDBRANCH   9  35
TORSDOF 9
ENDMDL
MODEL 4
REMARK VINA RESULT: -5.564196345      4.843      9.170
REMARK  9 active torsions:
REMARK  status: ('A' for Active; 'I' for Inactive)
REMARK    1  A    between atoms: C2_2  and  C3_3 
REMARK    2  A    between atoms: C3_3  and  N1_4 
REMARK    3  A    between atoms: C3_3  and  C4_8 
REMARK    4  A    between atoms: C4_8  and  O1_9 
REMARK    5  A    between atoms: C4_8  and  N2_11 
REMARK    6  A    between atoms: N2_11  and  C5_13 
REMARK    7  A    between atoms: C6_16  and  C7_17 
REMARK       I    between atoms: C7_17  and  N4_19 
REMARK    8  A    between atoms: N4_19  and  N5_21 
REMARK    9  A    between atoms: N10_34  and  N11_35 
ROOT
HETATM    1  C5  UNL     1      12.500  18.887  75.828  1.00  0.00     0.707 A 
HETATM    2  N3  UNL     1      11.394  19.605  75.586  1.00  0.00    -0.169 N 
ATOM      3  H3  UNL     1      11.260  19.985  74.649  1.00  0.00     0.186 HD
HETATM    4  C6  UNL     1      10.448  19.854  76.516  1.00  0.00     0.195 A 
HETATM    5  N9  UNL     1      10.670  19.332  77.733  1.00  0.00    -0.287 N 
ATOM      6  H9  UNL     1       9.977  19.498  78.464  1.00  0.00     0.172 HD
HETATM    7  C10 UNL     1      11.768  18.595  78.043  1.00  0.00     0.361 A 
HETATM    8  O4  UNL     1      11.930  18.134  79.186  1.00  0.00    -0.244 OA
HETATM    9  N10 UNL     1      12.666  18.392  77.065  1.00  0.00    -0.038 N 
ENDROOT
BRANCH   4  10
HETATM   10  C7  UNL     1       9.264  20.631  76.231  1.00  0.00     0.306 C 
HETATM   11  O2  UNL     1       8.332  20.551  77.094  1.00  0.00    -0.263 OA
HETATM   12  N4  UNL     1       9.128  21.433  75.071  1.00  0.00    -0.239 N 
ATOM     13  H4  UNL     1       9.898  21.470  74.402  1.00  0.00     0.192 HD
BRANCH  12  14
HETATM   14  N5  UNL     1       7.973  22.177  74.814  1.00  0.00    -0.123 N 
HETATM   15  N6  UNL     1       6.867  21.654  74.143  1.00  0.00     0.006 NA
HETATM   16  N7  UNL     1       6.397  22.580  73.228  1.00  0.00    -0.278 N 
HETATM   17  C8  UNL     1       6.296  23.940  73.627  1.00  0.00     0.200 C 
ATOM     18  H7  UNL     1       6.129  22.292  72.287  1.00  0.00     0.185 HD
HETATM   19  N8  UNL     1       7.014  24.419  74.600  1.00  0.00    -0.301 N 
HETATM   20  C9  UNL     1       7.905  23.527  75.249  1.00  0.00     0.360 C 
ATOM     21  H8  UNL     1       6.939  25.395  74.884  1.00  0.00     0.171 HD
HETATM   22  O3  UNL     1       8.645  23.928  76.218  1.00  0.00    -0.243 OA
ENDBRANCH  12  14
ENDBRANCH   4  10
BRANCH   1  23
HETATM   23  N2  UNL     1      13.401  18.649  74.950  1.00  0.00    -0.196 N 
ATOM     24  H2  UNL     1      14.342  19.013  75.097  1.00  0.00     0.180 HD
BRANCH  23  25
HETATM   25  C4  UNL     1      13.124  17.881  73.759  1.00  0.00     0.265 C 
BRANCH  25  26
HETATM   26  C3  UNL     1      12.577  16.526  74.148  1.00  0.00     0.231 C 
BRANCH  26  27
HETATM   27  C2  UNL     1      11.113  16.371  73.855  1.00  0.00     0.033 C 
HETATM   28  C1  UNL     1      10.309  16.079  75.084  1.00  0.00     0.007 C 
ENDBRANCH  26  27
BRANCH  26  29
HETATM   29  N1  UNL     1      13.314  15.495  73.447  1.00  0.00    -0.071 N 
ATOM     30  H13 UNL     1      12.797  15.120  72.653  1.00  0.00     0.274 HD
ATOM     31  H12 UNL     1      14.113  15.869  72.935  1.00  0.00     0.274 HD
ATOM     32  H11 UNL     1      13.586  14.769  74.110  1.00  0.00     0.274 HD
ENDBRANCH  26  29
ENDBRANCH  25  26
BRANCH  25  33
HETATM   33  O1  UNL     1      12.094  18.549  73.084  1.00  0.00    -0.374 OA
ATOM     34  H1  UNL     1      12.486  19.318  72.686  1.00  0.00     0.212 HD
ENDBRANCH  25  33
ENDBRANCH  23  25
ENDBRANCH   1  23
BRANCH   9  35
HETATM   35  N11 UNL     1      13.826  17.629  77.348  1.00  0.00    -0.320 N 
ATOM     36 2H11 UNL     1      14.157  16.959  76.653  1.00  0.00     0.178 HD
ATOM     37 1H11 UNL     1      14.304  17.768  78.239  1.00  0.00     0.178 HD
ENDBRANCH   9  35
TORSDOF 9
ENDMDL
MODEL 5
REMARK VINA RESULT: -5.512590743      1.756      2.189
REMARK  9 active torsions:
REMARK  status: ('A' for Active; 'I' for Inactive)
REMARK    1  A    between atoms: C2_2  and  C3_3 
REMARK    2  A    between atoms: C3_3  and  N1_4 
REMARK    3  A    between atoms: C3_3  and  C4_8 
REMARK    4  A    between atoms: C4_8  and  O1_9 
REMARK    5  A    between atoms: C4_8  and  N2_11 
REMARK    6  A    between atoms: N2_11  and  C5_13 
REMARK    7  A    between atoms: C6_16  and  C7_17 
REMARK       I    between atoms: C7_17  and  N4_19 
REMARK    8  A    between atoms: N4_19  and  N5_21 
REMARK    9  A    between atoms: N10_34  and  N11_35 
ROOT
HETATM    1  C5  UNL     1      14.847  18.865  77.998  1.00  0.00     0.707 A 
HETATM    2  N3  UNL     1      15.874  18.003  78.030  1.00  0.00    -0.169 N 
ATOM      3  H3  UNL     1      15.788  17.132  77.505  1.00  0.00     0.186 HD
HETATM    4  C6  UNL     1      17.013  18.224  78.719  1.00  0.00     0.195 A 
HETATM    5  N9  UNL     1      17.076  19.384  79.392  1.00  0.00    -0.287 N 
ATOM      6  H9  UNL     1      17.922  19.588  79.926  1.00  0.00     0.172 HD
HETATM    7  C10 UNL     1      16.073  20.300  79.400  1.00  0.00     0.361 A 
HETATM    8  O4  UNL     1      16.178  21.361  80.041  1.00  0.00    -0.244 OA
HETATM    9  N10 UNL     1      14.970  20.008  78.692  1.00  0.00    -0.038 N 
ENDROOT
BRANCH   4  10
HETATM   10  C7  UNL     1      18.105  17.279  78.738  1.00  0.00     0.306 C 
HETATM   11  O2  UNL     1      17.830  16.129  79.208  1.00  0.00    -0.263 OA
HETATM   12  N4  UNL     1      19.406  17.593  78.270  1.00  0.00    -0.239 N 
ATOM     13  H4  UNL     1      19.586  18.527  77.901  1.00  0.00     0.192 HD
BRANCH  12  14
HETATM   14  N5  UNL     1      20.450  16.663  78.299  1.00  0.00    -0.123 N 
HETATM   15  N6  UNL     1      20.601  15.662  77.339  1.00  0.00     0.006 NA
HETATM   16  N7  UNL     1      20.926  14.469  77.959  1.00  0.00    -0.278 N 
HETATM   17  C8  UNL     1      21.894  14.483  78.999  1.00  0.00     0.200 C 
ATOM     18  H7  UNL     1      20.480  13.597  77.675  1.00  0.00     0.185 HD
HETATM   19  N8  UNL     1      22.143  15.562  79.681  1.00  0.00    -0.301 N 
HETATM   20  C9  UNL     1      21.408  16.728  79.345  1.00  0.00     0.360 C 
ATOM     21  H8  UNL     1      22.838  15.570  80.427  1.00  0.00     0.171 HD
HETATM   22  O3  UNL     1      21.601  17.830  79.974  1.00  0.00    -0.243 OA
ENDBRANCH  12  14
ENDBRANCH   4  10
BRANCH   1  23
HETATM   23  N2  UNL     1      13.764  18.661  77.347  1.00  0.00    -0.196 N 
ATOM     24  H2  UNL     1      12.933  18.357  77.854  1.00  0.00     0.180 HD
BRANCH  23  25
HETATM   25  C4  UNL     1      13.685  18.847  75.918  1.00  0.00     0.265 C 
BRANCH  25  26
HETATM   26  C3  UNL     1      12.802  17.776  75.317  1.00  0.00     0.231 C 
BRANCH  26  27
HETATM   27  C2  UNL     1      13.030  17.574  73.848  1.00  0.00     0.033 C 
HETATM   28  C1  UNL     1      13.030  16.128  73.459  1.00  0.00     0.007 C 
ENDBRANCH  26  27
BRANCH  26  29
HETATM   29  N1  UNL     1      13.030  16.524  76.011  1.00  0.00    -0.071 N 
ATOM     30  H13 UNL     1      12.200  15.934  76.027  1.00  0.00     0.274 HD
ATOM     31  H12 UNL     1      13.642  15.898  75.488  1.00  0.00     0.274 HD
ATOM     32  H11 UNL     1      13.386  16.719  76.946  1.00  0.00     0.274 HD
ENDBRANCH  26  29
ENDBRANCH  25  26
BRANCH  25  33
HETATM   33  O1  UNL     1      13.030  20.067  75.709  1.00  0.00    -0.374 OA
ATOM     34  H1  UNL     1      13.066  20.236  74.774  1.00  0.00     0.212 HD
ENDBRANCH  25  33
ENDBRANCH  23  25
ENDBRANCH   1  23
BRANCH   9  35
HETATM   35  N11 UNL     1      13.900  20.938  78.675  1.00  0.00    -0.320 N 
ATOM     36 2H11 UNL     1      13.418  21.118  77.795  1.00  0.00     0.178 HD
ATOM     37 1H11 UNL     1      13.638  21.405  79.544  1.00  0.00     0.178 HD
ENDBRANCH   9  35
TORSDOF 9
ENDMDL
