MODEL 1
REMARK VINA RESULT: -5.673275615      0.000      0.000
REMARK  9 active torsions:
REMARK  status: ('A' for Active; 'I' for Inactive)
REMARK    1  A    between atoms: C2_2  and  N1_3 
REMARK    2  A    between atoms: C3_4  and  C4_5 
REMARK    3  A    between atoms: N2_7  and  N3_8 
REMARK    4  A    between atoms: N3_8  and  C6_10 
REMARK    5  A    between atoms: C6_10  and  C7_11 
REMARK    6  A    between atoms: C7_11  and  O1_12 
REMARK    7  A    between atoms: C7_11  and  C8_14 
REMARK       I    between atoms: C8_14  and  N4_16 
REMARK    8  A    between atoms: C12_30  and  N9_31 
REMARK    9  A    between atoms: N9_31  and  N10_33 
ROOT
HETATM    1  C8  UNL     1      10.977  19.154  75.143  1.00  0.00     0.261 C 
HETATM    2  O2  UNL     1      10.671  18.812  76.309  1.00  0.00    -0.270 OA
HETATM    3  N4  UNL     1      10.300  20.252  74.557  1.00  0.00    -0.262 N 
ATOM      4  H4  UNL     1      10.547  20.532  73.608  1.00  0.00     0.181 HD
HETATM    5  C9  UNL     1       9.300  20.969  75.235  1.00  0.00     0.184 C 
HETATM    6  N5  UNL     1       8.468  21.556  75.811  1.00  0.00    -0.172 NA
ENDROOT
BRANCH   1   7
HETATM    7  C7  UNL     1      12.022  18.442  74.370  1.00  0.00     0.230 C 
BRANCH   7   8
HETATM    8  C6  UNL     1      13.335  18.424  75.122  1.00  0.00     0.181 C 
BRANCH   8   9
HETATM    9  N3  UNL     1      13.514  19.570  75.948  1.00  0.00    -0.323 N 
ATOM     10  H3  UNL     1      12.921  20.372  75.736  1.00  0.00     0.180 HD
BRANCH   9  11
HETATM   11  N2  UNL     1      14.398  19.728  77.007  1.00  0.00    -0.220 N 
HETATM   12  C5  UNL     1      15.336  18.752  77.209  1.00  0.00     0.142 A 
HETATM   13  C4  UNL     1      16.283  18.796  78.195  1.00  0.00     0.096 A 
HETATM   14  C11 UNL     1      16.237  19.943  79.019  1.00  0.00     0.264 A 
HETATM   15  N6  UNL     1      15.329  20.884  78.821  1.00  0.00    -0.273 N 
HETATM   16  O4  UNL     1      17.089  20.043  79.951  1.00  0.00    -0.267 OA
HETATM   17  C10 UNL     1      14.418  20.779  77.826  1.00  0.00     0.347 A 
ATOM     18  H6  UNL     1      15.315  21.704  79.429  1.00  0.00     0.173 HD
HETATM   19  O3  UNL     1      13.609  21.730  77.728  1.00  0.00    -0.245 OA
BRANCH  13  20
HETATM   20  C3  UNL     1      17.267  17.797  78.510  1.00  0.00     0.155 A 
HETATM   21  N1  UNL     1      17.264  16.707  79.283  1.00  0.00    -0.164 N 
HETATM   22  C12 UNL     1      18.500  16.124  79.272  1.00  0.00     0.714 A 
HETATM   23  N8  UNL     1      19.274  16.882  78.473  1.00  0.00    -0.129 N 
HETATM   24  N7  UNL     1      18.549  17.861  78.028  1.00  0.00    -0.270 N 
ATOM     25  H8  UNL     1      20.258  16.716  78.255  1.00  0.00     0.205 HD
ATOM     26  H7  UNL     1      18.889  18.588  77.398  1.00  0.00     0.189 HD
BRANCH  21  27
HETATM   27  C2  UNL     1      16.191  16.138  80.063  1.00  0.00     0.145 C 
HETATM   28  C1  UNL     1      16.046  16.851  81.365  1.00  0.00     0.027 C 
ENDBRANCH  21  27
BRANCH  22  29
HETATM   29  N9  UNL     1      18.926  15.085  79.829  1.00  0.00    -0.137 N 
ATOM     30  H9  UNL     1      19.248  15.256  80.781  1.00  0.00     0.205 HD
BRANCH  29  31
HETATM   31  N10 UNL     1      19.058  13.786  79.460  1.00  0.00    -0.331 N 
ATOM     32 2H10 UNL     1      18.384  13.538  78.736  1.00  0.00     0.177 HD
ATOM     33 1H10 UNL     1      19.667  13.017  79.738  1.00  0.00     0.177 HD
ENDBRANCH  29  31
ENDBRANCH  22  29
ENDBRANCH  13  20
ENDBRANCH   9  11
ENDBRANCH   8   9
ENDBRANCH   7   8
BRANCH   7  34
HETATM   34  O1  UNL     1      12.196  19.081  73.115  1.00  0.00    -0.384 OA
ATOM     35  H1  UNL     1      12.631  18.491  72.511  1.00  0.00     0.210 HD
ENDBRANCH   7  34
ENDBRANCH   1   7
TORSDOF 9
ENDMDL
MODEL 2
REMARK VINA RESULT: -5.657901739      1.946      2.869
REMARK  9 active torsions:
REMARK  status: ('A' for Active; 'I' for Inactive)
REMARK    1  A    between atoms: C2_2  and  N1_3 
REMARK    2  A    between atoms: C3_4  and  C4_5 
REMARK    3  A    between atoms: N2_7  and  N3_8 
REMARK    4  A    between atoms: N3_8  and  C6_10 
REMARK    5  A    between atoms: C6_10  and  C7_11 
REMARK    6  A    between atoms: C7_11  and  O1_12 
REMARK    7  A    between atoms: C7_11  and  C8_14 
REMARK       I    between atoms: C8_14  and  N4_16 
REMARK    8  A    between atoms: C12_30  and  N9_31 
REMARK    9  A    between atoms: N9_31  and  N10_33 
ROOT
HETATM    1  C8  UNL     1      13.407  17.167  74.154  1.00  0.00     0.261 C 
HETATM    2  O2  UNL     1      13.702  16.526  75.190  1.00  0.00    -0.270 OA
HETATM    3  N4  UNL     1      13.351  16.473  72.920  1.00  0.00    -0.262 N 
ATOM      4  H4  UNL     1      13.112  16.992  72.075  1.00  0.00     0.181 HD
HETATM    5  C9  UNL     1      13.613  15.097  72.816  1.00  0.00     0.184 C 
HETATM    6  N5  UNL     1      13.835  13.950  72.744  1.00  0.00    -0.172 NA
ENDROOT
BRANCH   1   7
HETATM    7  C7  UNL     1      13.119  18.619  74.191  1.00  0.00     0.230 C 
BRANCH   7   8
HETATM    8  C6  UNL     1      12.709  19.056  75.580  1.00  0.00     0.181 C 
BRANCH   8   9
HETATM    9  N3  UNL     1      13.477  20.152  76.065  1.00  0.00    -0.323 N 
ATOM     10  H3  UNL     1      13.382  21.028  75.550  1.00  0.00     0.180 HD
BRANCH   9  11
HETATM   11  N2  UNL     1      14.341  20.174  77.152  1.00  0.00    -0.220 N 
HETATM   12  C5  UNL     1      15.184  19.109  77.321  1.00  0.00     0.142 A 
HETATM   13  C4  UNL     1      16.103  19.017  78.330  1.00  0.00     0.096 A 
HETATM   14  C11 UNL     1      16.133  20.117  79.216  1.00  0.00     0.264 A 
HETATM   15  N6  UNL     1      15.316  21.144  79.050  1.00  0.00    -0.273 N 
HETATM   16  O4  UNL     1      16.963  20.091  80.172  1.00  0.00    -0.267 OA
HETATM   17  C10 UNL     1      14.429  21.174  78.029  1.00  0.00     0.347 A 
ATOM     18  H6  UNL     1      15.356  21.928  79.702  1.00  0.00     0.173 HD
HETATM   19  O3  UNL     1      13.708  22.196  77.965  1.00  0.00    -0.245 OA
BRANCH  13  20
HETATM   20  C3  UNL     1      16.987  17.920  78.612  1.00  0.00     0.155 A 
HETATM   21  N1  UNL     1      16.863  16.788  79.312  1.00  0.00    -0.164 N 
HETATM   22  C12 UNL     1      18.046  16.102  79.305  1.00  0.00     0.714 A 
HETATM   23  N8  UNL     1      18.911  16.839  78.582  1.00  0.00    -0.129 N 
HETATM   24  N7  UNL     1      18.287  17.903  78.178  1.00  0.00    -0.270 N 
ATOM     25  H8  UNL     1      19.884  16.603  78.387  1.00  0.00     0.205 HD
ATOM     26  H7  UNL     1      18.711  18.635  77.608  1.00  0.00     0.189 HD
BRANCH  21  27
HETATM   27  C2  UNL     1      15.718  16.266  80.018  1.00  0.00     0.145 C 
HETATM   28  C1  UNL     1      15.620  16.860  81.383  1.00  0.00     0.027 C 
ENDBRANCH  21  27
BRANCH  22  29
HETATM   29  N9  UNL     1      18.361  14.999  79.806  1.00  0.00    -0.137 N 
ATOM     30  H9  UNL     1      18.928  15.100  80.648  1.00  0.00     0.205 HD
BRANCH  29  31
HETATM   31  N10 UNL     1      18.125  13.700  79.490  1.00  0.00    -0.331 N 
ATOM     32 2H10 UNL     1      18.467  13.480  78.555  1.00  0.00     0.177 HD
ATOM     33 1H10 UNL     1      17.693  12.910  79.968  1.00  0.00     0.177 HD
ENDBRANCH  29  31
ENDBRANCH  22  29
ENDBRANCH  13  20
ENDBRANCH   9  11
ENDBRANCH   8   9
ENDBRANCH   7   8
BRANCH   7  34
HETATM   34  O1  UNL     1      12.083  18.916  73.268  1.00  0.00    -0.384 OA
ATOM     35  H1  UNL     1      12.455  19.091  72.412  1.00  0.00     0.210 HD
ENDBRANCH   7  34
ENDBRANCH   1   7
TORSDOF 9
ENDMDL
MODEL 3
REMARK VINA RESULT: -5.632733340      1.711      2.205
REMARK  9 active torsions:
REMARK  status: ('A' for Active; 'I' for Inactive)
REMARK    1  A    between atoms: C2_2  and  N1_3 
REMARK    2  A    between atoms: C3_4  and  C4_5 
REMARK    3  A    between atoms: N2_7  and  N3_8 
REMARK    4  A    between atoms: N3_8  and  C6_10 
REMARK    5  A    between atoms: C6_10  and  C7_11 
REMARK    6  A    between atoms: C7_11  and  O1_12 
REMARK    7  A    between atoms: C7_11  and  C8_14 
REMARK       I    between atoms: C8_14  and  N4_16 
REMARK    8  A    between atoms: C12_30  and  N9_31 
REMARK    9  A    between atoms: N9_31  and  N10_33 
ROOT
HETATM    1  C8  UNL     1      12.236  16.881  74.074  1.00  0.00     0.261 C 
HETATM    2  O2  UNL     1      12.743  15.900  73.479  1.00  0.00    -0.270 OA
HETATM    3  N4  UNL     1      10.927  16.753  74.601  1.00  0.00    -0.262 N 
ATOM      4  H4  UNL     1      10.512  17.549  75.085  1.00  0.00     0.181 HD
HETATM    5  C9  UNL     1      10.179  15.570  74.482  1.00  0.00     0.184 C 
HETATM    6  N5  UNL     1       9.567  14.579  74.374  1.00  0.00    -0.172 NA
ENDROOT
BRANCH   1   7
HETATM    7  C7  UNL     1      12.968  18.159  74.235  1.00  0.00     0.230 C 
BRANCH   7   8
HETATM    8  C6  UNL     1      12.635  18.811  75.559  1.00  0.00     0.181 C 
BRANCH   8   9
HETATM    9  N3  UNL     1      13.526  19.870  75.894  1.00  0.00    -0.323 N 
ATOM     10  H3  UNL     1      13.545  20.660  75.248  1.00  0.00     0.180 HD
BRANCH   9  11
HETATM   11  N2  UNL     1      14.373  19.958  76.990  1.00  0.00    -0.220 N 
HETATM   12  C5  UNL     1      15.287  18.955  77.174  1.00  0.00     0.142 A 
HETATM   13  C4  UNL     1      16.199  18.931  78.194  1.00  0.00     0.096 A 
HETATM   14  C11 UNL     1      16.142  20.035  79.074  1.00  0.00     0.264 A 
HETATM   15  N6  UNL     1      15.258  21.002  78.893  1.00  0.00    -0.273 N 
HETATM   16  O4  UNL     1      16.961  20.072  80.040  1.00  0.00    -0.267 OA
HETATM   17  C10 UNL     1      14.382  20.965  77.862  1.00  0.00     0.347 A 
ATOM     18  H6  UNL     1      15.235  21.790  79.541  1.00  0.00     0.173 HD
HETATM   19  O3  UNL     1      13.593  21.934  77.785  1.00  0.00    -0.245 OA
BRANCH  13  20
HETATM   20  C3  UNL     1      17.153  17.900  78.492  1.00  0.00     0.155 A 
HETATM   21  N1  UNL     1      17.115  16.790  79.236  1.00  0.00    -0.164 N 
HETATM   22  C12 UNL     1      18.336  16.175  79.221  1.00  0.00     0.714 A 
HETATM   23  N8  UNL     1      19.137  16.934  78.449  1.00  0.00    -0.129 N 
HETATM   24  N7  UNL     1      18.441  17.943  78.023  1.00  0.00    -0.270 N 
ATOM     25  H8  UNL     1      20.118  16.748  78.236  1.00  0.00     0.205 HD
ATOM     26  H7  UNL     1      18.806  18.676  77.416  1.00  0.00     0.189 HD
BRANCH  21  27
HETATM   27  C2  UNL     1      16.021  16.230  79.992  1.00  0.00     0.145 C 
HETATM   28  C1  UNL     1      15.900  16.893  81.322  1.00  0.00     0.027 C 
ENDBRANCH  21  27
BRANCH  22  29
HETATM   29  N9  UNL     1      18.729  15.113  79.754  1.00  0.00    -0.137 N 
ATOM     30  H9  UNL     1      18.956  15.231  80.741  1.00  0.00     0.205 HD
BRANCH  29  31
HETATM   31  N10 UNL     1      18.925  13.840  79.325  1.00  0.00    -0.331 N 
ATOM     32 2H10 UNL     1      18.360  13.638  78.500  1.00  0.00     0.177 HD
ATOM     33 1H10 UNL     1      19.498  13.056  79.634  1.00  0.00     0.177 HD
ENDBRANCH  29  31
ENDBRANCH  22  29
ENDBRANCH  13  20
ENDBRANCH   9  11
ENDBRANCH   8   9
ENDBRANCH   7   8
BRANCH   7  34
HETATM   34  O1  UNL     1      12.629  19.033  73.170  1.00  0.00    -0.384 OA
ATOM     35  H1  UNL     1      11.750  18.843  72.866  1.00  0.00     0.210 HD
ENDBRANCH   7  34
ENDBRANCH   1   7
TORSDOF 9
ENDMDL
MODEL 4
REMARK VINA RESULT: -5.537200625      2.608      3.619
REMARK  9 active torsions:
REMARK  status: ('A' for Active; 'I' for Inactive)
REMARK    1  A    between atoms: C2_2  and  N1_3 
REMARK    2  A    between atoms: C3_4  and  C4_5 
REMARK    3  A    between atoms: N2_7  and  N3_8 
REMARK    4  A    between atoms: N3_8  and  C6_10 
REMARK    5  A    between atoms: C6_10  and  C7_11 
REMARK    6  A    between atoms: C7_11  and  O1_12 
REMARK    7  A    between atoms: C7_11  and  C8_14 
REMARK       I    between atoms: C8_14  and  N4_16 
REMARK    8  A    between atoms: C12_30  and  N9_31 
REMARK    9  A    between atoms: N9_31  and  N10_33 
ROOT
HETATM    1  C8  UNL     1      13.593  18.222  75.871  1.00  0.00     0.261 C 
HETATM    2  O2  UNL     1      13.787  17.184  76.545  1.00  0.00    -0.270 OA
HETATM    3  N4  UNL     1      13.408  18.098  74.472  1.00  0.00    -0.262 N 
ATOM      4  H4  UNL     1      13.250  18.942  73.920  1.00  0.00     0.181 HD
HETATM    5  C9  UNL     1      13.434  16.857  73.815  1.00  0.00     0.184 C 
HETATM    6  N5  UNL     1      13.459  15.816  73.281  1.00  0.00    -0.172 NA
ENDROOT
BRANCH   1   7
HETATM    7  C7  UNL     1      13.553  19.564  76.498  1.00  0.00     0.230 C 
BRANCH   7   8
HETATM    8  C6  UNL     1      14.895  19.920  77.102  1.00  0.00     0.181 C 
BRANCH   8   9
HETATM    9  N3  UNL     1      15.274  19.046  78.160  1.00  0.00    -0.323 N 
ATOM     10  H3  UNL     1      14.554  18.402  78.489  1.00  0.00     0.180 HD
BRANCH   9  11
HETATM   11  N2  UNL     1      16.504  18.964  78.799  1.00  0.00    -0.220 N 
HETATM   12  C5  UNL     1      17.402  18.037  78.340  1.00  0.00     0.142 A 
HETATM   13  C4  UNL     1      18.657  17.870  78.858  1.00  0.00     0.096 A 
HETATM   14  C11 UNL     1      18.984  18.735  79.926  1.00  0.00     0.264 A 
HETATM   15  N6  UNL     1      18.114  19.628  80.367  1.00  0.00    -0.273 N 
HETATM   16  O4  UNL     1      20.133  18.629  80.450  1.00  0.00    -0.267 OA
HETATM   17  C10 UNL     1      16.886  19.742  79.810  1.00  0.00     0.347 A 
ATOM     18  H6  UNL     1      18.373  20.242  81.140  1.00  0.00     0.173 HD
HETATM   19  O3  UNL     1      16.146  20.624  80.303  1.00  0.00    -0.245 OA
BRANCH  13  20
HETATM   20  C3  UNL     1      19.639  16.894  78.476  1.00  0.00     0.155 A 
HETATM   21  N1  UNL     1      19.822  15.602  78.764  1.00  0.00    -0.164 N 
HETATM   22  C12 UNL     1      20.964  15.146  78.168  1.00  0.00     0.714 A 
HETATM   23  N8  UNL     1      21.490  16.191  77.501  1.00  0.00    -0.129 N 
HETATM   24  N7  UNL     1      20.711  17.213  77.683  1.00  0.00    -0.270 N 
ATOM     25  H8  UNL     1      22.349  16.181  76.949  1.00  0.00     0.205 HD
ATOM     26  H7  UNL     1      20.876  18.139  77.287  1.00  0.00     0.189 HD
BRANCH  21  27
HETATM   27  C2  UNL     1      19.015  14.720  79.574  1.00  0.00     0.145 C 
HETATM   28  C1  UNL     1      19.368  14.853  81.016  1.00  0.00     0.027 C 
ENDBRANCH  21  27
BRANCH  22  29
HETATM   29  N9  UNL     1      21.488  14.009  78.153  1.00  0.00    -0.137 N 
ATOM     30  H9  UNL     1      21.268  13.488  77.305  1.00  0.00     0.205 HD
BRANCH  29  31
HETATM   31  N10 UNL     1      22.281  13.308  79.004  1.00  0.00    -0.331 N 
ATOM     32 2H10 UNL     1      23.229  13.682  79.016  1.00  0.00     0.177 HD
ATOM     33 1H10 UNL     1      22.144  12.508  79.621  1.00  0.00     0.177 HD
ENDBRANCH  29  31
ENDBRANCH  22  29
ENDBRANCH  13  20
ENDBRANCH   9  11
ENDBRANCH   8   9
ENDBRANCH   7   8
BRANCH   7  34
HETATM   34  O1  UNL     1      12.554  19.582  77.505  1.00  0.00    -0.384 OA
ATOM     35  H1  UNL     1      11.904  20.244  77.300  1.00  0.00     0.210 HD
ENDBRANCH   7  34
ENDBRANCH   1   7
TORSDOF 9
ENDMDL
MODEL 5
REMARK VINA RESULT: -5.421717234      5.556      8.719
REMARK  9 active torsions:
REMARK  status: ('A' for Active; 'I' for Inactive)
REMARK    1  A    between atoms: C2_2  and  N1_3 
REMARK    2  A    between atoms: C3_4  and  C4_5 
REMARK    3  A    between atoms: N2_7  and  N3_8 
REMARK    4  A    between atoms: N3_8  and  C6_10 
REMARK    5  A    between atoms: C6_10  and  C7_11 
REMARK    6  A    between atoms: C7_11  and  O1_12 
REMARK    7  A    between atoms: C7_11  and  C8_14 
REMARK       I    between atoms: C8_14  and  N4_16 
REMARK    8  A    between atoms: C12_30  and  N9_31 
REMARK    9  A    between atoms: N9_31  and  N10_33 
ROOT
HETATM    1  C8  UNL     1      13.052  17.286  74.135  1.00  0.00     0.261 C 
HETATM    2  O2  UNL     1      13.736  16.851  75.091  1.00  0.00    -0.270 OA
HETATM    3  N4  UNL     1      12.873  16.460  72.997  1.00  0.00    -0.262 N 
ATOM      4  H4  UNL     1      12.317  16.812  72.218  1.00  0.00     0.181 HD
HETATM    5  C9  UNL     1      13.433  15.175  72.903  1.00  0.00     0.184 C 
HETATM    6  N5  UNL     1      13.907  14.107  72.837  1.00  0.00    -0.172 NA
ENDROOT
BRANCH   1   7
HETATM    7  C7  UNL     1      12.433  18.631  74.168  1.00  0.00     0.230 C 
BRANCH   7   8
HETATM    8  C6  UNL     1      11.137  18.612  74.949  1.00  0.00     0.181 C 
BRANCH   8   9
HETATM    9  N3  UNL     1      11.269  17.990  76.223  1.00  0.00    -0.323 N 
ATOM     10  H3  UNL     1      12.075  18.277  76.780  1.00  0.00     0.180 HD
BRANCH   9  11
HETATM   11  N2  UNL     1      10.436  17.041  76.800  1.00  0.00    -0.220 N 
HETATM   12  C5  UNL     1      10.005  16.007  76.013  1.00  0.00     0.142 A 
HETATM   13  C4  UNL     1       9.206  14.990  76.461  1.00  0.00     0.096 A 
HETATM   14  C11 UNL     1       8.840  15.071  77.823  1.00  0.00     0.264 A 
HETATM   15  N6  UNL     1       9.259  16.072  78.580  1.00  0.00    -0.273 N 
HETATM   16  O4  UNL     1       8.101  14.158  78.298  1.00  0.00    -0.267 OA
HETATM   17  C10 UNL     1      10.049  17.048  78.075  1.00  0.00     0.347 A 
ATOM     18  H6  UNL     1       8.982  16.109  79.562  1.00  0.00     0.173 HD
HETATM   19  O3  UNL     1      10.388  17.943  78.881  1.00  0.00    -0.245 OA
BRANCH  13  20
HETATM   20  C3  UNL     1       8.665  13.900  75.697  1.00  0.00     0.155 A 
HETATM   21  N1  UNL     1       7.630  13.779  74.861  1.00  0.00    -0.164 N 
HETATM   22  C12 UNL     1       7.523  12.485  74.435  1.00  0.00     0.714 A 
HETATM   23  N8  UNL     1       8.518  11.801  75.031  1.00  0.00    -0.129 N 
HETATM   24  N7  UNL     1       9.186  12.633  75.769  1.00  0.00    -0.270 N 
ATOM     25  H8  UNL     1       8.713  10.805  74.921  1.00  0.00     0.205 HD
ATOM     26  H7  UNL     1       9.997  12.378  76.333  1.00  0.00     0.189 HD
BRANCH  21  27
HETATM   27  C2  UNL     1       6.694  14.780  74.408  1.00  0.00     0.145 C 
HETATM   28  C1  UNL     1       5.600  14.971  75.403  1.00  0.00     0.027 C 
ENDBRANCH  21  27
BRANCH  22  29
HETATM   29  N9  UNL     1       6.723  11.944  73.637  1.00  0.00    -0.137 N 
ATOM     30  H9  UNL     1       5.765  12.270  73.763  1.00  0.00     0.205 HD
BRANCH  29  31
HETATM   31  N10 UNL     1       6.834  11.025  72.644  1.00  0.00    -0.331 N 
ATOM     32 2H10 UNL     1       5.924  10.633  72.402  1.00  0.00     0.177 HD
ATOM     33 1H10 UNL     1       7.606  10.647  72.096  1.00  0.00     0.177 HD
ENDBRANCH  29  31
ENDBRANCH  22  29
ENDBRANCH  13  20
ENDBRANCH   9  11
ENDBRANCH   8   9
ENDBRANCH   7   8
BRANCH   7  34
HETATM   34  O1  UNL     1      12.186  19.067  72.840  1.00  0.00    -0.384 OA
ATOM     35  H1  UNL     1      11.718  18.393  72.362  1.00  0.00     0.210 HD
ENDBRANCH   7  34
ENDBRANCH   1   7
TORSDOF 9
ENDMDL
