MODEL 1
REMARK VINA RESULT: -9.308102061      0.000      0.000
REMARK  8 active torsions:
REMARK  status: ('A' for Active; 'I' for Inactive)
REMARK    1  A    between atoms: C2_2  and  C3_3 
REMARK    2  A    between atoms: C2_2  and  N1_9 
REMARK    3  A    between atoms: C4_4  and  C5_5 
REMARK       I    between atoms: N1_9  and  C7_11 
REMARK    4  A    between atoms: C7_11  and  C8_13 
REMARK    5  A    between atoms: N2_18  and  C13_19 
REMARK    6  A    between atoms: C13_19  and  O2_20 
REMARK    7  A    between atoms: C14_22  and  N3_23 
REMARK    8  A    between atoms: C14_22  and  C20_33 
REMARK       I    between atoms: N3_23  and  C15_25 
REMARK       I    between atoms: C15_25  and  N4_27 
ROOT
HETATM    1  C8  UNL     1       5.680   6.064  20.311  1.00  0.00     0.179 C 
HETATM    2  C9  UNL     1       4.856   6.630  19.208  1.00  0.00     0.042 C 
HETATM    3  C10 UNL     1       5.936   7.224  18.311  1.00  0.00     0.013 A 
HETATM    4  C11 UNL     1       6.190   8.646  18.511  1.00  0.00     0.032 A 
HETATM    5  C12 UNL     1       7.013   7.638  19.265  1.00  0.00     0.092 A 
HETATM    6  N2  UNL     1       6.684   7.144  20.556  1.00  0.00    -0.342 N 
ENDROOT
BRANCH   6   7
HETATM    7  C13 UNL     1       7.149   7.523  21.819  1.00  0.00     0.163 C 
HETATM    8  C14 UNL     1       7.049   8.627  22.714  1.00  0.00     0.072 C 
BRANCH   7   9
HETATM    9  O2  UNL     1       7.925   6.521  22.301  1.00  0.00    -0.345 OA
ATOM     10  H2  UNL     1       7.464   5.701  22.169  1.00  0.00     0.219 HD
ENDBRANCH   7   9
BRANCH   8  11
HETATM   11  N3  UNL     1       7.777   8.374  23.986  1.00  0.00    -0.308 N 
HETATM   12  C15 UNL     1       9.162   8.647  24.091  1.00  0.00     0.322 C 
HETATM   13  O3  UNL     1       9.748   9.112  23.053  1.00  0.00    -0.247 OA
HETATM   14  N4  UNL     1       9.917   8.440  25.257  1.00  0.00    -0.330 N 
HETATM   15  C16 UNL     1       9.327   7.916  26.471  1.00  0.00     0.153 C 
HETATM   16  C19 UNL     1      11.328   8.751  25.266  1.00  0.00     0.153 C 
HETATM   17  C17 UNL     1      10.301   7.189  27.342  1.00  0.00     0.187 C 
HETATM   18  O4  UNL     1      11.408   6.785  26.593  1.00  0.00    -0.388 OA
HETATM   19  C18 UNL     1      12.112   7.941  26.256  1.00  0.00     0.187 C 
ATOM     20  H3  UNL     1       7.274   8.000  24.791  1.00  0.00     0.170 HD
ENDBRANCH   8  11
BRANCH   8  21
HETATM   21  C20 UNL     1       5.858   9.390  23.055  1.00  0.00    -0.004 C 
HETATM   22  C21 UNL     1       4.543   8.971  22.481  1.00  0.00     0.021 C 
HETATM   23  C22 UNL     1       5.726   9.645  24.567  1.00  0.00     0.021 C 
HETATM   24  C23 UNL     1       6.081  10.822  22.510  1.00  0.00     0.021 C 
ENDBRANCH   8  21
ENDBRANCH   6   7
BRANCH   1  25
HETATM   25  C7  UNL     1       6.357   4.822  19.921  1.00  0.00     0.241 C 
HETATM   26  N1  UNL     1       6.085   4.069  18.781  1.00  0.00    -0.352 N 
ATOM     27  H1  UNL     1       5.355   4.387  18.143  1.00  0.00     0.163 HD
HETATM   28  O1  UNL     1       7.275   4.404  20.701  1.00  0.00    -0.271 OA
BRANCH  26  29
HETATM   29  C2  UNL     1       6.817   2.831  18.465  1.00  0.00     0.103 C 
HETATM   30  C1  UNL     1       5.890   1.791  17.925  1.00  0.00     0.036 C 
BRANCH  29  31
HETATM   31  C3  UNL     1       7.979   3.107  17.625  1.00  0.00    -0.001 C 
HETATM   32  C4  UNL     1       9.332   2.654  17.783  1.00  0.00     0.048 C 
BRANCH  32  33
HETATM   33  C5  UNL     1       9.866   1.304  17.841  1.00  0.00     0.258 C 
HETATM   34  C6  UNL     1       9.530   0.300  16.794  1.00  0.00     0.095 C 
HETATM   35  F1  UNL     1       9.502   0.686  19.076  1.00  0.00    -0.202 F 
HETATM   36  F2  UNL     1      11.280   1.303  17.948  1.00  0.00    -0.202 F 
ENDBRANCH  32  33
ENDBRANCH  29  31
ENDBRANCH  26  29
ENDBRANCH   1  25
TORSDOF 8
ENDMDL
MODEL 2
REMARK VINA RESULT: -8.917152948      0.764      1.134
REMARK  8 active torsions:
REMARK  status: ('A' for Active; 'I' for Inactive)
REMARK    1  A    between atoms: C2_2  and  C3_3 
REMARK    2  A    between atoms: C2_2  and  N1_9 
REMARK    3  A    between atoms: C4_4  and  C5_5 
REMARK       I    between atoms: N1_9  and  C7_11 
REMARK    4  A    between atoms: C7_11  and  C8_13 
REMARK    5  A    between atoms: N2_18  and  C13_19 
REMARK    6  A    between atoms: C13_19  and  O2_20 
REMARK    7  A    between atoms: C14_22  and  N3_23 
REMARK    8  A    between atoms: C14_22  and  C20_33 
REMARK       I    between atoms: N3_23  and  C15_25 
REMARK       I    between atoms: C15_25  and  N4_27 
ROOT
HETATM    1  C8  UNL     1       5.562   6.355  20.403  1.00  0.00     0.179 C 
HETATM    2  C9  UNL     1       4.764   7.017  19.335  1.00  0.00     0.042 C 
HETATM    3  C10 UNL     1       5.870   7.627  18.481  1.00  0.00     0.013 A 
HETATM    4  C11 UNL     1       6.173   9.024  18.771  1.00  0.00     0.032 A 
HETATM    5  C12 UNL     1       6.955   7.943  19.463  1.00  0.00     0.092 A 
HETATM    6  N2  UNL     1       6.602   7.381  20.720  1.00  0.00    -0.342 N 
ENDROOT
BRANCH   6   7
HETATM    7  C13 UNL     1       7.073   7.663  22.005  1.00  0.00     0.163 C 
HETATM    8  C14 UNL     1       6.896   8.644  23.023  1.00  0.00     0.072 C 
BRANCH   7   9
HETATM    9  O2  UNL     1       7.963   6.700  22.350  1.00  0.00    -0.345 OA
ATOM     10  H2  UNL     1       7.483   5.984  22.750  1.00  0.00     0.219 HD
ENDBRANCH   7   9
BRANCH   8  11
HETATM   11  N3  UNL     1       7.692   8.328  24.239  1.00  0.00    -0.308 N 
HETATM   12  C15 UNL     1       9.065   8.667  24.310  1.00  0.00     0.322 C 
HETATM   13  O3  UNL     1       9.579   9.246  23.292  1.00  0.00    -0.247 OA
HETATM   14  N4  UNL     1       9.881   8.406  25.422  1.00  0.00    -0.330 N 
HETATM   15  C16 UNL     1       9.373   7.754  26.612  1.00  0.00     0.153 C 
HETATM   16  C19 UNL     1      11.273   8.791  25.401  1.00  0.00     0.153 C 
HETATM   17  C17 UNL     1      10.421   7.012  27.378  1.00  0.00     0.187 C 
HETATM   18  O4  UNL     1      11.512   6.731  26.554  1.00  0.00    -0.388 OA
HETATM   19  C18 UNL     1      12.141   7.947  26.286  1.00  0.00     0.187 C 
ATOM     20  H3  UNL     1       7.245   7.863  25.029  1.00  0.00     0.170 HD
ENDBRANCH   8  11
BRANCH   8  21
HETATM   21  C20 UNL     1       5.648   9.236  23.479  1.00  0.00    -0.004 C 
HETATM   22  C21 UNL     1       5.512   9.614  24.920  1.00  0.00     0.021 C 
HETATM   23  C22 UNL     1       5.168  10.386  22.577  1.00  0.00     0.021 C 
HETATM   24  C23 UNL     1       4.545   8.173  23.252  1.00  0.00     0.021 C 
ENDBRANCH   8  21
ENDBRANCH   6   7
BRANCH   1  25
HETATM   25  C7  UNL     1       6.196   5.116  19.938  1.00  0.00     0.241 C 
HETATM   26  N1  UNL     1       5.709   4.275  18.941  1.00  0.00    -0.352 N 
ATOM     27  H1  UNL     1       4.833   4.518  18.476  1.00  0.00     0.163 HD
HETATM   28  O1  UNL     1       7.293   4.791  20.503  1.00  0.00    -0.271 OA
BRANCH  26  29
HETATM   29  C2  UNL     1       6.414   3.048  18.535  1.00  0.00     0.103 C 
HETATM   30  C1  UNL     1       5.452   1.918  18.359  1.00  0.00     0.036 C 
BRANCH  29  31
HETATM   31  C3  UNL     1       7.280   3.296  17.386  1.00  0.00    -0.001 C 
HETATM   32  C4  UNL     1       8.710   3.199  17.299  1.00  0.00     0.048 C 
BRANCH  32  33
HETATM   33  C5  UNL     1       9.587   2.068  17.543  1.00  0.00     0.258 C 
HETATM   34  C6  UNL     1       9.266   1.058  18.588  1.00  0.00     0.095 C 
HETATM   35  F1  UNL     1      10.901   2.528  17.866  1.00  0.00    -0.202 F 
HETATM   36  F2  UNL     1       9.845   1.337  16.355  1.00  0.00    -0.202 F 
ENDBRANCH  32  33
ENDBRANCH  29  31
ENDBRANCH  26  29
ENDBRANCH   1  25
TORSDOF 8
ENDMDL
MODEL 3
REMARK VINA RESULT: -8.786389784      1.048      1.259
REMARK  8 active torsions:
REMARK  status: ('A' for Active; 'I' for Inactive)
REMARK    1  A    between atoms: C2_2  and  C3_3 
REMARK    2  A    between atoms: C2_2  and  N1_9 
REMARK    3  A    between atoms: C4_4  and  C5_5 
REMARK       I    between atoms: N1_9  and  C7_11 
REMARK    4  A    between atoms: C7_11  and  C8_13 
REMARK    5  A    between atoms: N2_18  and  C13_19 
REMARK    6  A    between atoms: C13_19  and  O2_20 
REMARK    7  A    between atoms: C14_22  and  N3_23 
REMARK    8  A    between atoms: C14_22  and  C20_33 
REMARK       I    between atoms: N3_23  and  C15_25 
REMARK       I    between atoms: C15_25  and  N4_27 
ROOT
HETATM    1  C8  UNL     1       5.135   5.823  20.304  1.00  0.00     0.179 C 
HETATM    2  C9  UNL     1       4.513   6.294  19.036  1.00  0.00     0.042 C 
HETATM    3  C10 UNL     1       5.736   6.394  18.131  1.00  0.00     0.013 A 
HETATM    4  C11 UNL     1       6.328   7.724  18.039  1.00  0.00     0.032 A 
HETATM    5  C12 UNL     1       6.849   6.755  19.064  1.00  0.00     0.092 A 
HETATM    6  N2  UNL     1       6.367   6.665  20.397  1.00  0.00    -0.342 N 
ENDROOT
BRANCH   6   7
HETATM    7  C13 UNL     1       6.869   7.208  21.583  1.00  0.00     0.163 C 
HETATM    8  C14 UNL     1       6.905   8.460  22.262  1.00  0.00     0.072 C 
BRANCH   7   9
HETATM    9  O2  UNL     1       7.509   6.222  22.260  1.00  0.00    -0.345 OA
ATOM     10  H2  UNL     1       7.799   6.576  23.093  1.00  0.00     0.219 HD
ENDBRANCH   7   9
BRANCH   8  11
HETATM   11  N3  UNL     1       7.589   8.355  23.579  1.00  0.00    -0.308 N 
HETATM   12  C15 UNL     1       8.971   8.636  23.699  1.00  0.00     0.322 C 
HETATM   13  O3  UNL     1       9.594   8.977  22.634  1.00  0.00    -0.247 OA
HETATM   14  N4  UNL     1       9.685   8.564  24.905  1.00  0.00    -0.330 N 
HETATM   15  C16 UNL     1       9.051   8.187  26.151  1.00  0.00     0.153 C 
HETATM   16  C19 UNL     1      11.096   8.872  24.927  1.00  0.00     0.153 C 
HETATM   17  C17 UNL     1       9.992   7.563  27.133  1.00  0.00     0.187 C 
HETATM   18  O4  UNL     1      11.121   7.073  26.475  1.00  0.00    -0.388 OA
HETATM   19  C18 UNL     1      11.842   8.181  26.030  1.00  0.00     0.187 C 
ATOM     20  H3  UNL     1       7.056   8.078  24.404  1.00  0.00     0.170 HD
ENDBRANCH   8  11
BRANCH   8  21
HETATM   21  C20 UNL     1       5.819   9.414  22.426  1.00  0.00    -0.004 C 
HETATM   22  C21 UNL     1       4.640   9.331  21.510  1.00  0.00     0.021 C 
HETATM   23  C22 UNL     1       5.353   9.542  23.887  1.00  0.00     0.021 C 
HETATM   24  C23 UNL     1       6.419  10.816  22.159  1.00  0.00     0.021 C 
ENDBRANCH   8  21
ENDBRANCH   6   7
BRANCH   1  25
HETATM   25  C7  UNL     1       5.495   4.402  20.254  1.00  0.00     0.241 C 
HETATM   26  N1  UNL     1       5.648   3.640  19.099  1.00  0.00    -0.352 N 
ATOM     27  H1  UNL     1       5.502   4.084  18.192  1.00  0.00     0.163 HD
HETATM   28  O1  UNL     1       5.685   3.823  21.375  1.00  0.00    -0.271 OA
BRANCH  26  29
HETATM   29  C2  UNL     1       6.014   2.214  19.142  1.00  0.00     0.103 C 
HETATM   30  C1  UNL     1       5.724   1.553  17.833  1.00  0.00     0.036 C 
BRANCH  29  31
HETATM   31  C3  UNL     1       7.381   2.037  19.624  1.00  0.00    -0.001 C 
HETATM   32  C4  UNL     1       8.595   1.918  18.867  1.00  0.00     0.048 C 
BRANCH  32  33
HETATM   33  C5  UNL     1       9.196   2.833  17.913  1.00  0.00     0.258 C 
HETATM   34  C6  UNL     1       8.779   2.835  16.484  1.00  0.00     0.095 C 
HETATM   35  F1  UNL     1      10.612   2.650  17.884  1.00  0.00    -0.202 F 
HETATM   36  F2  UNL     1       9.109   4.179  18.351  1.00  0.00    -0.202 F 
ENDBRANCH  32  33
ENDBRANCH  29  31
ENDBRANCH  26  29
ENDBRANCH   1  25
TORSDOF 8
ENDMDL
MODEL 4
REMARK VINA RESULT: -8.458050642      2.051      2.895
REMARK  8 active torsions:
REMARK  status: ('A' for Active; 'I' for Inactive)
REMARK    1  A    between atoms: C2_2  and  C3_3 
REMARK    2  A    between atoms: C2_2  and  N1_9 
REMARK    3  A    between atoms: C4_4  and  C5_5 
REMARK       I    between atoms: N1_9  and  C7_11 
REMARK    4  A    between atoms: C7_11  and  C8_13 
REMARK    5  A    between atoms: N2_18  and  C13_19 
REMARK    6  A    between atoms: C13_19  and  O2_20 
REMARK    7  A    between atoms: C14_22  and  N3_23 
REMARK    8  A    between atoms: C14_22  and  C20_33 
REMARK       I    between atoms: N3_23  and  C15_25 
REMARK       I    between atoms: C15_25  and  N4_27 
ROOT
HETATM    1  C8  UNL     1       5.366   6.741  20.196  1.00  0.00     0.179 C 
HETATM    2  C9  UNL     1       4.704   7.551  19.137  1.00  0.00     0.042 C 
HETATM    3  C10 UNL     1       5.912   8.040  18.346  1.00  0.00     0.013 A 
HETATM    4  C11 UNL     1       6.391   9.368  18.710  1.00  0.00     0.032 A 
HETATM    5  C12 UNL     1       6.994   8.161  19.373  1.00  0.00     0.092 A 
HETATM    6  N2  UNL     1       6.524   7.600  20.591  1.00  0.00    -0.342 N 
ENDROOT
BRANCH   6   7
HETATM    7  C13 UNL     1       6.982   7.760  21.901  1.00  0.00     0.163 C 
HETATM    8  C14 UNL     1       6.763   8.615  23.020  1.00  0.00     0.072 C 
BRANCH   7   9
HETATM    9  O2  UNL     1       7.914   6.805  22.142  1.00  0.00    -0.345 OA
ATOM     10  H2  UNL     1       8.492   7.122  22.826  1.00  0.00     0.219 HD
ENDBRANCH   7   9
BRANCH   8  11
HETATM   11  N3  UNL     1       7.573   8.203  24.198  1.00  0.00    -0.308 N 
HETATM   12  C15 UNL     1       8.790   8.860  24.501  1.00  0.00     0.322 C 
HETATM   13  O3  UNL     1       9.154   9.808  23.722  1.00  0.00    -0.247 OA
HETATM   14  N4  UNL     1       9.607   8.533  25.594  1.00  0.00    -0.330 N 
HETATM   15  C16 UNL     1       9.263   7.473  26.520  1.00  0.00     0.153 C 
HETATM   16  C19 UNL     1      10.832   9.263  25.822  1.00  0.00     0.153 C 
HETATM   17  C17 UNL     1      10.452   6.854  27.185  1.00  0.00     0.187 C 
HETATM   18  O4  UNL     1      11.606   7.106  26.442  1.00  0.00    -0.388 OA
HETATM   19  C18 UNL     1      11.873   8.470  26.558  1.00  0.00     0.187 C 
ATOM     20  H3  UNL     1       7.249   7.440  24.792  1.00  0.00     0.170 HD
ENDBRANCH   8  11
BRANCH   8  21
HETATM   21  C20 UNL     1       5.490   9.099  23.533  1.00  0.00    -0.004 C 
HETATM   22  C21 UNL     1       5.419   9.587  24.945  1.00  0.00     0.021 C 
HETATM   23  C22 UNL     1       4.807  10.100  22.585  1.00  0.00     0.021 C 
HETATM   24  C23 UNL     1       4.512   7.900  23.488  1.00  0.00     0.021 C 
ENDBRANCH   8  21
ENDBRANCH   6   7
BRANCH   1  25
HETATM   25  C7  UNL     1       5.843   5.448  19.693  1.00  0.00     0.241 C 
HETATM   26  N1  UNL     1       7.079   4.870  19.971  1.00  0.00    -0.352 N 
ATOM     27  H1  UNL     1       7.731   5.369  20.577  1.00  0.00     0.163 HD
HETATM   28  O1  UNL     1       5.045   4.803  18.934  1.00  0.00    -0.271 OA
BRANCH  26  29
HETATM   29  C2  UNL     1       7.476   3.563  19.422  1.00  0.00     0.103 C 
HETATM   30  C1  UNL     1       8.749   3.678  18.649  1.00  0.00     0.036 C 
BRANCH  29  31
HETATM   31  C3  UNL     1       7.484   2.537  20.461  1.00  0.00    -0.001 C 
HETATM   32  C4  UNL     1       6.622   2.404  21.602  1.00  0.00     0.048 C 
BRANCH  32  33
HETATM   33  C5  UNL     1       5.177   2.271  21.672  1.00  0.00     0.258 C 
HETATM   34  C6  UNL     1       4.340   3.319  22.316  1.00  0.00     0.095 C 
HETATM   35  F1  UNL     1       4.830   1.058  22.341  1.00  0.00    -0.202 F 
HETATM   36  F2  UNL     1       4.608   2.042  20.393  1.00  0.00    -0.202 F 
ENDBRANCH  32  33
ENDBRANCH  29  31
ENDBRANCH  26  29
ENDBRANCH   1  25
TORSDOF 8
ENDMDL
MODEL 5
REMARK VINA RESULT: -8.279333134      1.422      1.818
REMARK  8 active torsions:
REMARK  status: ('A' for Active; 'I' for Inactive)
REMARK    1  A    between atoms: C2_2  and  C3_3 
REMARK    2  A    between atoms: C2_2  and  N1_9 
REMARK    3  A    between atoms: C4_4  and  C5_5 
REMARK       I    between atoms: N1_9  and  C7_11 
REMARK    4  A    between atoms: C7_11  and  C8_13 
REMARK    5  A    between atoms: N2_18  and  C13_19 
REMARK    6  A    between atoms: C13_19  and  O2_20 
REMARK    7  A    between atoms: C14_22  and  N3_23 
REMARK    8  A    between atoms: C14_22  and  C20_33 
REMARK       I    between atoms: N3_23  and  C15_25 
REMARK       I    between atoms: C15_25  and  N4_27 
ROOT
HETATM    1  C8  UNL     1       5.418   8.096  20.028  1.00  0.00     0.179 C 
HETATM    2  C9  UNL     1       5.063   9.118  19.005  1.00  0.00     0.042 C 
HETATM    3  C10 UNL     1       6.422   9.370  18.361  1.00  0.00     0.013 A 
HETATM    4  C11 UNL     1       7.150  10.518  18.888  1.00  0.00     0.032 A 
HETATM    5  C12 UNL     1       7.397   9.156  19.476  1.00  0.00     0.092 A 
HETATM    6  N2  UNL     1       6.695   8.629  20.593  1.00  0.00    -0.342 N 
ENDROOT
BRANCH   6   7
HETATM    7  C13 UNL     1       7.047   8.576  21.945  1.00  0.00     0.163 C 
HETATM    8  C14 UNL     1       6.608   9.109  23.191  1.00  0.00     0.072 C 
BRANCH   7   9
HETATM    9  O2  UNL     1       8.136   7.776  22.067  1.00  0.00    -0.345 OA
ATOM     10  H2  UNL     1       7.835   6.898  22.270  1.00  0.00     0.219 HD
ENDBRANCH   7   9
BRANCH   8  11
HETATM   11  N3  UNL     1       7.424   8.602  24.327  1.00  0.00    -0.308 N 
HETATM   12  C15 UNL     1       8.694   9.159  24.609  1.00  0.00     0.322 C 
HETATM   13  O3  UNL     1       9.101  10.104  23.848  1.00  0.00    -0.247 OA
HETATM   14  N4  UNL     1       9.520   8.738  25.663  1.00  0.00    -0.330 N 
HETATM   15  C16 UNL     1       9.130   7.675  26.566  1.00  0.00     0.153 C 
HETATM   16  C19 UNL     1      10.802   9.371  25.871  1.00  0.00     0.153 C 
HETATM   17  C17 UNL     1      10.292   6.952  27.171  1.00  0.00     0.187 C 
HETATM   18  O4  UNL     1      11.436   7.145  26.396  1.00  0.00    -0.388 OA
HETATM   19  C18 UNL     1      11.805   8.482  26.545  1.00  0.00     0.187 C 
ATOM     20  H3  UNL     1       7.064   7.845  24.909  1.00  0.00     0.170 HD
ENDBRANCH   8  11
BRANCH   8  21
HETATM   21  C20 UNL     1       5.241   9.229  23.675  1.00  0.00    -0.004 C 
HETATM   22  C21 UNL     1       4.349  10.264  23.068  1.00  0.00     0.021 C 
HETATM   23  C22 UNL     1       4.515   7.875  23.753  1.00  0.00     0.021 C 
HETATM   24  C23 UNL     1       5.335   9.626  25.169  1.00  0.00     0.021 C 
ENDBRANCH   8  21
ENDBRANCH   6   7
BRANCH   1  25
HETATM   25  C7  UNL     1       5.637   6.770  19.440  1.00  0.00     0.241 C 
HETATM   26  N1  UNL     1       6.749   5.958  19.651  1.00  0.00    -0.352 N 
ATOM     27  H1  UNL     1       7.493   6.291  20.266  1.00  0.00     0.163 HD
HETATM   28  O1  UNL     1       4.721   6.330  18.669  1.00  0.00    -0.271 OA
BRANCH  26  29
HETATM   29  C2  UNL     1       6.887   4.636  19.018  1.00  0.00     0.103 C 
HETATM   30  C1  UNL     1       7.354   4.771  17.606  1.00  0.00     0.036 C 
BRANCH  29  31
HETATM   31  C3  UNL     1       7.693   3.741  19.844  1.00  0.00    -0.001 C 
HETATM   32  C4  UNL     1       8.039   2.367  19.609  1.00  0.00     0.048 C 
BRANCH  32  33
HETATM   33  C5  UNL     1       8.748   1.758  18.497  1.00  0.00     0.258 C 
HETATM   34  C6  UNL     1       8.011   1.146  17.359  1.00  0.00     0.095 C 
HETATM   35  F1  UNL     1       9.614   0.727  18.975  1.00  0.00    -0.202 F 
HETATM   36  F2  UNL     1       9.689   2.651  17.922  1.00  0.00    -0.202 F 
ENDBRANCH  32  33
ENDBRANCH  29  31
ENDBRANCH  26  29
ENDBRANCH   1  25
TORSDOF 8
ENDMDL
