MODEL 1
REMARK VINA RESULT: -9.088206802      0.000      0.000
REMARK  8 active torsions:
REMARK  status: ('A' for Active; 'I' for Inactive)
REMARK    1  A    between atoms: C4_6  and  N2_7 
REMARK       I    between atoms: N2_7  and  C5_9 
REMARK    2  A    between atoms: C5_9  and  C6_11 
REMARK    3  A    between atoms: C6_11  and  C7_12 
REMARK    4  A    between atoms: C7_12  and  C8_13 
REMARK    5  A    between atoms: C7_12  and  C15_20 
REMARK    6  A    between atoms: C8_13  and  C9_14 
REMARK       I    between atoms: C15_20  and  N3_22 
REMARK       I    between atoms: N4_25  and  C18_26 
REMARK       I    between atoms: C18_26  and  N5_28 
REMARK    7  A    between atoms: N5_28  and  C19_30 
REMARK    8  A    between atoms: C19_30  and  C20_31 
ROOT
HETATM    1  C7  UNL     1       7.176   6.124  18.881  1.00  0.00     0.019 C 
ENDROOT
BRANCH   1   2
HETATM    2  C6  UNL     1       6.097   6.201  17.855  1.00  0.00     0.147 C 
BRANCH   2   3
HETATM    3  C5  UNL     1       5.446   7.512  17.757  1.00  0.00     0.227 C 
HETATM    4  N2  UNL     1       6.157   8.710  17.546  1.00  0.00    -0.312 N 
ATOM      5  H2  UNL     1       6.714   8.774  16.693  1.00  0.00     0.170 HD
HETATM    6  O1  UNL     1       4.179   7.634  17.862  1.00  0.00    -0.273 OA
BRANCH   4   7
HETATM    7  C4  UNL     1       6.169   9.727  18.324  1.00  0.00     0.123 A 
HETATM    8  N1  UNL     1       5.431   9.782  19.441  1.00  0.00    -0.349 N 
HETATM    9  C3  UNL     1       5.461  10.875  20.248  1.00  0.00     0.114 A 
ATOM     10  H1  UNL     1       4.838   8.991  19.689  1.00  0.00     0.167 HD
HETATM   11  C2  UNL     1       6.263  11.942  19.912  1.00  0.00     0.020 A 
HETATM   12  C1  UNL     1       6.314  13.153  20.781  1.00  0.00     0.069 C 
HETATM   13  N6  UNL     1       7.014  11.901  18.790  1.00  0.00    -0.365 N 
HETATM   14  C23 UNL     1       6.969  10.793  17.993  1.00  0.00     0.136 A 
ATOM     15  H6  UNL     1       7.609  12.691  18.540  1.00  0.00     0.165 HD
ENDBRANCH   4   7
ENDBRANCH   2   3
ENDBRANCH   1   2
BRANCH   1  16
HETATM   16  C8  UNL     1       8.280   5.200  18.706  1.00  0.00     0.016 C 
BRANCH  16  17
HETATM   17  C9  UNL     1       8.175   3.752  18.638  1.00  0.00    -0.079 C 
HETATM   18  C10 UNL     1       9.289   2.911  18.166  1.00  0.00     0.034 C 
HETATM   19  C11 UNL     1       8.772   1.508  17.849  1.00  0.00     0.004 C 
HETATM   20  C12 UNL     1       7.318   1.324  18.143  1.00  0.00     0.001 C 
HETATM   21  C13 UNL     1       6.913   1.769  19.507  1.00  0.00     0.004 C 
HETATM   22  C14 UNL     1       7.564   3.097  19.887  1.00  0.00     0.034 C 
ENDBRANCH  16  17
ENDBRANCH   1  16
BRANCH   1  23
HETATM   23  C15 UNL     1       6.628   6.370  20.220  1.00  0.00     0.250 C 
HETATM   24  O2  UNL     1       5.571   5.813  20.615  1.00  0.00    -0.268 OA
HETATM   25  N3  UNL     1       7.229   7.252  21.176  1.00  0.00    -0.345 N 
HETATM   26  C16 UNL     1       6.623   7.502  22.474  1.00  0.00     0.146 C 
HETATM   27  C22 UNL     1       8.485   7.894  20.860  1.00  0.00     0.146 C 
HETATM   28  C17 UNL     1       7.675   7.563  23.534  1.00  0.00     0.147 C 
HETATM   29  N4  UNL     1       8.731   8.492  23.200  1.00  0.00    -0.331 N 
HETATM   30  C18 UNL     1       9.700   8.899  24.136  1.00  0.00     0.318 C 
HETATM   31  C21 UNL     1       8.768   9.002  21.861  1.00  0.00     0.147 C 
HETATM   32  O3  UNL     1      10.605   9.714  23.789  1.00  0.00    -0.247 OA
HETATM   33  N5  UNL     1       9.687   8.411  25.471  1.00  0.00    -0.338 N 
ATOM     34  H5  UNL     1       8.964   7.755  25.764  1.00  0.00     0.164 HD
BRANCH  33  35
HETATM   35  C19 UNL     1      10.684   8.837  26.408  1.00  0.00     0.195 C 
BRANCH  35  36
HETATM   36  C20 UNL     1      11.721   7.771  26.559  1.00  0.00     0.370 C 
HETATM   37  F1  UNL     1      11.073   6.553  26.678  1.00  0.00    -0.213 F 
HETATM   38  F2  UNL     1      12.551   7.758  25.455  1.00  0.00    -0.213 F 
ENDBRANCH  35  36
ENDBRANCH  33  35
ENDBRANCH   1  23
TORSDOF 8
ENDMDL
MODEL 2
REMARK VINA RESULT: -8.877996783      1.293      1.781
REMARK  8 active torsions:
REMARK  status: ('A' for Active; 'I' for Inactive)
REMARK    1  A    between atoms: C4_6  and  N2_7 
REMARK       I    between atoms: N2_7  and  C5_9 
REMARK    2  A    between atoms: C5_9  and  C6_11 
REMARK    3  A    between atoms: C6_11  and  C7_12 
REMARK    4  A    between atoms: C7_12  and  C8_13 
REMARK    5  A    between atoms: C7_12  and  C15_20 
REMARK    6  A    between atoms: C8_13  and  C9_14 
REMARK       I    between atoms: C15_20  and  N3_22 
REMARK       I    between atoms: N4_25  and  C18_26 
REMARK       I    between atoms: C18_26  and  N5_28 
REMARK    7  A    between atoms: N5_28  and  C19_30 
REMARK    8  A    between atoms: C19_30  and  C20_31 
ROOT
HETATM    1  C7  UNL     1       6.137   5.050  19.932  1.00  0.00     0.019 C 
ENDROOT
BRANCH   1   2
HETATM    2  C6  UNL     1       5.331   5.464  18.748  1.00  0.00     0.147 C 
BRANCH   2   3
HETATM    3  C5  UNL     1       5.960   6.495  17.916  1.00  0.00     0.227 C 
HETATM    4  N2  UNL     1       6.499   7.686  18.444  1.00  0.00    -0.312 N 
ATOM      5  H2  UNL     1       7.249   7.591  19.128  1.00  0.00     0.170 HD
HETATM    6  O1  UNL     1       6.050   6.363  16.649  1.00  0.00    -0.273 OA
BRANCH   4   7
HETATM    7  C4  UNL     1       6.135   8.876  18.143  1.00  0.00     0.123 A 
HETATM    8  N1  UNL     1       6.050   9.300  16.875  1.00  0.00    -0.349 N 
HETATM    9  C3  UNL     1       5.664  10.570  16.584  1.00  0.00     0.114 A 
ATOM     10  H1  UNL     1       6.280   8.659  16.116  1.00  0.00     0.167 HD
HETATM   11  C2  UNL     1       5.352  11.433  17.609  1.00  0.00     0.020 A 
HETATM   12  C1  UNL     1       4.925  12.832  17.316  1.00  0.00     0.069 C 
HETATM   13  N6  UNL     1       5.432  11.021  18.893  1.00  0.00    -0.365 N 
HETATM   14  C23 UNL     1       5.823   9.741  19.163  1.00  0.00     0.136 A 
ATOM     15  H6  UNL     1       5.202  11.660  19.653  1.00  0.00     0.165 HD
ENDBRANCH   4   7
ENDBRANCH   2   3
ENDBRANCH   1   2
BRANCH   1  16
HETATM   16  C8  UNL     1       6.543   3.666  20.086  1.00  0.00     0.016 C 
BRANCH  16  17
HETATM   17  C9  UNL     1       7.431   2.935  19.197  1.00  0.00    -0.079 C 
HETATM   18  C10 UNL     1       6.925   1.936  18.240  1.00  0.00     0.034 C 
HETATM   19  C11 UNL     1       8.086   1.081  17.732  1.00  0.00     0.004 C 
HETATM   20  C12 UNL     1       9.417   1.497  18.270  1.00  0.00     0.001 C 
HETATM   21  C13 UNL     1       9.700   2.954  18.135  1.00  0.00     0.004 C 
HETATM   22  C14 UNL     1       8.481   3.804  18.488  1.00  0.00     0.034 C 
ENDBRANCH  16  17
ENDBRANCH   1  16
BRANCH   1  23
HETATM   23  C15 UNL     1       5.761   5.842  21.109  1.00  0.00     0.250 C 
HETATM   24  O2  UNL     1       4.653   5.687  21.685  1.00  0.00    -0.268 OA
HETATM   25  N3  UNL     1       6.599   6.846  21.693  1.00  0.00    -0.345 N 
HETATM   26  C16 UNL     1       6.164   7.640  22.832  1.00  0.00     0.146 C 
HETATM   27  C22 UNL     1       7.925   7.064  21.160  1.00  0.00     0.146 C 
HETATM   28  C17 UNL     1       7.292   7.831  23.792  1.00  0.00     0.147 C 
HETATM   29  N4  UNL     1       8.477   8.349  23.145  1.00  0.00    -0.331 N 
HETATM   30  C18 UNL     1       9.582   8.832  23.870  1.00  0.00     0.318 C 
HETATM   31  C21 UNL     1       8.500   8.358  21.712  1.00  0.00     0.147 C 
HETATM   32  O3  UNL     1      10.595   9.274  23.252  1.00  0.00    -0.247 OA
HETATM   33  N5  UNL     1       9.586   8.837  25.292  1.00  0.00    -0.338 N 
ATOM     34  H5  UNL     1       8.777   8.486  25.803  1.00  0.00     0.164 HD
BRANCH  33  35
HETATM   35  C19 UNL     1      10.722   9.333  26.011  1.00  0.00     0.195 C 
BRANCH  35  36
HETATM   36  C20 UNL     1      11.616   8.195  26.386  1.00  0.00     0.370 C 
HETATM   37  F1  UNL     1      10.825   7.081  26.612  1.00  0.00    -0.213 F 
HETATM   38  F2  UNL     1      12.510   7.939  25.364  1.00  0.00    -0.213 F 
ENDBRANCH  35  36
ENDBRANCH  33  35
ENDBRANCH   1  23
TORSDOF 8
ENDMDL
MODEL 3
REMARK VINA RESULT: -8.798903877      1.513      2.090
REMARK  8 active torsions:
REMARK  status: ('A' for Active; 'I' for Inactive)
REMARK    1  A    between atoms: C4_6  and  N2_7 
REMARK       I    between atoms: N2_7  and  C5_9 
REMARK    2  A    between atoms: C5_9  and  C6_11 
REMARK    3  A    between atoms: C6_11  and  C7_12 
REMARK    4  A    between atoms: C7_12  and  C8_13 
REMARK    5  A    between atoms: C7_12  and  C15_20 
REMARK    6  A    between atoms: C8_13  and  C9_14 
REMARK       I    between atoms: C15_20  and  N3_22 
REMARK       I    between atoms: N4_25  and  C18_26 
REMARK       I    between atoms: C18_26  and  N5_28 
REMARK    7  A    between atoms: N5_28  and  C19_30 
REMARK    8  A    between atoms: C19_30  and  C20_31 
ROOT
HETATM    1  C7  UNL     1       5.808   5.872  20.261  1.00  0.00     0.019 C 
ENDROOT
BRANCH   1   2
HETATM    2  C6  UNL     1       5.062   6.669  19.246  1.00  0.00     0.147 C 
BRANCH   2   3
HETATM    3  C5  UNL     1       5.911   7.340  18.257  1.00  0.00     0.227 C 
HETATM    4  N2  UNL     1       6.279   8.698  18.353  1.00  0.00    -0.312 N 
ATOM      5  H2  UNL     1       6.795   8.979  19.186  1.00  0.00     0.170 HD
HETATM    6  O1  UNL     1       6.367   6.716  17.240  1.00  0.00    -0.273 OA
BRANCH   4   7
HETATM    7  C4  UNL     1       6.024   9.609  17.491  1.00  0.00     0.123 A 
HETATM    8  N1  UNL     1       5.589   9.326  16.256  1.00  0.00    -0.349 N 
HETATM    9  C3  UNL     1       5.329  10.315  15.360  1.00  0.00     0.114 A 
ATOM     10  H1  UNL     1       5.450   8.353  15.985  1.00  0.00     0.167 HD
HETATM   11  C2  UNL     1       5.515  11.627  15.729  1.00  0.00     0.020 A 
HETATM   12  C1  UNL     1       5.238  12.730  14.764  1.00  0.00     0.069 C 
HETATM   13  N6  UNL     1       5.953  11.929  16.970  1.00  0.00    -0.365 N 
HETATM   14  C23 UNL     1       6.209  10.921  17.855  1.00  0.00     0.136 A 
ATOM     15  H6  UNL     1       6.092  12.902  17.244  1.00  0.00     0.165 HD
ENDBRANCH   4   7
ENDBRANCH   2   3
ENDBRANCH   1   2
BRANCH   1  16
HETATM   16  C8  UNL     1       5.948   4.437  20.100  1.00  0.00     0.016 C 
BRANCH  16  17
HETATM   17  C9  UNL     1       7.043   3.759  19.427  1.00  0.00    -0.079 C 
HETATM   18  C10 UNL     1       8.315   4.439  19.129  1.00  0.00     0.034 C 
HETATM   19  C11 UNL     1       9.105   3.622  18.106  1.00  0.00     0.004 C 
HETATM   20  C12 UNL     1       8.437   2.342  17.719  1.00  0.00     0.001 C 
HETATM   21  C13 UNL     1       7.999   1.509  18.875  1.00  0.00     0.004 C 
HETATM   22  C14 UNL     1       7.355   2.356  19.971  1.00  0.00     0.034 C 
ENDBRANCH  16  17
ENDBRANCH   1  16
BRANCH   1  23
HETATM   23  C15 UNL     1       5.625   6.447  21.599  1.00  0.00     0.250 C 
HETATM   24  O2  UNL     1       4.586   6.231  22.276  1.00  0.00    -0.268 OA
HETATM   25  N3  UNL     1       6.586   7.294  22.240  1.00  0.00    -0.345 N 
HETATM   26  C16 UNL     1       6.339   7.881  23.548  1.00  0.00     0.146 C 
HETATM   27  C22 UNL     1       7.850   7.555  21.588  1.00  0.00     0.146 C 
HETATM   28  C17 UNL     1       7.584   7.848  24.374  1.00  0.00     0.147 C 
HETATM   29  N4  UNL     1       8.712   8.431  23.682  1.00  0.00    -0.331 N 
HETATM   30  C18 UNL     1       9.923   8.730  24.334  1.00  0.00     0.318 C 
HETATM   31  C21 UNL     1       8.564   8.703  22.282  1.00  0.00     0.147 C 
HETATM   32  O3  UNL     1      10.880   9.239  23.679  1.00  0.00    -0.247 OA
HETATM   33  N5  UNL     1      10.098   8.473  25.721  1.00  0.00    -0.338 N 
ATOM     34  H5  UNL     1       9.335   8.064  26.261  1.00  0.00     0.164 HD
BRANCH  33  35
HETATM   35  C19 UNL     1      11.339   8.784  26.365  1.00  0.00     0.195 C 
BRANCH  35  36
HETATM   36  C20 UNL     1      11.926   7.542  26.953  1.00  0.00     0.370 C 
HETATM   37  F1  UNL     1      10.989   6.528  26.844  1.00  0.00    -0.213 F 
HETATM   38  F2  UNL     1      13.078   7.194  26.274  1.00  0.00    -0.213 F 
ENDBRANCH  35  36
ENDBRANCH  33  35
ENDBRANCH   1  23
TORSDOF 8
ENDMDL
MODEL 4
REMARK VINA RESULT: -8.692636449      3.286      5.623
REMARK  8 active torsions:
REMARK  status: ('A' for Active; 'I' for Inactive)
REMARK    1  A    between atoms: C4_6  and  N2_7 
REMARK       I    between atoms: N2_7  and  C5_9 
REMARK    2  A    between atoms: C5_9  and  C6_11 
REMARK    3  A    between atoms: C6_11  and  C7_12 
REMARK    4  A    between atoms: C7_12  and  C8_13 
REMARK    5  A    between atoms: C7_12  and  C15_20 
REMARK    6  A    between atoms: C8_13  and  C9_14 
REMARK       I    between atoms: C15_20  and  N3_22 
REMARK       I    between atoms: N4_25  and  C18_26 
REMARK       I    between atoms: C18_26  and  N5_28 
REMARK    7  A    between atoms: N5_28  and  C19_30 
REMARK    8  A    between atoms: C19_30  and  C20_31 
ROOT
HETATM    1  C7  UNL     1       5.747   4.736  20.331  1.00  0.00     0.019 C 
ENDROOT
BRANCH   1   2
HETATM    2  C6  UNL     1       4.592   4.643  19.392  1.00  0.00     0.147 C 
BRANCH   2   3
HETATM    3  C5  UNL     1       3.714   3.492  19.624  1.00  0.00     0.227 C 
HETATM    4  N2  UNL     1       2.862   3.387  20.742  1.00  0.00    -0.312 N 
ATOM      5  H2  UNL     1       2.159   4.116  20.858  1.00  0.00     0.170 HD
HETATM    6  O1  UNL     1       3.678   2.509  18.809  1.00  0.00    -0.273 OA
BRANCH   4   7
HETATM    7  C4  UNL     1       2.889   2.460  21.624  1.00  0.00     0.123 A 
HETATM    8  N1  UNL     1       3.885   1.567  21.696  1.00  0.00    -0.349 N 
HETATM    9  C3  UNL     1       3.886   0.591  22.642  1.00  0.00     0.114 A 
ATOM     10  H1  UNL     1       4.654   1.621  21.029  1.00  0.00     0.167 HD
HETATM   11  C2  UNL     1       2.848   0.521  23.542  1.00  0.00     0.020 A 
HETATM   12  C1  UNL     1       2.826  -0.540  24.589  1.00  0.00     0.069 C 
HETATM   13  N6  UNL     1       1.836   1.414  23.483  1.00  0.00    -0.365 N 
HETATM   14  C23 UNL     1       1.854   2.386  22.525  1.00  0.00     0.136 A 
ATOM     15  H6  UNL     1       1.066   1.362  24.150  1.00  0.00     0.165 HD
ENDBRANCH   4   7
ENDBRANCH   2   3
ENDBRANCH   1   2
BRANCH   1  16
HETATM   16  C8  UNL     1       6.602   3.585  20.546  1.00  0.00     0.016 C 
BRANCH  16  17
HETATM   17  C9  UNL     1       7.445   2.951  19.546  1.00  0.00    -0.079 C 
HETATM   18  C10 UNL     1       6.989   1.784  18.770  1.00  0.00     0.034 C 
HETATM   19  C11 UNL     1       8.189   1.119  18.095  1.00  0.00     0.004 C 
HETATM   20  C12 UNL     1       9.481   1.831  18.334  1.00  0.00     0.001 C 
HETATM   21  C13 UNL     1       9.431   3.294  18.057  1.00  0.00     0.004 C 
HETATM   22  C14 UNL     1       8.148   3.928  18.591  1.00  0.00     0.034 C 
ENDBRANCH  16  17
ENDBRANCH   1  16
BRANCH   1  23
HETATM   23  C15 UNL     1       5.428   5.635  21.447  1.00  0.00     0.250 C 
HETATM   24  O2  UNL     1       4.337   5.556  22.070  1.00  0.00    -0.268 OA
HETATM   25  N3  UNL     1       6.307   6.664  21.916  1.00  0.00    -0.345 N 
HETATM   26  C16 UNL     1       5.927   7.563  22.995  1.00  0.00     0.146 C 
HETATM   27  C22 UNL     1       7.619   6.803  21.323  1.00  0.00     0.146 C 
HETATM   28  C17 UNL     1       7.092   7.807  23.899  1.00  0.00     0.147 C 
HETATM   29  N4  UNL     1       8.265   8.239  23.172  1.00  0.00    -0.331 N 
HETATM   30  C18 UNL     1       9.404   8.756  23.817  1.00  0.00     0.318 C 
HETATM   31  C21 UNL     1       8.239   8.126  21.743  1.00  0.00     0.147 C 
HETATM   32  O3  UNL     1      10.405   9.118  23.131  1.00  0.00    -0.247 OA
HETATM   33  N5  UNL     1       9.456   8.882  25.232  1.00  0.00    -0.338 N 
ATOM     34  H5  UNL     1       8.657   8.595  25.797  1.00  0.00     0.164 HD
BRANCH  33  35
HETATM   35  C19 UNL     1      10.626   9.410  25.869  1.00  0.00     0.195 C 
BRANCH  35  36
HETATM   36  C20 UNL     1      11.519   8.288  26.290  1.00  0.00     0.370 C 
HETATM   37  F1  UNL     1      10.730   7.175  26.532  1.00  0.00    -0.213 F 
HETATM   38  F2  UNL     1      12.433   8.010  25.292  1.00  0.00    -0.213 F 
ENDBRANCH  35  36
ENDBRANCH  33  35
ENDBRANCH   1  23
TORSDOF 8
ENDMDL
MODEL 5
REMARK VINA RESULT: -8.662219191      2.443      3.558
REMARK  8 active torsions:
REMARK  status: ('A' for Active; 'I' for Inactive)
REMARK    1  A    between atoms: C4_6  and  N2_7 
REMARK       I    between atoms: N2_7  and  C5_9 
REMARK    2  A    between atoms: C5_9  and  C6_11 
REMARK    3  A    between atoms: C6_11  and  C7_12 
REMARK    4  A    between atoms: C7_12  and  C8_13 
REMARK    5  A    between atoms: C7_12  and  C15_20 
REMARK    6  A    between atoms: C8_13  and  C9_14 
REMARK       I    between atoms: C15_20  and  N3_22 
REMARK       I    between atoms: N4_25  and  C18_26 
REMARK       I    between atoms: C18_26  and  N5_28 
REMARK    7  A    between atoms: N5_28  and  C19_30 
REMARK    8  A    between atoms: C19_30  and  C20_31 
ROOT
HETATM    1  C7  UNL     1       6.042   3.539  19.205  1.00  0.00     0.019 C 
ENDROOT
BRANCH   1   2
HETATM    2  C6  UNL     1       5.048   3.277  18.125  1.00  0.00     0.147 C 
BRANCH   2   3
HETATM    3  C5  UNL     1       5.401   3.851  16.823  1.00  0.00     0.227 C 
HETATM    4  N2  UNL     1       6.282   4.942  16.676  1.00  0.00    -0.312 N 
ATOM      5  H2  UNL     1       7.231   4.821  17.030  1.00  0.00     0.170 HD
HETATM    6  O1  UNL     1       4.916   3.385  15.737  1.00  0.00    -0.273 OA
BRANCH   4   7
HETATM    7  C4  UNL     1       6.002   6.070  16.140  1.00  0.00     0.123 A 
HETATM    8  N1  UNL     1       6.122   6.286  14.823  1.00  0.00    -0.349 N 
HETATM    9  C3  UNL     1       5.820   7.496  14.281  1.00  0.00     0.114 A 
ATOM     10  H1  UNL     1       6.445   5.531  14.219  1.00  0.00     0.167 HD
HETATM   11  C2  UNL     1       5.383   8.513  15.098  1.00  0.00     0.020 A 
HETATM   12  C1  UNL     1       5.045   9.849  14.527  1.00  0.00     0.069 C 
HETATM   13  N6  UNL     1       5.256   8.310  16.427  1.00  0.00    -0.365 N 
HETATM   14  C23 UNL     1       5.565   7.088  16.952  1.00  0.00     0.136 A 
ATOM     15  H6  UNL     1       4.932   9.063  17.033  1.00  0.00     0.165 HD
ENDBRANCH   4   7
ENDBRANCH   2   3
ENDBRANCH   1   2
BRANCH   1  16
HETATM   16  C8  UNL     1       7.004   2.517  19.571  1.00  0.00     0.016 C 
BRANCH  16  17
HETATM   17  C9  UNL     1       8.038   1.972  18.708  1.00  0.00    -0.079 C 
HETATM   18  C10 UNL     1       7.733   0.999  17.645  1.00  0.00     0.034 C 
HETATM   19  C11 UNL     1       9.027   0.335  17.173  1.00  0.00     0.004 C 
HETATM   20  C12 UNL     1      10.252   0.865  17.845  1.00  0.00     0.001 C 
HETATM   21  C13 UNL     1      10.357   2.352  17.836  1.00  0.00     0.004 C 
HETATM   22  C14 UNL     1       9.017   3.016  18.148  1.00  0.00     0.034 C 
ENDBRANCH  16  17
ENDBRANCH   1  16
BRANCH   1  23
HETATM   23  C15 UNL     1       5.460   4.405  20.237  1.00  0.00     0.250 C 
HETATM   24  O2  UNL     1       4.415   4.083  20.860  1.00  0.00    -0.268 OA
HETATM   25  N3  UNL     1       6.012   5.671  20.617  1.00  0.00    -0.345 N 
HETATM   26  C16 UNL     1       5.373   6.518  21.613  1.00  0.00     0.146 C 
HETATM   27  C22 UNL     1       7.252   6.115  20.020  1.00  0.00     0.146 C 
HETATM   28  C17 UNL     1       6.401   7.146  22.496  1.00  0.00     0.147 C 
HETATM   29  N4  UNL     1       7.432   7.821  21.739  1.00  0.00    -0.331 N 
HETATM   30  C18 UNL     1       8.369   8.681  22.341  1.00  0.00     0.318 C 
HETATM   31  C21 UNL     1       7.477   7.586  20.325  1.00  0.00     0.147 C 
HETATM   32  O3  UNL     1       9.252   9.245  21.630  1.00  0.00    -0.247 OA
HETATM   33  N5  UNL     1       8.346   8.933  23.740  1.00  0.00    -0.338 N 
ATOM     34  H5  UNL     1       7.640   8.487  24.324  1.00  0.00     0.164 HD
BRANCH  33  35
HETATM   35  C19 UNL     1       9.310   9.812  24.333  1.00  0.00     0.195 C 
BRANCH  35  36
HETATM   36  C20 UNL     1      10.410   9.009  24.949  1.00  0.00     0.370 C 
HETATM   37  F1  UNL     1      11.454   8.941  24.042  1.00  0.00    -0.213 F 
HETATM   38  F2  UNL     1      10.838   9.611  26.117  1.00  0.00    -0.213 F 
ENDBRANCH  35  36
ENDBRANCH  33  35
ENDBRANCH   1  23
TORSDOF 8
ENDMDL
