MODEL 1
REMARK VINA RESULT: -6.554413332      0.000      0.000
REMARK  9 active torsions:
REMARK  status: ('A' for Active; 'I' for Inactive)
REMARK    1  A    between atoms: N1_2  and  C2_4 
REMARK    2  A    between atoms: C2_4  and  C6_12 
REMARK       I    between atoms: N2_5  and  C3_7 
REMARK       I    between atoms: C3_7  and  N3_9 
REMARK    3  A    between atoms: C8_14  and  O2_15 
REMARK    4  A    between atoms: O2_15  and  C9_16 
REMARK    5  A    between atoms: C9_16  and  C10_17 
REMARK    6  A    between atoms: C10_17  and  O3_18 
REMARK    7  A    between atoms: O3_18  and  C11_19 
REMARK    8  A    between atoms: C11_19  and  C12_20 
REMARK    9  A    between atoms: C12_20  and  O4_21 
ROOT
HETATM    1  C6  UNL     1       7.100   7.422  21.284  1.00  0.00     0.028 A 
HETATM    2  C7  UNL     1       7.906   7.956  22.294  1.00  0.00     0.054 A 
HETATM    3  C8  UNL     1       8.067   9.312  22.474  1.00  0.00     0.087 A 
HETATM    4  C13 UNL     1       7.406  10.216  21.624  1.00  0.00     0.045 A 
HETATM    5 BR1  UNL     1       7.607  12.099  21.848  1.00  0.00    -0.048 Br
HETATM    6  C14 UNL     1       6.617   9.696  20.634  1.00  0.00     0.042 A 
HETATM    7  C15 UNL     1       6.465   8.327  20.465  1.00  0.00     0.026 A 
HETATM    8 BR2  UNL     1       5.354   7.638  19.070  1.00  0.00    -0.050 Br
ENDROOT
BRANCH   1   9
HETATM    9  C2  UNL     1       6.922   5.997  21.079  1.00  0.00     0.116 C 
HETATM   10  N2  UNL     1       7.801   5.288  20.496  1.00  0.00    -0.294 N 
HETATM   11  C3  UNL     1       7.636   3.871  20.284  1.00  0.00     0.323 C 
ATOM     12  H2  UNL     1       8.654   5.738  20.164  1.00  0.00     0.172 HD
HETATM   13  O1  UNL     1       7.232   3.182  21.251  1.00  0.00    -0.247 OA
HETATM   14  N3  UNL     1       7.908   3.249  19.060  1.00  0.00    -0.343 N 
HETATM   15  C4  UNL     1       8.379   3.968  17.894  1.00  0.00     0.154 C 
HETATM   16  C5  UNL     1       7.716   1.821  18.935  1.00  0.00     0.154 C 
BRANCH   9  17
HETATM   17  N1  UNL     1       5.735   5.373  21.540  1.00  0.00    -0.380 N 
HETATM   18  C1  UNL     1       4.834   5.989  22.491  1.00  0.00     0.147 C 
ATOM     19  H1  UNL     1       5.505   4.445  21.183  1.00  0.00     0.160 HD
ENDBRANCH   9  17
ENDBRANCH   1   9
BRANCH   3  20
HETATM   20  O2  UNL     1       8.835   9.861  23.442  1.00  0.00    -0.348 OA
BRANCH  20  21
HETATM   21  C9  UNL     1       9.093   9.403  24.708  1.00  0.00     0.201 C 
BRANCH  21  22
HETATM   22  C10 UNL     1      10.514   9.535  25.194  1.00  0.00     0.194 C 
BRANCH  22  23
HETATM   23  O3  UNL     1      11.221   8.344  25.169  1.00  0.00    -0.387 OA
BRANCH  23  24
HETATM   24  C11 UNL     1      11.690   7.926  26.383  1.00  0.00     0.193 C 
BRANCH  24  25
HETATM   25  C12 UNL     1      13.166   7.555  26.238  1.00  0.00     0.190 C 
BRANCH  25  26
HETATM   26  O4  UNL     1      13.524   7.537  24.887  1.00  0.00    -0.399 OA
ATOM     27  H4  UNL     1      14.453   7.357  24.799  1.00  0.00     0.209 HD
ENDBRANCH  25  26
ENDBRANCH  24  25
ENDBRANCH  23  24
ENDBRANCH  22  23
ENDBRANCH  21  22
ENDBRANCH  20  21
ENDBRANCH   3  20
TORSDOF 9
ENDMDL
MODEL 2
REMARK VINA RESULT: -6.465832351      1.830      2.161
REMARK  9 active torsions:
REMARK  status: ('A' for Active; 'I' for Inactive)
REMARK    1  A    between atoms: N1_2  and  C2_4 
REMARK    2  A    between atoms: C2_4  and  C6_12 
REMARK       I    between atoms: N2_5  and  C3_7 
REMARK       I    between atoms: C3_7  and  N3_9 
REMARK    3  A    between atoms: C8_14  and  O2_15 
REMARK    4  A    between atoms: O2_15  and  C9_16 
REMARK    5  A    between atoms: C9_16  and  C10_17 
REMARK    6  A    between atoms: C10_17  and  O3_18 
REMARK    7  A    between atoms: O3_18  and  C11_19 
REMARK    8  A    between atoms: C11_19  and  C12_20 
REMARK    9  A    between atoms: C12_20  and  O4_21 
ROOT
HETATM    1  C6  UNL     1       6.953   6.330  21.140  1.00  0.00     0.028 A 
HETATM    2  C7  UNL     1       7.813   7.116  21.911  1.00  0.00     0.054 A 
HETATM    3  C8  UNL     1       7.359   8.118  22.740  1.00  0.00     0.087 A 
HETATM    4  C13 UNL     1       5.980   8.381  22.832  1.00  0.00     0.045 A 
HETATM    5 BR1  UNL     1       5.319   9.761  23.969  1.00  0.00    -0.048 Br
HETATM    6  C14 UNL     1       5.135   7.613  22.078  1.00  0.00     0.042 A 
HETATM    7  C15 UNL     1       5.609   6.607  21.248  1.00  0.00     0.026 A 
HETATM    8 BR2  UNL     1       4.398   5.554  20.209  1.00  0.00    -0.050 Br
ENDROOT
BRANCH   1   9
HETATM    9  C2  UNL     1       7.416   5.272  20.262  1.00  0.00     0.116 C 
HETATM   10  N2  UNL     1       7.550   5.450  19.011  1.00  0.00    -0.294 N 
HETATM   11  C3  UNL     1       8.008   4.407  18.126  1.00  0.00     0.323 C 
ATOM     12  H2  UNL     1       7.326   6.364  18.618  1.00  0.00     0.172 HD
HETATM   13  O1  UNL     1       9.007   3.738  18.483  1.00  0.00    -0.247 OA
HETATM   14  N3  UNL     1       7.387   4.121  16.904  1.00  0.00    -0.343 N 
HETATM   15  C4  UNL     1       6.231   4.844  16.415  1.00  0.00     0.154 C 
HETATM   16  C5  UNL     1       7.912   3.057  16.077  1.00  0.00     0.154 C 
BRANCH   9  17
HETATM   17  N1  UNL     1       7.726   4.001  20.809  1.00  0.00    -0.380 N 
HETATM   18  C1  UNL     1       6.719   3.015  21.142  1.00  0.00     0.147 C 
ATOM     19  H1  UNL     1       8.705   3.771  20.976  1.00  0.00     0.160 HD
ENDBRANCH   9  17
ENDBRANCH   1   9
BRANCH   3  20
HETATM   20  O2  UNL     1       8.162   8.895  23.501  1.00  0.00    -0.348 OA
BRANCH  20  21
HETATM   21  C9  UNL     1       9.007   8.532  24.519  1.00  0.00     0.201 C 
BRANCH  21  22
HETATM   22  C10 UNL     1      10.278   9.330  24.654  1.00  0.00     0.194 C 
BRANCH  22  23
HETATM   23  O3  UNL     1      11.405   8.549  24.851  1.00  0.00    -0.387 OA
BRANCH  23  24
HETATM   24  C11 UNL     1      11.625   8.172  26.147  1.00  0.00     0.193 C 
BRANCH  24  25
HETATM   25  C12 UNL     1      13.002   7.515  26.239  1.00  0.00     0.190 C 
BRANCH  25  26
HETATM   26  O4  UNL     1      13.608   7.495  24.980  1.00  0.00    -0.399 OA
ATOM     27  H4  UNL     1      14.498   7.169  25.053  1.00  0.00     0.209 HD
ENDBRANCH  25  26
ENDBRANCH  24  25
ENDBRANCH  23  24
ENDBRANCH  22  23
ENDBRANCH  21  22
ENDBRANCH  20  21
ENDBRANCH   3  20
TORSDOF 9
ENDMDL
MODEL 3
REMARK VINA RESULT: -6.406017006      0.846      1.226
REMARK  9 active torsions:
REMARK  status: ('A' for Active; 'I' for Inactive)
REMARK    1  A    between atoms: N1_2  and  C2_4 
REMARK    2  A    between atoms: C2_4  and  C6_12 
REMARK       I    between atoms: N2_5  and  C3_7 
REMARK       I    between atoms: C3_7  and  N3_9 
REMARK    3  A    between atoms: C8_14  and  O2_15 
REMARK    4  A    between atoms: O2_15  and  C9_16 
REMARK    5  A    between atoms: C9_16  and  C10_17 
REMARK    6  A    between atoms: C10_17  and  O3_18 
REMARK    7  A    between atoms: O3_18  and  C11_19 
REMARK    8  A    between atoms: C11_19  and  C12_20 
REMARK    9  A    between atoms: C12_20  and  O4_21 
ROOT
HETATM    1  C6  UNL     1       7.036   7.501  21.276  1.00  0.00     0.028 A 
HETATM    2  C7  UNL     1       7.837   8.062  22.274  1.00  0.00     0.054 A 
HETATM    3  C8  UNL     1       7.984   9.423  22.428  1.00  0.00     0.087 A 
HETATM    4  C13 UNL     1       7.314  10.304  21.560  1.00  0.00     0.045 A 
HETATM    5 BR1  UNL     1       7.497  12.192  21.746  1.00  0.00    -0.048 Br
HETATM    6  C14 UNL     1       6.530   9.757  20.581  1.00  0.00     0.042 A 
HETATM    7  C15 UNL     1       6.391   8.383  20.439  1.00  0.00     0.026 A 
HETATM    8 BR2  UNL     1       5.286   7.655  19.059  1.00  0.00    -0.050 Br
ENDROOT
BRANCH   1   9
HETATM    9  C2  UNL     1       6.872   6.070  21.100  1.00  0.00     0.116 C 
HETATM   10  N2  UNL     1       7.760   5.357  20.537  1.00  0.00    -0.294 N 
HETATM   11  C3  UNL     1       7.610   3.934  20.354  1.00  0.00     0.323 C 
ATOM     12  H2  UNL     1       8.612   5.808  20.201  1.00  0.00     0.172 HD
HETATM   13  O1  UNL     1       7.205   3.262  21.332  1.00  0.00    -0.247 OA
HETATM   14  N3  UNL     1       7.895   3.290  19.145  1.00  0.00    -0.343 N 
HETATM   15  C4  UNL     1       8.367   3.989  17.967  1.00  0.00     0.154 C 
HETATM   16  C5  UNL     1       7.716   1.858  19.048  1.00  0.00     0.154 C 
BRANCH   9  17
HETATM   17  N1  UNL     1       5.688   5.445  21.566  1.00  0.00    -0.380 N 
HETATM   18  C1  UNL     1       4.799   6.054  22.535  1.00  0.00     0.147 C 
ATOM     19  H1  UNL     1       5.450   4.522  21.202  1.00  0.00     0.160 HD
ENDBRANCH   9  17
ENDBRANCH   1   9
BRANCH   3  20
HETATM   20  O2  UNL     1       8.748  10.000  23.383  1.00  0.00    -0.348 OA
BRANCH  20  21
HETATM   21  C9  UNL     1       9.399   9.418  24.440  1.00  0.00     0.201 C 
BRANCH  21  22
HETATM   22  C10 UNL     1      10.853   9.082  24.231  1.00  0.00     0.194 C 
BRANCH  22  23
HETATM   23  O3  UNL     1      11.406   8.342  25.264  1.00  0.00    -0.387 OA
BRANCH  23  24
HETATM   24  C11 UNL     1      10.803   8.511  26.480  1.00  0.00     0.193 C 
BRANCH  24  25
HETATM   25  C12 UNL     1      10.625   7.140  27.133  1.00  0.00     0.190 C 
BRANCH  25  26
HETATM   26  O4  UNL     1       9.448   7.118  27.885  1.00  0.00    -0.399 OA
ATOM     27  H4  UNL     1       9.180   6.220  28.045  1.00  0.00     0.209 HD
ENDBRANCH  25  26
ENDBRANCH  24  25
ENDBRANCH  23  24
ENDBRANCH  22  23
ENDBRANCH  21  22
ENDBRANCH  20  21
ENDBRANCH   3  20
TORSDOF 9
ENDMDL
MODEL 4
REMARK VINA RESULT: -6.361193741      2.019      2.409
REMARK  9 active torsions:
REMARK  status: ('A' for Active; 'I' for Inactive)
REMARK    1  A    between atoms: N1_2  and  C2_4 
REMARK    2  A    between atoms: C2_4  and  C6_12 
REMARK       I    between atoms: N2_5  and  C3_7 
REMARK       I    between atoms: C3_7  and  N3_9 
REMARK    3  A    between atoms: C8_14  and  O2_15 
REMARK    4  A    between atoms: O2_15  and  C9_16 
REMARK    5  A    between atoms: C9_16  and  C10_17 
REMARK    6  A    between atoms: C10_17  and  O3_18 
REMARK    7  A    between atoms: O3_18  and  C11_19 
REMARK    8  A    between atoms: C11_19  and  C12_20 
REMARK    9  A    between atoms: C12_20  and  O4_21 
ROOT
HETATM    1  C6  UNL     1       6.885   6.386  21.011  1.00  0.00     0.028 A 
HETATM    2  C7  UNL     1       7.690   7.140  21.869  1.00  0.00     0.054 A 
HETATM    3  C8  UNL     1       7.195   8.179  22.626  1.00  0.00     0.087 A 
HETATM    4  C13 UNL     1       5.831   8.515  22.551  1.00  0.00     0.045 A 
HETATM    5 BR1  UNL     1       5.116   9.947  23.586  1.00  0.00    -0.048 Br
HETATM    6  C14 UNL     1       5.041   7.778  21.710  1.00  0.00     0.042 A 
HETATM    7  C15 UNL     1       5.555   6.734  20.954  1.00  0.00     0.026 A 
HETATM    8 BR2  UNL     1       4.420   5.727  19.791  1.00  0.00    -0.050 Br
ENDROOT
BRANCH   1   9
HETATM    9  C2  UNL     1       7.391   5.290  20.206  1.00  0.00     0.116 C 
HETATM   10  N2  UNL     1       7.604   5.416  18.959  1.00  0.00    -0.294 N 
HETATM   11  C3  UNL     1       8.105   4.335  18.147  1.00  0.00     0.323 C 
ATOM     12  H2  UNL     1       7.413   6.315  18.516  1.00  0.00     0.172 HD
HETATM   13  O1  UNL     1       9.074   3.674  18.592  1.00  0.00    -0.247 OA
HETATM   14  N3  UNL     1       7.559   4.004  16.902  1.00  0.00    -0.343 N 
HETATM   15  C4  UNL     1       6.442   4.715  16.313  1.00  0.00     0.154 C 
HETATM   16  C5  UNL     1       8.124   2.904  16.151  1.00  0.00     0.154 C 
BRANCH   9  17
HETATM   17  N1  UNL     1       7.655   4.041  20.822  1.00  0.00    -0.380 N 
HETATM   18  C1  UNL     1       6.615   3.098  21.178  1.00  0.00     0.147 C 
ATOM     19  H1  UNL     1       8.624   3.794  21.023  1.00  0.00     0.160 HD
ENDBRANCH   9  17
ENDBRANCH   1   9
BRANCH   3  20
HETATM   20  O2  UNL     1       7.944   8.927  23.468  1.00  0.00    -0.348 OA
BRANCH  20  21
HETATM   21  C9  UNL     1       8.533   8.569  24.653  1.00  0.00     0.201 C 
BRANCH  21  22
HETATM   22  C10 UNL     1       9.787   9.313  25.033  1.00  0.00     0.194 C 
BRANCH  22  23
HETATM   23  O3  UNL     1      10.204   9.072  26.332  1.00  0.00    -0.387 OA
BRANCH  23  24
HETATM   24  C11 UNL     1      11.222   8.166  26.451  1.00  0.00     0.193 C 
BRANCH  24  25
HETATM   25  C12 UNL     1      10.706   6.948  27.218  1.00  0.00     0.190 C 
BRANCH  25  26
HETATM   26  O4  UNL     1       9.527   7.272  27.893  1.00  0.00    -0.399 OA
ATOM     27  H4  UNL     1       9.567   6.956  28.789  1.00  0.00     0.209 HD
ENDBRANCH  25  26
ENDBRANCH  24  25
ENDBRANCH  23  24
ENDBRANCH  22  23
ENDBRANCH  21  22
ENDBRANCH  20  21
ENDBRANCH   3  20
TORSDOF 9
ENDMDL
MODEL 5
REMARK VINA RESULT: -6.298076805      1.379      1.680
REMARK  9 active torsions:
REMARK  status: ('A' for Active; 'I' for Inactive)
REMARK    1  A    between atoms: N1_2  and  C2_4 
REMARK    2  A    between atoms: C2_4  and  C6_12 
REMARK       I    between atoms: N2_5  and  C3_7 
REMARK       I    between atoms: C3_7  and  N3_9 
REMARK    3  A    between atoms: C8_14  and  O2_15 
REMARK    4  A    between atoms: O2_15  and  C9_16 
REMARK    5  A    between atoms: C9_16  and  C10_17 
REMARK    6  A    between atoms: C10_17  and  O3_18 
REMARK    7  A    between atoms: O3_18  and  C11_19 
REMARK    8  A    between atoms: C11_19  and  C12_20 
REMARK    9  A    between atoms: C12_20  and  O4_21 
ROOT
HETATM    1  C6  UNL     1       7.388   7.458  20.630  1.00  0.00     0.028 A 
HETATM    2  C7  UNL     1       8.210   7.943  21.651  1.00  0.00     0.054 A 
HETATM    3  C8  UNL     1       8.229   9.270  22.020  1.00  0.00     0.087 A 
HETATM    4  C13 UNL     1       7.398  10.193  21.361  1.00  0.00     0.045 A 
HETATM    5 BR1  UNL     1       7.400  12.036  21.848  1.00  0.00    -0.048 Br
HETATM    6  C14 UNL     1       6.592   9.722  20.360  1.00  0.00     0.042 A 
HETATM    7  C15 UNL     1       6.585   8.381  20.000  1.00  0.00     0.026 A 
HETATM    8 BR2  UNL     1       5.445   7.759  18.597  1.00  0.00    -0.050 Br
ENDROOT
BRANCH   1   9
HETATM    9  C2  UNL     1       7.358   6.064  20.228  1.00  0.00     0.116 C 
HETATM   10  N2  UNL     1       7.765   5.687  19.085  1.00  0.00    -0.294 N 
HETATM   11  C3  UNL     1       7.739   4.305  18.672  1.00  0.00     0.323 C 
ATOM     12  H2  UNL     1       8.123   6.387  18.435  1.00  0.00     0.172 HD
HETATM   13  O1  UNL     1       8.163   3.448  19.484  1.00  0.00    -0.247 OA
HETATM   14  N3  UNL     1       7.268   3.896  17.420  1.00  0.00    -0.343 N 
HETATM   15  C4  UNL     1       6.763   4.819  16.423  1.00  0.00     0.154 C 
HETATM   16  C5  UNL     1       7.278   2.488  17.086  1.00  0.00     0.154 C 
BRANCH   9  17
HETATM   17  N1  UNL     1       6.859   5.092  21.132  1.00  0.00    -0.380 N 
HETATM   18  C1  UNL     1       5.446   4.897  21.384  1.00  0.00     0.147 C 
ATOM     19  H1  UNL     1       7.527   4.502  21.627  1.00  0.00     0.160 HD
ENDBRANCH   9  17
ENDBRANCH   1   9
BRANCH   3  20
HETATM   20  O2  UNL     1       9.009   9.772  23.004  1.00  0.00    -0.348 OA
BRANCH  20  21
HETATM   21  C9  UNL     1       9.079   9.409  24.324  1.00  0.00     0.201 C 
BRANCH  21  22
HETATM   22  C10 UNL     1      10.441   9.470  24.967  1.00  0.00     0.194 C 
BRANCH  22  23
HETATM   23  O3  UNL     1      10.437   9.119  26.307  1.00  0.00    -0.387 OA
BRANCH  23  24
HETATM   24  C11 UNL     1      11.272   8.087  26.635  1.00  0.00     0.193 C 
BRANCH  24  25
HETATM   25  C12 UNL     1      10.432   6.929  27.174  1.00  0.00     0.190 C 
BRANCH  25  26
HETATM   26  O4  UNL     1       9.355   7.424  27.913  1.00  0.00    -0.399 OA
ATOM     27  H4  UNL     1       8.842   6.704  28.263  1.00  0.00     0.209 HD
ENDBRANCH  25  26
ENDBRANCH  24  25
ENDBRANCH  23  24
ENDBRANCH  22  23
ENDBRANCH  21  22
ENDBRANCH  20  21
ENDBRANCH   3  20
TORSDOF 9
ENDMDL
