MODEL 1
REMARK VINA RESULT: -7.879368279      0.000      0.000
REMARK  7 active torsions:
REMARK  status: ('A' for Active; 'I' for Inactive)
REMARK    1  A    between atoms: C2_2  and  N1_3 
REMARK    2  A    between atoms: C2_2  and  C7_12 
REMARK       I    between atoms: N1_3  and  C3_5 
REMARK    3  A    between atoms: C3_5  and  C4_7 
REMARK    4  A    between atoms: C4_7  and  C5_8 
REMARK       I    between atoms: C7_12  and  N2_14 
REMARK    5  A    between atoms: N2_14  and  C8_16 
REMARK       I    between atoms: N3_22  and  C14_23 
REMARK    6  A    between atoms: C14_23  and  C15_25 
REMARK    7  A    between atoms: N4_31  and  C21_32 
ROOT
HETATM    1  C8  UNL     1       8.052   6.592  21.007  1.00  0.00     0.086 C 
HETATM    2  C9  UNL     1       7.213   5.368  20.732  1.00  0.00     0.036 C 
HETATM    3  C10 UNL     1       7.295   5.649  19.274  1.00  0.00    -0.020 C 
HETATM    4  C11 UNL     1       8.247   4.755  18.504  1.00  0.00     0.013 C 
HETATM    5  C12 UNL     1       7.610   3.387  18.373  1.00  0.00     0.021 C 
HETATM    6  C13 UNL     1       6.270   3.513  17.679  1.00  0.00     0.126 C 
HETATM    7  N3  UNL     1       5.940   4.895  17.413  1.00  0.00    -0.351 N 
HETATM    8  C14 UNL     1       5.670   5.460  16.150  1.00  0.00     0.226 C 
HETATM    9  O3  UNL     1       5.395   6.687  16.109  1.00  0.00    -0.273 OA
HETATM   10  C24 UNL     1       5.916   5.707  18.645  1.00  0.00     0.135 C 
HETATM   11  C25 UNL     1       7.925   6.968  19.551  1.00  0.00     0.036 C 
ENDROOT
BRANCH   1  12
HETATM   12  N2  UNL     1       7.482   7.529  21.931  1.00  0.00    -0.355 N 
HETATM   13  C7  UNL     1       8.160   8.737  22.219  1.00  0.00     0.240 C 
HETATM   14  O2  UNL     1       9.255   8.963  21.652  1.00  0.00    -0.271 OA
ATOM     15  H2  UNL     1       6.589   7.325  22.380  1.00  0.00     0.162 HD
BRANCH  13  16
HETATM   16  C2  UNL     1       7.563   9.716  23.188  1.00  0.00     0.172 C 
HETATM   17  C1  UNL     1       7.422  11.069  22.565  1.00  0.00     0.042 C 
BRANCH  16  18
HETATM   18  N1  UNL     1       8.310   9.731  24.407  1.00  0.00    -0.348 N 
HETATM   19  C3  UNL     1       8.542   8.549  25.184  1.00  0.00     0.224 C 
HETATM   20  O1  UNL     1       8.068   7.456  24.776  1.00  0.00    -0.273 OA
ATOM     21  H1  UNL     1       8.693  10.618  24.737  1.00  0.00     0.163 HD
BRANCH  19  22
HETATM   22  C4  UNL     1       9.313   8.579  26.439  1.00  0.00     0.181 C 
BRANCH  22  23
HETATM   23  C5  UNL     1      10.794   8.546  26.174  1.00  0.00     0.248 C 
HETATM   24  C6  UNL     1      11.506   7.560  27.058  1.00  0.00     0.090 C 
HETATM   25  F1  UNL     1      11.043   8.206  24.860  1.00  0.00    -0.206 F 
HETATM   26  F2  UNL     1      11.301   9.816  26.385  1.00  0.00    -0.206 F 
ENDBRANCH  22  23
ENDBRANCH  19  22
ENDBRANCH  16  18
ENDBRANCH  13  16
ENDBRANCH   1  12
BRANCH   8  27
HETATM   27  C15 UNL     1       5.684   4.729  14.874  1.00  0.00     0.113 C 
HETATM   28  C16 UNL     1       5.671   5.559  13.635  1.00  0.00     0.052 C 
HETATM   29  C17 UNL     1       4.701   4.833  12.715  1.00  0.00     0.225 C 
HETATM   30  C18 UNL     1       3.322   5.368  13.085  1.00  0.00     0.038 C 
HETATM   31  N4  UNL     1       4.581   3.506  13.287  1.00  0.00     0.102 N 
HETATM   32  C19 UNL     1       3.198   4.803  14.509  1.00  0.00     0.039 C 
HETATM   33  C20 UNL     1       4.433   3.905  14.672  1.00  0.00     0.237 C 
BRANCH  31  34
HETATM   34  C21 UNL     1       5.675   2.674  12.973  1.00  0.00     0.216 C 
HETATM   35  C22 UNL     1       5.676   2.535  11.439  1.00  0.00     0.042 C 
HETATM   36  C23 UNL     1       5.591   1.286  13.519  1.00  0.00     0.042 C 
ENDBRANCH  31  34
ENDBRANCH   8  27
TORSDOF 7
ENDMDL
MODEL 2
REMARK VINA RESULT: -7.820632979      2.397      3.720
REMARK  7 active torsions:
REMARK  status: ('A' for Active; 'I' for Inactive)
REMARK    1  A    between atoms: C2_2  and  N1_3 
REMARK    2  A    between atoms: C2_2  and  C7_12 
REMARK       I    between atoms: N1_3  and  C3_5 
REMARK    3  A    between atoms: C3_5  and  C4_7 
REMARK    4  A    between atoms: C4_7  and  C5_8 
REMARK       I    between atoms: C7_12  and  N2_14 
REMARK    5  A    between atoms: N2_14  and  C8_16 
REMARK       I    between atoms: N3_22  and  C14_23 
REMARK    6  A    between atoms: C14_23  and  C15_25 
REMARK    7  A    between atoms: N4_31  and  C21_32 
ROOT
HETATM    1  C8  UNL     1       6.099   8.541  20.862  1.00  0.00     0.086 C 
HETATM    2  C9  UNL     1       6.349   8.380  19.383  1.00  0.00     0.036 C 
HETATM    3  C10 UNL     1       6.312   6.901  19.547  1.00  0.00    -0.020 C 
HETATM    4  C11 UNL     1       5.038   6.237  19.062  1.00  0.00     0.013 C 
HETATM    5  C12 UNL     1       5.052   6.234  17.547  1.00  0.00     0.021 C 
HETATM    6  C13 UNL     1       6.287   5.515  17.051  1.00  0.00     0.126 C 
HETATM    7  N3  UNL     1       7.139   5.108  18.145  1.00  0.00    -0.351 N 
HETATM    8  C14 UNL     1       7.550   3.792  18.438  1.00  0.00     0.226 C 
HETATM    9  O3  UNL     1       8.301   3.625  19.433  1.00  0.00    -0.273 OA
HETATM   10  C24 UNL     1       7.558   6.253  18.976  1.00  0.00     0.135 C 
HETATM   11  C25 UNL     1       6.292   7.054  21.027  1.00  0.00     0.036 C 
ENDROOT
BRANCH   1  12
HETATM   12  N2  UNL     1       7.050   9.361  21.556  1.00  0.00    -0.355 N 
HETATM   13  C7  UNL     1       6.612  10.497  22.276  1.00  0.00     0.240 C 
HETATM   14  O2  UNL     1       5.387  10.763  22.291  1.00  0.00    -0.271 OA
ATOM     15  H2  UNL     1       8.042   9.124  21.531  1.00  0.00     0.162 HD
BRANCH  13  16
HETATM   16  C2  UNL     1       7.608  11.353  23.001  1.00  0.00     0.172 C 
HETATM   17  C1  UNL     1       7.868  12.622  22.254  1.00  0.00     0.042 C 
BRANCH  16  18
HETATM   18  N1  UNL     1       8.797  10.609  23.280  1.00  0.00    -0.348 N 
HETATM   19  C3  UNL     1       8.814   9.490  24.175  1.00  0.00     0.224 C 
HETATM   20  O1  UNL     1       7.738   9.150  24.736  1.00  0.00    -0.273 OA
ATOM     21  H1  UNL     1       9.667  10.886  22.824  1.00  0.00     0.163 HD
BRANCH  19  22
HETATM   22  C4  UNL     1      10.046   8.732  24.454  1.00  0.00     0.181 C 
BRANCH  22  23
HETATM   23  C5  UNL     1      10.549   8.997  25.848  1.00  0.00     0.248 C 
HETATM   24  C6  UNL     1      11.722   8.125  26.203  1.00  0.00     0.090 C 
HETATM   25  F1  UNL     1      10.936  10.315  25.980  1.00  0.00    -0.206 F 
HETATM   26  F2  UNL     1       9.511   8.770  26.734  1.00  0.00    -0.206 F 
ENDBRANCH  22  23
ENDBRANCH  19  22
ENDBRANCH  16  18
ENDBRANCH  13  16
ENDBRANCH   1  12
BRANCH   8  27
HETATM   27  C15 UNL     1       7.171   2.595  17.672  1.00  0.00     0.113 C 
HETATM   28  C16 UNL     1       7.471   1.280  18.307  1.00  0.00     0.052 C 
HETATM   29  C17 UNL     1       8.003   0.431  17.163  1.00  0.00     0.225 C 
HETATM   30  C18 UNL     1       9.496   0.736  17.099  1.00  0.00     0.038 C 
HETATM   31  N4  UNL     1       7.585   1.131  15.964  1.00  0.00     0.102 N 
HETATM   32  C19 UNL     1       9.440   2.209  16.661  1.00  0.00     0.039 C 
HETATM   33  C20 UNL     1       7.953   2.468  16.384  1.00  0.00     0.237 C 
BRANCH  31  34
HETATM   34  C21 UNL     1       6.230   0.909  15.645  1.00  0.00     0.216 C 
HETATM   35  C22 UNL     1       6.132  -0.569  15.221  1.00  0.00     0.042 C 
HETATM   36  C23 UNL     1       5.711   1.710  14.496  1.00  0.00     0.042 C 
ENDBRANCH  31  34
ENDBRANCH   8  27
TORSDOF 7
ENDMDL
MODEL 3
REMARK VINA RESULT: -7.806493350      1.925      2.351
REMARK  7 active torsions:
REMARK  status: ('A' for Active; 'I' for Inactive)
REMARK    1  A    between atoms: C2_2  and  N1_3 
REMARK    2  A    between atoms: C2_2  and  C7_12 
REMARK       I    between atoms: N1_3  and  C3_5 
REMARK    3  A    between atoms: C3_5  and  C4_7 
REMARK    4  A    between atoms: C4_7  and  C5_8 
REMARK       I    between atoms: C7_12  and  N2_14 
REMARK    5  A    between atoms: N2_14  and  C8_16 
REMARK       I    between atoms: N3_22  and  C14_23 
REMARK    6  A    between atoms: C14_23  and  C15_25 
REMARK    7  A    between atoms: N4_31  and  C21_32 
ROOT
HETATM    1  C8  UNL     1       7.984   6.906  20.390  1.00  0.00     0.086 C 
HETATM    2  C9  UNL     1       7.900   5.423  20.657  1.00  0.00     0.036 C 
HETATM    3  C10 UNL     1       7.308   5.222  19.306  1.00  0.00    -0.020 C 
HETATM    4  C11 UNL     1       8.255   4.640  18.274  1.00  0.00     0.013 C 
HETATM    5  C12 UNL     1       8.453   3.172  18.588  1.00  0.00     0.021 C 
HETATM    6  C13 UNL     1       7.114   2.466  18.586  1.00  0.00     0.126 C 
HETATM    7  N3  UNL     1       6.026   3.393  18.369  1.00  0.00    -0.351 N 
HETATM    8  C14 UNL     1       5.079   3.340  17.327  1.00  0.00     0.226 C 
HETATM    9  O3  UNL     1       4.195   4.234  17.298  1.00  0.00    -0.273 OA
HETATM   10  C24 UNL     1       5.998   4.462  19.386  1.00  0.00     0.135 C 
HETATM   11  C25 UNL     1       7.183   6.695  19.130  1.00  0.00     0.036 C 
ENDROOT
BRANCH   1  12
HETATM   12  N2  UNL     1       7.363   7.741  21.376  1.00  0.00    -0.355 N 
HETATM   13  C7  UNL     1       8.018   8.912  21.824  1.00  0.00     0.240 C 
HETATM   14  O2  UNL     1       9.139   9.196  21.341  1.00  0.00    -0.271 OA
ATOM     15  H2  UNL     1       6.449   7.491  21.754  1.00  0.00     0.162 HD
BRANCH  13  16
HETATM   16  C2  UNL     1       7.367   9.784  22.857  1.00  0.00     0.172 C 
HETATM   17  C1  UNL     1       7.096  11.151  22.313  1.00  0.00     0.042 C 
BRANCH  16  18
HETATM   18  N1  UNL     1       8.142   9.799  24.059  1.00  0.00    -0.348 N 
HETATM   19  C3  UNL     1       8.426   8.610  24.808  1.00  0.00     0.224 C 
HETATM   20  O1  UNL     1       7.974   7.511  24.389  1.00  0.00    -0.273 OA
ATOM     21  H1  UNL     1       8.506  10.690  24.397  1.00  0.00     0.163 HD
BRANCH  19  22
HETATM   22  C4  UNL     1       9.225   8.639  26.045  1.00  0.00     0.181 C 
BRANCH  22  23
HETATM   23  C5  UNL     1      10.693   8.784  25.746  1.00  0.00     0.248 C 
HETATM   24  C6  UNL     1      11.529   7.806  26.527  1.00  0.00     0.090 C 
HETATM   25  F1  UNL     1      10.936   8.583  24.403  1.00  0.00    -0.206 F 
HETATM   26  F2  UNL     1      11.074  10.077  26.056  1.00  0.00    -0.206 F 
ENDBRANCH  22  23
ENDBRANCH  19  22
ENDBRANCH  16  18
ENDBRANCH  13  16
ENDBRANCH   1  12
BRANCH   8  27
HETATM   27  C15 UNL     1       5.041   2.320  16.268  1.00  0.00     0.113 C 
HETATM   28  C16 UNL     1       3.974   2.476  15.237  1.00  0.00     0.052 C 
HETATM   29  C17 UNL     1       3.461   1.060  15.021  1.00  0.00     0.225 C 
HETATM   30  C18 UNL     1       2.393   0.855  16.091  1.00  0.00     0.038 C 
HETATM   31  N4  UNL     1       4.494   0.209  15.579  1.00  0.00     0.102 N 
HETATM   32  C19 UNL     1       3.276   0.894  17.349  1.00  0.00     0.039 C 
HETATM   33  C20 UNL     1       4.711   0.946  16.806  1.00  0.00     0.237 C 
BRANCH  31  34
HETATM   34  C21 UNL     1       5.601   0.057  14.718  1.00  0.00     0.216 C 
HETATM   35  C22 UNL     1       5.031  -0.464  13.385  1.00  0.00     0.042 C 
HETATM   36  C23 UNL     1       6.614  -0.947  15.162  1.00  0.00     0.042 C 
ENDBRANCH  31  34
ENDBRANCH   8  27
TORSDOF 7
ENDMDL
MODEL 4
REMARK VINA RESULT: -7.804625112      2.004      2.793
REMARK  7 active torsions:
REMARK  status: ('A' for Active; 'I' for Inactive)
REMARK    1  A    between atoms: C2_2  and  N1_3 
REMARK    2  A    between atoms: C2_2  and  C7_12 
REMARK       I    between atoms: N1_3  and  C3_5 
REMARK    3  A    between atoms: C3_5  and  C4_7 
REMARK    4  A    between atoms: C4_7  and  C5_8 
REMARK       I    between atoms: C7_12  and  N2_14 
REMARK    5  A    between atoms: N2_14  and  C8_16 
REMARK       I    between atoms: N3_22  and  C14_23 
REMARK    6  A    between atoms: C14_23  and  C15_25 
REMARK    7  A    between atoms: N4_31  and  C21_32 
ROOT
HETATM    1  C8  UNL     1       7.776   7.476  20.047  1.00  0.00     0.086 C 
HETATM    2  C9  UNL     1       8.179   6.079  20.452  1.00  0.00     0.036 C 
HETATM    3  C10 UNL     1       7.238   5.524  19.441  1.00  0.00    -0.020 C 
HETATM    4  C11 UNL     1       7.895   4.986  18.185  1.00  0.00     0.013 C 
HETATM    5  C12 UNL     1       8.565   3.671  18.526  1.00  0.00     0.021 C 
HETATM    6  C13 UNL     1       7.540   2.707  19.083  1.00  0.00     0.126 C 
HETATM    7  N3  UNL     1       6.241   3.329  19.209  1.00  0.00    -0.351 N 
HETATM    8  C14 UNL     1       5.045   2.894  18.603  1.00  0.00     0.226 C 
HETATM    9  O3  UNL     1       4.003   3.560  18.830  1.00  0.00    -0.273 OA
HETATM   10  C24 UNL     1       6.281   4.528  20.068  1.00  0.00     0.135 C 
HETATM   11  C25 UNL     1       6.678   6.882  19.200  1.00  0.00     0.036 C 
ENDROOT
BRANCH   1  12
HETATM   12  N2  UNL     1       7.331   8.318  21.119  1.00  0.00    -0.355 N 
HETATM   13  C7  UNL     1       8.082   9.463  21.476  1.00  0.00     0.240 C 
HETATM   14  O2  UNL     1       9.131   9.717  20.839  1.00  0.00    -0.271 OA
ATOM     15  H2  UNL     1       6.473   8.093  21.623  1.00  0.00     0.162 HD
BRANCH  13  16
HETATM   16  C2  UNL     1       7.615  10.342  22.599  1.00  0.00     0.172 C 
HETATM   17  C1  UNL     1       7.572  11.776  22.174  1.00  0.00     0.042 C 
BRANCH  16  18
HETATM   18  N1  UNL     1       8.410  10.124  23.768  1.00  0.00    -0.348 N 
HETATM   19  C3  UNL     1       8.307   8.933  24.558  1.00  0.00     0.224 C 
HETATM   20  O1  UNL     1       7.485   8.045  24.208  1.00  0.00    -0.273 OA
ATOM     21  H1  UNL     1       9.075  10.845  24.051  1.00  0.00     0.163 HD
BRANCH  19  22
HETATM   22  C4  UNL     1       9.131   8.721  25.761  1.00  0.00     0.181 C 
BRANCH  22  23
HETATM   23  C5  UNL     1      10.595   8.904  25.463  1.00  0.00     0.248 C 
HETATM   24  C6  UNL     1      11.458   7.968  26.264  1.00  0.00     0.090 C 
HETATM   25  F1  UNL     1      10.847   8.683  24.124  1.00  0.00    -0.206 F 
HETATM   26  F2  UNL     1      10.935  10.215  25.746  1.00  0.00    -0.206 F 
ENDBRANCH  22  23
ENDBRANCH  19  22
ENDBRANCH  16  18
ENDBRANCH  13  16
ENDBRANCH   1  12
BRANCH   8  27
HETATM   27  C15 UNL     1       4.918   1.720  17.726  1.00  0.00     0.113 C 
HETATM   28  C16 UNL     1       6.192   1.122  17.232  1.00  0.00     0.052 C 
HETATM   29  C17 UNL     1       5.907   0.803  15.771  1.00  0.00     0.225 C 
HETATM   30  C18 UNL     1       6.220   2.089  15.012  1.00  0.00     0.038 C 
HETATM   31  N4  UNL     1       4.461   0.835  15.667  1.00  0.00     0.102 N 
HETATM   32  C19 UNL     1       5.107   2.994  15.566  1.00  0.00     0.039 C 
HETATM   33  C20 UNL     1       4.240   2.054  16.416  1.00  0.00     0.237 C 
BRANCH  31  34
HETATM   34  C21 UNL     1       3.851  -0.339  16.157  1.00  0.00     0.216 C 
HETATM   35  C22 UNL     1       4.316  -1.476  15.228  1.00  0.00     0.042 C 
HETATM   36  C23 UNL     1       2.358  -0.342  16.111  1.00  0.00     0.042 C 
ENDBRANCH  31  34
ENDBRANCH   8  27
TORSDOF 7
ENDMDL
MODEL 5
REMARK VINA RESULT: -7.766394459      2.316      2.847
REMARK  7 active torsions:
REMARK  status: ('A' for Active; 'I' for Inactive)
REMARK    1  A    between atoms: C2_2  and  N1_3 
REMARK    2  A    between atoms: C2_2  and  C7_12 
REMARK       I    between atoms: N1_3  and  C3_5 
REMARK    3  A    between atoms: C3_5  and  C4_7 
REMARK    4  A    between atoms: C4_7  and  C5_8 
REMARK       I    between atoms: C7_12  and  N2_14 
REMARK    5  A    between atoms: N2_14  and  C8_16 
REMARK       I    between atoms: N3_22  and  C14_23 
REMARK    6  A    between atoms: C14_23  and  C15_25 
REMARK    7  A    between atoms: N4_31  and  C21_32 
ROOT
HETATM    1  C8  UNL     1       8.052   5.731  20.104  1.00  0.00     0.086 C 
HETATM    2  C9  UNL     1       7.826   4.259  20.354  1.00  0.00     0.036 C 
HETATM    3  C10 UNL     1       7.593   4.057  18.898  1.00  0.00    -0.020 C 
HETATM    4  C11 UNL     1       8.741   3.409  18.151  1.00  0.00     0.013 C 
HETATM    5  C12 UNL     1       8.776   1.940  18.518  1.00  0.00     0.021 C 
HETATM    6  C13 UNL     1       7.449   1.298  18.177  1.00  0.00     0.126 C 
HETATM    7  N3  UNL     1       6.503   2.271  17.679  1.00  0.00    -0.351 N 
HETATM    8  C14 UNL     1       5.854   2.240  16.428  1.00  0.00     0.226 C 
HETATM    9  O3  UNL     1       5.054   3.174  16.164  1.00  0.00    -0.273 OA
HETATM   10  C24 UNL     1       6.269   3.362  18.644  1.00  0.00     0.135 C 
HETATM   11  C25 UNL     1       7.592   5.530  18.682  1.00  0.00     0.036 C 
ENDROOT
BRANCH   1  12
HETATM   12  N2  UNL     1       7.242   6.615  20.889  1.00  0.00    -0.355 N 
HETATM   13  C7  UNL     1       7.629   7.966  21.057  1.00  0.00     0.240 C 
HETATM   14  O2  UNL     1       8.684   8.362  20.508  1.00  0.00    -0.271 OA
ATOM     15  H2  UNL     1       6.387   6.272  21.326  1.00  0.00     0.162 HD
BRANCH  13  16
HETATM   16  C2  UNL     1       6.780   8.890  21.880  1.00  0.00     0.172 C 
HETATM   17  C1  UNL     1       6.087   9.894  21.016  1.00  0.00     0.042 C 
BRANCH  16  18
HETATM   18  N1  UNL     1       7.556   9.485  22.924  1.00  0.00    -0.348 N 
HETATM   19  C3  UNL     1       8.119   8.720  23.997  1.00  0.00     0.224 C 
HETATM   20  O1  UNL     1       7.922   7.476  24.020  1.00  0.00    -0.273 OA
ATOM     21  H1  UNL     1       7.715  10.492  22.904  1.00  0.00     0.163 HD
BRANCH  19  22
HETATM   22  C4  UNL     1       8.916   9.345  25.067  1.00  0.00     0.181 C 
BRANCH  22  23
HETATM   23  C5  UNL     1      10.388   9.301  24.752  1.00  0.00     0.248 C 
HETATM   24  C6  UNL     1      11.128   8.338  25.639  1.00  0.00     0.090 C 
HETATM   25  F1  UNL     1      10.590   8.923  23.441  1.00  0.00    -0.206 F 
HETATM   26  F2  UNL     1      10.903  10.575  24.910  1.00  0.00    -0.206 F 
ENDBRANCH  22  23
ENDBRANCH  19  22
ENDBRANCH  16  18
ENDBRANCH  13  16
ENDBRANCH   1  12
BRANCH   8  27
HETATM   27  C15 UNL     1       6.037   1.200  15.404  1.00  0.00     0.113 C 
HETATM   28  C16 UNL     1       5.672   1.574  14.007  1.00  0.00     0.052 C 
HETATM   29  C17 UNL     1       4.950   0.346  13.473  1.00  0.00     0.225 C 
HETATM   30  C18 UNL     1       3.495   0.521  13.898  1.00  0.00     0.038 C 
HETATM   31  N4  UNL     1       5.317  -0.718  14.387  1.00  0.00     0.102 N 
HETATM   32  C19 UNL     1       3.654   0.400  15.422  1.00  0.00     0.039 C 
HETATM   33  C20 UNL     1       5.126   0.013  15.622  1.00  0.00     0.237 C 
BRANCH  31  34
HETATM   34  C21 UNL     1       6.607  -1.232  14.139  1.00  0.00     0.216 C 
HETATM   35  C22 UNL     1       6.653  -1.549  12.632  1.00  0.00     0.042 C 
HETATM   36  C23 UNL     1       6.926  -2.508  14.846  1.00  0.00     0.042 C 
ENDBRANCH  31  34
ENDBRANCH   8  27
TORSDOF 7
ENDMDL
