MODEL 1
REMARK VINA RESULT: -9.801442112      0.000      0.000
REMARK  7 active torsions:
REMARK  status: ('A' for Active; 'I' for Inactive)
REMARK    1  A    between atoms: C2_3  and  C3_4 
REMARK       I    between atoms: C3_4  and  N2_6 
REMARK    2  A    between atoms: N2_6  and  C4_8 
REMARK    3  A    between atoms: C4_8  and  C5_9 
REMARK       I    between atoms: N3_17  and  C13_18 
REMARK    4  A    between atoms: C13_18  and  C14_20 
REMARK    5  A    between atoms: C14_20  and  C15_21 
REMARK    6  A    between atoms: C15_21  and  C16_22 
REMARK    7  A    between atoms: C16_22  and  N4_23 
REMARK       I    between atoms: N4_23  and  C17_25 
REMARK       I    between atoms: C17_25  and  N5_27 
ROOT
HETATM    1  N1  UNL     1       4.237   2.979  22.625  1.00  0.00    -0.197 NA
HETATM    2  C1  UNL     1       4.523   2.306  21.732  1.00  0.00     0.068 C 
HETATM    3  C2  UNL     1       4.888   1.447  20.625  1.00  0.00     0.226 C 
ENDROOT
BRANCH   3   4
HETATM    4  C3  UNL     1       6.219   1.827  20.029  1.00  0.00     0.231 C 
HETATM    5  O1  UNL     1       7.226   1.494  20.673  1.00  0.00    -0.273 OA
HETATM    6  N2  UNL     1       6.223   2.528  18.795  1.00  0.00    -0.347 N 
ATOM      7  H2  UNL     1       5.330   2.746  18.354  1.00  0.00     0.163 HD
BRANCH   6   8
HETATM    8  C4  UNL     1       7.452   2.949  18.132  1.00  0.00     0.062 C 
HETATM    9  C11 UNL     1       8.342   3.757  19.017  1.00  0.00     0.056 C 
HETATM   10  C12 UNL     1       7.696   4.812  19.807  1.00  0.00     0.135 C 
HETATM   11  N3  UNL     1       7.032   5.844  19.027  1.00  0.00    -0.289 N 
HETATM   12  C13 UNL     1       7.413   7.196  19.355  1.00  0.00     0.224 C 
HETATM   13  C22 UNL     1       6.021   5.675  18.049  1.00  0.00     0.326 C 
HETATM   14  O2  UNL     1       6.838   8.144  18.782  1.00  0.00    -0.273 OA
HETATM   15  F1  UNL     1       4.873   5.270  18.804  1.00  0.00    -0.182 F 
HETATM   16  F2  UNL     1       5.560   6.890  17.508  1.00  0.00    -0.182 F 
HETATM   17  C23 UNL     1       6.150   4.750  16.920  1.00  0.00     0.107 C 
HETATM   18  C24 UNL     1       7.206   3.724  16.868  1.00  0.00     0.044 C 
BRANCH   8  19
HETATM   19  C5  UNL     1       8.213   1.695  17.778  1.00  0.00    -0.030 A 
HETATM   20  C6  UNL     1       9.525   1.582  18.201  1.00  0.00     0.010 A 
HETATM   21  C7  UNL     1      10.239   0.444  17.899  1.00  0.00     0.001 A 
HETATM   22  C8  UNL     1       9.700  -0.604  17.183  1.00  0.00     0.000 A 
HETATM   23  C9  UNL     1       8.395  -0.474  16.771  1.00  0.00     0.001 A 
HETATM   24  C10 UNL     1       7.658   0.673  17.068  1.00  0.00     0.010 A 
ENDBRANCH   8  19
BRANCH  12  25
HETATM   25  C14 UNL     1       8.451   7.550  20.323  1.00  0.00     0.105 C 
BRANCH  25  26
HETATM   26  C15 UNL     1       8.558   9.015  20.577  1.00  0.00     0.029 C 
BRANCH  26  27
HETATM   27  C16 UNL     1       8.277   9.494  21.940  1.00  0.00     0.125 C 
BRANCH  27  28
HETATM   28  N4  UNL     1       9.228   9.154  22.965  1.00  0.00    -0.343 N 
HETATM   29  C17 UNL     1       8.818   8.652  24.251  1.00  0.00     0.318 C 
HETATM   30  O3  UNL     1       7.629   8.476  24.536  1.00  0.00    -0.247 OA
HETATM   31  N5  UNL     1       9.811   8.341  25.252  1.00  0.00    -0.334 N 
HETATM   32  C18 UNL     1       9.555   7.832  26.562  1.00  0.00     0.127 C 
HETATM   33  C21 UNL     1      11.236   8.513  25.092  1.00  0.00     0.127 C 
HETATM   34  C19 UNL     1      10.783   7.107  27.012  1.00  0.00     0.022 C 
HETATM   35  C20 UNL     1      11.849   7.565  26.064  1.00  0.00     0.022 C 
ATOM     36  H4  UNL     1      10.223   9.273  22.775  1.00  0.00     0.164 HD
ENDBRANCH  27  28
ENDBRANCH  26  27
ENDBRANCH  25  26
ENDBRANCH  12  25
ENDBRANCH   6   8
ENDBRANCH   3   4
TORSDOF 7
ENDMDL
MODEL 2
REMARK VINA RESULT: -9.719726719      1.046      1.177
REMARK  7 active torsions:
REMARK  status: ('A' for Active; 'I' for Inactive)
REMARK    1  A    between atoms: C2_3  and  C3_4 
REMARK       I    between atoms: C3_4  and  N2_6 
REMARK    2  A    between atoms: N2_6  and  C4_8 
REMARK    3  A    between atoms: C4_8  and  C5_9 
REMARK       I    between atoms: N3_17  and  C13_18 
REMARK    4  A    between atoms: C13_18  and  C14_20 
REMARK    5  A    between atoms: C14_20  and  C15_21 
REMARK    6  A    between atoms: C15_21  and  C16_22 
REMARK    7  A    between atoms: C16_22  and  N4_23 
REMARK       I    between atoms: N4_23  and  C17_25 
REMARK       I    between atoms: C17_25  and  N5_27 
ROOT
HETATM    1  N1  UNL     1       4.178   4.450  23.173  1.00  0.00    -0.197 NA
HETATM    2  C1  UNL     1       4.474   3.653  22.393  1.00  0.00     0.068 C 
HETATM    3  C2  UNL     1       4.854   2.641  21.429  1.00  0.00     0.226 C 
ENDROOT
BRANCH   3   4
HETATM    4  C3  UNL     1       6.115   3.010  20.689  1.00  0.00     0.231 C 
HETATM    5  O1  UNL     1       7.182   2.804  21.286  1.00  0.00    -0.273 OA
HETATM    6  N2  UNL     1       5.989   3.557  19.386  1.00  0.00    -0.347 N 
ATOM      7  H2  UNL     1       5.055   3.678  18.994  1.00  0.00     0.163 HD
BRANCH   6   8
HETATM    8  C4  UNL     1       7.140   3.953  18.583  1.00  0.00     0.062 C 
HETATM    9  C11 UNL     1       8.048   4.900  19.296  1.00  0.00     0.056 C 
HETATM   10  C12 UNL     1       7.405   6.010  20.010  1.00  0.00     0.135 C 
HETATM   11  N3  UNL     1       6.629   6.911  19.173  1.00  0.00    -0.289 N 
HETATM   12  C13 UNL     1       6.958   8.307  19.313  1.00  0.00     0.224 C 
HETATM   13  C22 UNL     1       5.559   6.581  18.305  1.00  0.00     0.326 C 
HETATM   14  O2  UNL     1       6.292   9.154  18.683  1.00  0.00    -0.273 OA
HETATM   15  F1  UNL     1       4.495   6.216  19.189  1.00  0.00    -0.182 F 
HETATM   16  F2  UNL     1       4.994   7.702  17.667  1.00  0.00    -0.182 F 
HETATM   17  C23 UNL     1       5.656   5.536  17.281  1.00  0.00     0.107 C 
HETATM   18  C24 UNL     1       6.759   4.561  17.262  1.00  0.00     0.044 C 
BRANCH   8  19
HETATM   19  C5  UNL     1       7.941   2.702  18.315  1.00  0.00    -0.030 A 
HETATM   20  C6  UNL     1       9.316   2.810  18.220  1.00  0.00     0.010 A 
HETATM   21  C7  UNL     1      10.071   1.683  17.984  1.00  0.00     0.001 A 
HETATM   22  C8  UNL     1       9.512   0.432  17.836  1.00  0.00     0.000 A 
HETATM   23  C9  UNL     1       8.144   0.343  17.934  1.00  0.00     0.001 A 
HETATM   24  C10 UNL     1       7.365   1.476  18.171  1.00  0.00     0.010 A 
ENDBRANCH   8  19
BRANCH  12  25
HETATM   25  C14 UNL     1       8.044   8.821  20.149  1.00  0.00     0.105 C 
BRANCH  25  26
HETATM   26  C15 UNL     1       7.886  10.256  20.520  1.00  0.00     0.029 C 
BRANCH  26  27
HETATM   27  C16 UNL     1       7.731  10.579  21.947  1.00  0.00     0.125 C 
BRANCH  27  28
HETATM   28  N4  UNL     1       8.707  10.035  22.855  1.00  0.00    -0.343 N 
HETATM   29  C17 UNL     1       8.335   9.455  24.119  1.00  0.00     0.318 C 
HETATM   30  O3  UNL     1       7.157   9.384  24.484  1.00  0.00    -0.247 OA
HETATM   31  N5  UNL     1       9.354   8.939  25.001  1.00  0.00    -0.334 N 
HETATM   32  C18 UNL     1       9.135   8.332  26.277  1.00  0.00     0.127 C 
HETATM   33  C21 UNL     1      10.774   8.968  24.740  1.00  0.00     0.127 C 
HETATM   34  C19 UNL     1      10.299   7.436  26.555  1.00  0.00     0.022 C 
HETATM   35  C20 UNL     1      11.340   7.866  25.567  1.00  0.00     0.022 C 
ATOM     36  H4  UNL     1       9.693  10.062  22.594  1.00  0.00     0.164 HD
ENDBRANCH  27  28
ENDBRANCH  26  27
ENDBRANCH  25  26
ENDBRANCH  12  25
ENDBRANCH   6   8
ENDBRANCH   3   4
TORSDOF 7
ENDMDL
MODEL 3
REMARK VINA RESULT: -9.568937323      1.290      1.575
REMARK  7 active torsions:
REMARK  status: ('A' for Active; 'I' for Inactive)
REMARK    1  A    between atoms: C2_3  and  C3_4 
REMARK       I    between atoms: C3_4  and  N2_6 
REMARK    2  A    between atoms: N2_6  and  C4_8 
REMARK    3  A    between atoms: C4_8  and  C5_9 
REMARK       I    between atoms: N3_17  and  C13_18 
REMARK    4  A    between atoms: C13_18  and  C14_20 
REMARK    5  A    between atoms: C14_20  and  C15_21 
REMARK    6  A    between atoms: C15_21  and  C16_22 
REMARK    7  A    between atoms: C16_22  and  N4_23 
REMARK       I    between atoms: N4_23  and  C17_25 
REMARK       I    between atoms: C17_25  and  N5_27 
ROOT
HETATM    1  N1  UNL     1       3.726   3.542  23.310  1.00  0.00    -0.197 NA
HETATM    2  C1  UNL     1       4.191   2.817  22.541  1.00  0.00     0.068 C 
HETATM    3  C2  UNL     1       4.782   1.897  21.592  1.00  0.00     0.226 C 
ENDROOT
BRANCH   3   4
HETATM    4  C3  UNL     1       6.042   2.451  20.978  1.00  0.00     0.231 C 
HETATM    5  O1  UNL     1       7.098   2.217  21.585  1.00  0.00    -0.273 OA
HETATM    6  N2  UNL     1       5.929   3.187  19.770  1.00  0.00    -0.347 N 
ATOM      7  H2  UNL     1       5.004   3.313  19.359  1.00  0.00     0.163 HD
BRANCH   6   8
HETATM    8  C4  UNL     1       7.081   3.771  19.092  1.00  0.00     0.062 C 
HETATM    9  C11 UNL     1       7.943   4.581  20.005  1.00  0.00     0.056 C 
HETATM   10  C12 UNL     1       7.249   5.504  20.911  1.00  0.00     0.135 C 
HETATM   11  N3  UNL     1       6.458   6.533  20.252  1.00  0.00    -0.289 N 
HETATM   12  C13 UNL     1       6.737   7.881  20.680  1.00  0.00     0.224 C 
HETATM   13  C22 UNL     1       5.417   6.354  19.309  1.00  0.00     0.326 C 
HETATM   14  O2  UNL     1       6.054   8.818  20.216  1.00  0.00    -0.273 OA
HETATM   15  F1  UNL     1       4.349   5.785  20.075  1.00  0.00    -0.182 F 
HETATM   16  F2  UNL     1       4.826   7.562  18.896  1.00  0.00    -0.182 F 
HETATM   17  C23 UNL     1       5.568   5.540  18.099  1.00  0.00     0.107 C 
HETATM   18  C24 UNL     1       6.705   4.622  17.912  1.00  0.00     0.044 C 
BRANCH   8  19
HETATM   19  C5  UNL     1       7.929   2.624  18.599  1.00  0.00    -0.030 A 
HETATM   20  C6  UNL     1       9.269   2.859  18.347  1.00  0.00     0.010 A 
HETATM   21  C7  UNL     1      10.066   1.828  17.904  1.00  0.00     0.001 A 
HETATM   22  C8  UNL     1       9.586   0.552  17.696  1.00  0.00     0.000 A 
HETATM   23  C9  UNL     1       8.252   0.337  17.951  1.00  0.00     0.001 A 
HETATM   24  C10 UNL     1       7.430   1.372  18.400  1.00  0.00     0.010 A 
ENDBRANCH   8  19
BRANCH  12  25
HETATM   25  C14 UNL     1       7.789   8.247  21.629  1.00  0.00     0.105 C 
BRANCH  25  26
HETATM   26  C15 UNL     1       7.995   9.718  21.756  1.00  0.00     0.029 C 
BRANCH  26  27
HETATM   27  C16 UNL     1       8.213  10.262  23.105  1.00  0.00     0.125 C 
BRANCH  27  28
HETATM   28  N4  UNL     1       8.633   9.340  24.127  1.00  0.00    -0.343 N 
HETATM   29  C17 UNL     1      10.022   9.059  24.377  1.00  0.00     0.318 C 
HETATM   30  O3  UNL     1      10.926   9.603  23.734  1.00  0.00    -0.247 OA
HETATM   31  N5  UNL     1      10.392   8.113  25.403  1.00  0.00    -0.334 N 
HETATM   32  C18 UNL     1      11.723   7.740  25.765  1.00  0.00     0.127 C 
HETATM   33  C21 UNL     1       9.464   7.371  26.224  1.00  0.00     0.127 C 
HETATM   34  C19 UNL     1      11.687   7.257  27.180  1.00  0.00     0.022 C 
HETATM   35  C20 UNL     1      10.233   7.018  27.450  1.00  0.00     0.022 C 
ATOM     36  H4  UNL     1       7.924   8.872  24.692  1.00  0.00     0.164 HD
ENDBRANCH  27  28
ENDBRANCH  26  27
ENDBRANCH  25  26
ENDBRANCH  12  25
ENDBRANCH   6   8
ENDBRANCH   3   4
TORSDOF 7
ENDMDL
MODEL 4
REMARK VINA RESULT: -9.455111646      1.387      1.491
REMARK  7 active torsions:
REMARK  status: ('A' for Active; 'I' for Inactive)
REMARK    1  A    between atoms: C2_3  and  C3_4 
REMARK       I    between atoms: C3_4  and  N2_6 
REMARK    2  A    between atoms: N2_6  and  C4_8 
REMARK    3  A    between atoms: C4_8  and  C5_9 
REMARK       I    between atoms: N3_17  and  C13_18 
REMARK    4  A    between atoms: C13_18  and  C14_20 
REMARK    5  A    between atoms: C14_20  and  C15_21 
REMARK    6  A    between atoms: C15_21  and  C16_22 
REMARK    7  A    between atoms: C16_22  and  N4_23 
REMARK       I    between atoms: N4_23  and  C17_25 
REMARK       I    between atoms: C17_25  and  N5_27 
ROOT
HETATM    1  N1  UNL     1       4.039   1.408  21.919  1.00  0.00    -0.197 NA
HETATM    2  C1  UNL     1       3.988   1.473  20.768  1.00  0.00     0.068 C 
HETATM    3  C2  UNL     1       3.931   1.534  19.323  1.00  0.00     0.226 C 
ENDROOT
BRANCH   3   4
HETATM    4  C3  UNL     1       5.155   2.190  18.735  1.00  0.00     0.231 C 
HETATM    5  O1  UNL     1       5.336   2.027  17.519  1.00  0.00    -0.273 OA
HETATM    6  N2  UNL     1       5.997   2.931  19.604  1.00  0.00    -0.347 N 
ATOM      7  H2  UNL     1       5.746   2.998  20.590  1.00  0.00     0.163 HD
BRANCH   6   8
HETATM    8  C4  UNL     1       7.209   3.601  19.144  1.00  0.00     0.062 C 
HETATM    9  C11 UNL     1       7.846   4.440  20.203  1.00  0.00     0.056 C 
HETATM   10  C12 UNL     1       6.948   5.297  20.987  1.00  0.00     0.135 C 
HETATM   11  N3  UNL     1       6.217   6.290  20.216  1.00  0.00    -0.289 N 
HETATM   12  C13 UNL     1       6.330   7.643  20.703  1.00  0.00     0.224 C 
HETATM   13  C22 UNL     1       5.368   6.071  19.104  1.00  0.00     0.326 C 
HETATM   14  O2  UNL     1       5.678   8.546  20.141  1.00  0.00    -0.273 OA
HETATM   15  F1  UNL     1       4.223   5.419  19.665  1.00  0.00    -0.182 F 
HETATM   16  F2  UNL     1       4.780   7.250  18.611  1.00  0.00    -0.182 F 
HETATM   17  C23 UNL     1       5.778   5.297  17.928  1.00  0.00     0.107 C 
HETATM   18  C24 UNL     1       6.986   4.456  17.928  1.00  0.00     0.044 C 
BRANCH   8  19
HETATM   19  C5  UNL     1       8.202   2.522  18.789  1.00  0.00    -0.030 A 
HETATM   20  C6  UNL     1       9.311   2.870  18.040  1.00  0.00     0.010 A 
HETATM   21  C7  UNL     1      10.236   1.905  17.710  1.00  0.00     0.001 A 
HETATM   22  C8  UNL     1      10.108   0.588  18.098  1.00  0.00     0.000 A 
HETATM   23  C9  UNL     1       9.000   0.261  18.842  1.00  0.00     0.001 A 
HETATM   24  C10 UNL     1       8.052   1.226  19.184  1.00  0.00     0.010 A 
ENDBRANCH   8  19
BRANCH  12  25
HETATM   25  C14 UNL     1       7.177   8.049  21.825  1.00  0.00     0.105 C 
BRANCH  25  26
HETATM   26  C15 UNL     1       7.839   9.371  21.627  1.00  0.00     0.029 C 
BRANCH  26  27
HETATM   27  C16 UNL     1       8.162  10.158  22.827  1.00  0.00     0.125 C 
BRANCH  27  28
HETATM   28  N4  UNL     1       9.176   9.636  23.704  1.00  0.00    -0.343 N 
HETATM   29  C17 UNL     1       8.849   8.869  24.878  1.00  0.00     0.318 C 
HETATM   30  O3  UNL     1       7.681   8.611  25.186  1.00  0.00    -0.247 OA
HETATM   31  N5  UNL     1       9.903   8.381  25.735  1.00  0.00    -0.334 N 
HETATM   32  C18 UNL     1       9.732   7.606  26.923  1.00  0.00     0.127 C 
HETATM   33  C21 UNL     1      11.314   8.615  25.535  1.00  0.00     0.127 C 
HETATM   34  C19 UNL     1      10.992   6.832  27.143  1.00  0.00     0.022 C 
HETATM   35  C20 UNL     1      11.995   7.501  26.252  1.00  0.00     0.022 C 
ATOM     36  H4  UNL     1      10.157   9.814  23.487  1.00  0.00     0.164 HD
ENDBRANCH  27  28
ENDBRANCH  26  27
ENDBRANCH  25  26
ENDBRANCH  12  25
ENDBRANCH   6   8
ENDBRANCH   3   4
TORSDOF 7
ENDMDL
MODEL 5
REMARK VINA RESULT: -9.389244782      2.447      2.935
REMARK  7 active torsions:
REMARK  status: ('A' for Active; 'I' for Inactive)
REMARK    1  A    between atoms: C2_3  and  C3_4 
REMARK       I    between atoms: C3_4  and  N2_6 
REMARK    2  A    between atoms: N2_6  and  C4_8 
REMARK    3  A    between atoms: C4_8  and  C5_9 
REMARK       I    between atoms: N3_17  and  C13_18 
REMARK    4  A    between atoms: C13_18  and  C14_20 
REMARK    5  A    between atoms: C14_20  and  C15_21 
REMARK    6  A    between atoms: C15_21  and  C16_22 
REMARK    7  A    between atoms: C16_22  and  N4_23 
REMARK       I    between atoms: N4_23  and  C17_25 
REMARK       I    between atoms: C17_25  and  N5_27 
ROOT
HETATM    1  N1  UNL     1       2.365   2.565  18.191  1.00  0.00    -0.197 NA
HETATM    2  C1  UNL     1       3.214   2.495  17.413  1.00  0.00     0.068 C 
HETATM    3  C2  UNL     1       4.282   2.388  16.441  1.00  0.00     0.226 C 
ENDROOT
BRANCH   3   4
HETATM    4  C3  UNL     1       5.597   2.880  16.989  1.00  0.00     0.231 C 
HETATM    5  O1  UNL     1       6.504   3.062  16.162  1.00  0.00    -0.273 OA
HETATM    6  N2  UNL     1       5.700   3.095  18.388  1.00  0.00    -0.347 N 
ATOM      7  H2  UNL     1       4.884   2.913  18.972  1.00  0.00     0.163 HD
BRANCH   6   8
HETATM    8  C4  UNL     1       6.925   3.564  19.025  1.00  0.00     0.062 C 
HETATM    9  C11 UNL     1       6.807   3.661  20.511  1.00  0.00     0.056 C 
HETATM   10  C12 UNL     1       5.584   4.284  21.031  1.00  0.00     0.135 C 
HETATM   11  N3  UNL     1       5.377   5.665  20.623  1.00  0.00    -0.289 N 
HETATM   12  C13 UNL     1       5.130   6.588  21.702  1.00  0.00     0.224 C 
HETATM   13  C22 UNL     1       5.323   6.180  19.304  1.00  0.00     0.326 C 
HETATM   14  O2  UNL     1       4.873   7.780  21.434  1.00  0.00    -0.273 OA
HETATM   15  F1  UNL     1       4.094   5.665  18.781  1.00  0.00    -0.182 F 
HETATM   16  F2  UNL     1       5.066   7.563  19.257  1.00  0.00    -0.182 F 
HETATM   17  C23 UNL     1       6.364   5.924  18.305  1.00  0.00     0.107 C 
HETATM   18  C24 UNL     1       7.395   4.890  18.497  1.00  0.00     0.044 C 
BRANCH   8  19
HETATM   19  C5  UNL     1       7.992   2.536  18.741  1.00  0.00    -0.030 A 
HETATM   20  C6  UNL     1       9.155   2.950  18.118  1.00  0.00     0.010 A 
HETATM   21  C7  UNL     1      10.147   2.033  17.854  1.00  0.00     0.001 A 
HETATM   22  C8  UNL     1      10.035   0.700  18.188  1.00  0.00     0.000 A 
HETATM   23  C9  UNL     1       8.873   0.306  18.807  1.00  0.00     0.001 A 
HETATM   24  C10 UNL     1       7.857   1.223  19.079  1.00  0.00     0.010 A 
ENDBRANCH   8  19
BRANCH  12  25
HETATM   25  C14 UNL     1       5.168   6.231  23.120  1.00  0.00     0.105 C 
BRANCH  25  26
HETATM   26  C15 UNL     1       4.230   7.026  23.963  1.00  0.00     0.029 C 
BRANCH  26  27
HETATM   27  C16 UNL     1       4.810   8.034  24.865  1.00  0.00     0.125 C 
BRANCH  27  28
HETATM   28  N4  UNL     1       6.216   7.930  25.151  1.00  0.00    -0.343 N 
HETATM   29  C17 UNL     1       7.175   8.862  24.619  1.00  0.00     0.318 C 
HETATM   30  O3  UNL     1       6.839   9.806  23.897  1.00  0.00    -0.247 OA
HETATM   31  N5  UNL     1       8.578   8.704  24.922  1.00  0.00    -0.334 N 
HETATM   32  C18 UNL     1       9.638   9.550  24.472  1.00  0.00     0.127 C 
HETATM   33  C21 UNL     1       9.141   7.643  25.724  1.00  0.00     0.127 C 
HETATM   34  C19 UNL     1      10.763   9.421  25.448  1.00  0.00     0.022 C 
HETATM   35  C20 UNL     1      10.430   8.189  26.233  1.00  0.00     0.022 C 
ATOM     36  H4  UNL     1       6.544   7.172  25.750  1.00  0.00     0.164 HD
ENDBRANCH  27  28
ENDBRANCH  26  27
ENDBRANCH  25  26
ENDBRANCH  12  25
ENDBRANCH   6   8
ENDBRANCH   3   4
TORSDOF 7
ENDMDL
