MODEL 1
REMARK VINA RESULT: -8.633993384      0.000      0.000
REMARK  9 active torsions:
REMARK  status: ('A' for Active; 'I' for Inactive)
REMARK    1  A    between atoms: C2_2  and  C4_4 
REMARK    2  A    between atoms: C4_4  and  N1_5 
REMARK    3  A    between atoms: N1_5  and  C5_6 
REMARK    4  A    between atoms: N1_5  and  C11_14 
REMARK    5  A    between atoms: C5_6  and  C6_7 
REMARK       I    between atoms: C6_7  and  N2_9 
REMARK    6  A    between atoms: C15_18  and  N3_19 
REMARK       I    between atoms: N3_19  and  C16_21 
REMARK    7  A    between atoms: C16_21  and  C17_23 
REMARK    8  A    between atoms: C17_23  and  N4_25 
REMARK    9  A    between atoms: N4_25  and  C18_27 
ROOT
HETATM    1  C11 UNL     1       5.609   7.372  23.564  1.00  0.00     0.111 C 
HETATM    2  C12 UNL     1       4.942   8.080  24.682  1.00  0.00     0.028 C 
HETATM    3  C13 UNL     1       3.505   7.649  24.786  1.00  0.00     0.004 C 
HETATM    4  C14 UNL     1       3.244   6.827  23.583  1.00  0.00     0.027 C 
HETATM    5  C15 UNL     1       4.498   6.688  22.811  1.00  0.00     0.108 C 
ENDROOT
BRANCH   5   6
HETATM    6  N3  UNL     1       4.896   5.270  22.686  1.00  0.00    -0.348 N 
HETATM    7  C16 UNL     1       5.235   4.655  21.494  1.00  0.00     0.279 C 
HETATM    8  O2  UNL     1       5.205   5.325  20.438  1.00  0.00    -0.265 OA
ATOM      9  H3  UNL     1       4.924   4.707  23.536  1.00  0.00     0.163 HD
BRANCH   7  10
HETATM   10  C17 UNL     1       5.620   3.274  21.425  1.00  0.00     0.165 C 
HETATM   11  S1  UNL     1       4.493   2.141  21.857  1.00  0.00    -0.055 SA
BRANCH  10  12
HETATM   12  N4  UNL     1       6.915   2.870  21.003  1.00  0.00    -0.372 N 
ATOM     13  H4  UNL     1       7.638   2.852  21.721  1.00  0.00     0.161 HD
BRANCH  12  14
HETATM   14  C18 UNL     1       7.318   2.490  19.699  1.00  0.00     0.083 C 
HETATM   15  C19 UNL     1       7.860   1.112  19.548  1.00  0.00     0.031 C 
HETATM   16  C20 UNL     1       8.374   0.868  18.152  1.00  0.00     0.081 C 
HETATM   17  C21 UNL     1       9.210   1.966  17.590  1.00  0.00     0.243 C 
HETATM   18  F1  UNL     1      10.377   2.170  18.288  1.00  0.00    -0.206 F 
HETATM   19  F2  UNL     1       9.448   1.685  16.258  1.00  0.00    -0.206 F 
HETATM   20  C22 UNL     1       8.394   3.252  17.633  1.00  0.00     0.081 C 
HETATM   21  C23 UNL     1       8.231   3.556  19.133  1.00  0.00     0.031 C 
ENDBRANCH  12  14
ENDBRANCH  10  12
ENDBRANCH   7  10
ENDBRANCH   5   6
BRANCH   1  22
HETATM   22  N1  UNL     1       6.458   8.156  22.804  1.00  0.00    -0.358 N 
BRANCH  22  23
HETATM   23  C4  UNL     1       6.274   8.649  21.534  1.00  0.00     0.068 C 
BRANCH  23  24
HETATM   24  C2  UNL     1       6.983   8.338  20.283  1.00  0.00     0.016 C 
HETATM   25  C1  UNL     1       7.621   9.718  19.777  1.00  0.00     0.015 C 
HETATM   26  C3  UNL     1       8.230   7.496  20.365  1.00  0.00     0.015 C 
ENDBRANCH  23  24
ENDBRANCH  22  23
BRANCH  22  27
HETATM   27  C5  UNL     1       6.968   9.309  23.596  1.00  0.00     0.165 C 
BRANCH  27  28
HETATM   28  C6  UNL     1       8.337   9.652  23.558  1.00  0.00     0.259 C 
HETATM   29  O1  UNL     1       8.887  10.579  22.967  1.00  0.00    -0.267 OA
HETATM   30  N2  UNL     1       9.257   8.816  24.313  1.00  0.00    -0.347 N 
HETATM   31  C7  UNL     1      10.688   8.988  24.420  1.00  0.00     0.126 C 
HETATM   32  C10 UNL     1       8.959   7.641  25.107  1.00  0.00     0.126 C 
HETATM   33  C8  UNL     1      10.872   8.905  25.922  1.00  0.00     0.021 C 
HETATM   34  C9  UNL     1       9.796   7.912  26.352  1.00  0.00     0.021 C 
ENDBRANCH  27  28
ENDBRANCH  22  27
ENDBRANCH   1  22
TORSDOF 9
ENDMDL
MODEL 2
REMARK VINA RESULT: -8.472742112      0.796      1.189
REMARK  9 active torsions:
REMARK  status: ('A' for Active; 'I' for Inactive)
REMARK    1  A    between atoms: C2_2  and  C4_4 
REMARK    2  A    between atoms: C4_4  and  N1_5 
REMARK    3  A    between atoms: N1_5  and  C5_6 
REMARK    4  A    between atoms: N1_5  and  C11_14 
REMARK    5  A    between atoms: C5_6  and  C6_7 
REMARK       I    between atoms: C6_7  and  N2_9 
REMARK    6  A    between atoms: C15_18  and  N3_19 
REMARK       I    between atoms: N3_19  and  C16_21 
REMARK    7  A    between atoms: C16_21  and  C17_23 
REMARK    8  A    between atoms: C17_23  and  N4_25 
REMARK    9  A    between atoms: N4_25  and  C18_27 
ROOT
HETATM    1  C11 UNL     1       5.479   7.449  23.646  1.00  0.00     0.111 C 
HETATM    2  C12 UNL     1       4.803   8.087  24.800  1.00  0.00     0.028 C 
HETATM    3  C13 UNL     1       3.401   7.561  24.937  1.00  0.00     0.004 C 
HETATM    4  C14 UNL     1       3.156   6.751  23.723  1.00  0.00     0.027 C 
HETATM    5  C15 UNL     1       4.391   6.711  22.910  1.00  0.00     0.108 C 
ENDROOT
BRANCH   5   6
HETATM    6  N3  UNL     1       4.875   5.325  22.739  1.00  0.00    -0.348 N 
HETATM    7  C16 UNL     1       5.240   4.769  21.526  1.00  0.00     0.279 C 
HETATM    8  O2  UNL     1       5.160   5.467  20.491  1.00  0.00    -0.265 OA
ATOM      9  H3  UNL     1       4.945   4.739  23.571  1.00  0.00     0.163 HD
BRANCH   7  10
HETATM   10  C17 UNL     1       5.709   3.417  21.412  1.00  0.00     0.165 C 
HETATM   11  S1  UNL     1       4.677   2.205  21.867  1.00  0.00    -0.055 SA
BRANCH  10  12
HETATM   12  N4  UNL     1       7.008   3.106  20.927  1.00  0.00    -0.372 N 
ATOM     13  H4  UNL     1       7.783   3.289  21.564  1.00  0.00     0.161 HD
BRANCH  12  14
HETATM   14  C18 UNL     1       7.351   2.571  19.662  1.00  0.00     0.083 C 
HETATM   15  C19 UNL     1       7.776   1.144  19.637  1.00  0.00     0.031 C 
HETATM   16  C20 UNL     1       8.238   0.726  18.265  1.00  0.00     0.081 C 
HETATM   17  C21 UNL     1       9.150   1.692  17.589  1.00  0.00     0.243 C 
HETATM   18  F1  UNL     1      10.344   1.863  18.249  1.00  0.00    -0.206 F 
HETATM   19  F2  UNL     1       9.336   1.265  16.287  1.00  0.00    -0.206 F 
HETATM   20  C22 UNL     1       8.443   3.039  17.518  1.00  0.00     0.081 C 
HETATM   21  C23 UNL     1       8.336   3.498  18.982  1.00  0.00     0.031 C 
ENDBRANCH  12  14
ENDBRANCH  10  12
ENDBRANCH   7  10
ENDBRANCH   5   6
BRANCH   1  22
HETATM   22  N1  UNL     1       6.252   8.303  22.880  1.00  0.00    -0.358 N 
BRANCH  22  23
HETATM   23  C4  UNL     1       5.938   8.925  21.695  1.00  0.00     0.068 C 
BRANCH  23  24
HETATM   24  C2  UNL     1       5.246  10.198  21.445  1.00  0.00     0.016 C 
HETATM   25  C1  UNL     1       5.148  10.347  19.852  1.00  0.00     0.015 C 
HETATM   26  C3  UNL     1       3.784  10.293  21.799  1.00  0.00     0.015 C 
ENDBRANCH  23  24
ENDBRANCH  22  23
BRANCH  22  27
HETATM   27  C5  UNL     1       6.863   9.366  23.724  1.00  0.00     0.165 C 
BRANCH  27  28
HETATM   28  C6  UNL     1       8.235   9.677  23.599  1.00  0.00     0.259 C 
HETATM   29  O1  UNL     1       8.770  10.570  22.944  1.00  0.00    -0.267 OA
HETATM   30  N2  UNL     1       9.177   8.848  24.333  1.00  0.00    -0.347 N 
HETATM   31  C7  UNL     1      10.616   8.991  24.355  1.00  0.00     0.126 C 
HETATM   32  C10 UNL     1       8.900   7.709  25.184  1.00  0.00     0.126 C 
HETATM   33  C8  UNL     1      10.881   8.958  25.847  1.00  0.00     0.021 C 
HETATM   34  C9  UNL     1       9.810   8.005  26.371  1.00  0.00     0.021 C 
ENDBRANCH  27  28
ENDBRANCH  22  27
ENDBRANCH   1  22
TORSDOF 9
ENDMDL
MODEL 3
REMARK VINA RESULT: -8.447865277      0.582      1.159
REMARK  9 active torsions:
REMARK  status: ('A' for Active; 'I' for Inactive)
REMARK    1  A    between atoms: C2_2  and  C4_4 
REMARK    2  A    between atoms: C4_4  and  N1_5 
REMARK    3  A    between atoms: N1_5  and  C5_6 
REMARK    4  A    between atoms: N1_5  and  C11_14 
REMARK    5  A    between atoms: C5_6  and  C6_7 
REMARK       I    between atoms: C6_7  and  N2_9 
REMARK    6  A    between atoms: C15_18  and  N3_19 
REMARK       I    between atoms: N3_19  and  C16_21 
REMARK    7  A    between atoms: C16_21  and  C17_23 
REMARK    8  A    between atoms: C17_23  and  N4_25 
REMARK    9  A    between atoms: N4_25  and  C18_27 
ROOT
HETATM    1  C11 UNL     1       5.675   7.264  23.391  1.00  0.00     0.111 C 
HETATM    2  C12 UNL     1       5.109   7.884  24.612  1.00  0.00     0.028 C 
HETATM    3  C13 UNL     1       3.664   7.499  24.769  1.00  0.00     0.004 C 
HETATM    4  C14 UNL     1       3.294   6.808  23.513  1.00  0.00     0.027 C 
HETATM    5  C15 UNL     1       4.490   6.698  22.651  1.00  0.00     0.108 C 
ENDROOT
BRANCH   5   6
HETATM    6  N3  UNL     1       4.819   5.286  22.365  1.00  0.00    -0.348 N 
HETATM    7  C16 UNL     1       4.883   4.739  21.097  1.00  0.00     0.279 C 
HETATM    8  O2  UNL     1       4.649   5.470  20.110  1.00  0.00    -0.265 OA
ATOM      9  H3  UNL     1       5.011   4.673  23.158  1.00  0.00     0.163 HD
BRANCH   7  10
HETATM   10  C17 UNL     1       5.211   3.360  20.871  1.00  0.00     0.165 C 
HETATM   11  S1  UNL     1       4.880   2.284  22.084  1.00  0.00    -0.055 SA
BRANCH  10  12
HETATM   12  N4  UNL     1       5.798   2.911  19.658  1.00  0.00    -0.372 N 
ATOM     13  H4  UNL     1       5.167   2.799  18.865  1.00  0.00     0.161 HD
BRANCH  12  14
HETATM   14  C18 UNL     1       7.160   2.600  19.421  1.00  0.00     0.083 C 
HETATM   15  C19 UNL     1       7.945   3.604  18.651  1.00  0.00     0.031 C 
HETATM   16  C20 UNL     1       9.336   3.108  18.351  1.00  0.00     0.081 C 
HETATM   17  C21 UNL     1       9.410   1.703  17.861  1.00  0.00     0.243 C 
HETATM   18  F1  UNL     1       8.778   1.516  16.654  1.00  0.00    -0.206 F 
HETATM   19  F2  UNL     1      10.742   1.337  17.808  1.00  0.00    -0.206 F 
HETATM   20  C22 UNL     1       8.743   0.805  18.895  1.00  0.00     0.081 C 
HETATM   21  C23 UNL     1       7.257   1.201  18.851  1.00  0.00     0.031 C 
ENDBRANCH  12  14
ENDBRANCH  10  12
ENDBRANCH   7  10
ENDBRANCH   5   6
BRANCH   1  22
HETATM   22  N1  UNL     1       6.509   8.087  22.655  1.00  0.00    -0.358 N 
BRANCH  22  23
HETATM   23  C4  UNL     1       6.329   8.588  21.387  1.00  0.00     0.068 C 
BRANCH  23  24
HETATM   24  C2  UNL     1       6.923   8.168  20.108  1.00  0.00     0.016 C 
HETATM   25  C1  UNL     1       7.884   9.365  19.649  1.00  0.00     0.015 C 
HETATM   26  C3  UNL     1       7.917   7.036  20.125  1.00  0.00     0.015 C 
ENDBRANCH  23  24
ENDBRANCH  22  23
BRANCH  22  27
HETATM   27  C5  UNL     1       6.963   9.247  23.469  1.00  0.00     0.165 C 
BRANCH  27  28
HETATM   28  C6  UNL     1       8.320   9.638  23.461  1.00  0.00     0.259 C 
HETATM   29  O1  UNL     1       8.852  10.577  22.872  1.00  0.00    -0.267 OA
HETATM   30  N2  UNL     1       9.249   8.842  24.249  1.00  0.00    -0.347 N 
HETATM   31  C7  UNL     1      10.670   9.065  24.388  1.00  0.00     0.126 C 
HETATM   32  C10 UNL     1       8.972   7.667  25.048  1.00  0.00     0.126 C 
HETATM   33  C8  UNL     1      10.820   9.006  25.896  1.00  0.00     0.021 C 
HETATM   34  C9  UNL     1       9.767   7.981  26.311  1.00  0.00     0.021 C 
ENDBRANCH  27  28
ENDBRANCH  22  27
ENDBRANCH   1  22
TORSDOF 9
ENDMDL
MODEL 4
REMARK VINA RESULT: -8.435412996      1.184      1.488
REMARK  9 active torsions:
REMARK  status: ('A' for Active; 'I' for Inactive)
REMARK    1  A    between atoms: C2_2  and  C4_4 
REMARK    2  A    between atoms: C4_4  and  N1_5 
REMARK    3  A    between atoms: N1_5  and  C5_6 
REMARK    4  A    between atoms: N1_5  and  C11_14 
REMARK    5  A    between atoms: C5_6  and  C6_7 
REMARK       I    between atoms: C6_7  and  N2_9 
REMARK    6  A    between atoms: C15_18  and  N3_19 
REMARK       I    between atoms: N3_19  and  C16_21 
REMARK    7  A    between atoms: C16_21  and  C17_23 
REMARK    8  A    between atoms: C17_23  and  N4_25 
REMARK    9  A    between atoms: N4_25  and  C18_27 
ROOT
HETATM    1  C11 UNL     1       6.705   8.263  23.663  1.00  0.00     0.111 C 
HETATM    2  C12 UNL     1       5.979   9.006  24.719  1.00  0.00     0.028 C 
HETATM    3  C13 UNL     1       4.494   8.841  24.542  1.00  0.00     0.004 C 
HETATM    4  C14 UNL     1       4.318   8.164  23.238  1.00  0.00     0.027 C 
HETATM    5  C15 UNL     1       5.648   7.848  22.673  1.00  0.00     0.108 C 
ENDROOT
BRANCH   5   6
HETATM    6  N3  UNL     1       5.816   6.393  22.476  1.00  0.00    -0.348 N 
HETATM    7  C16 UNL     1       5.807   5.764  21.245  1.00  0.00     0.279 C 
HETATM    8  O2  UNL     1       5.644   6.454  20.214  1.00  0.00    -0.265 OA
ATOM      9  H3  UNL     1       5.947   5.813  23.305  1.00  0.00     0.163 HD
BRANCH   7  10
HETATM   10  C17 UNL     1       5.978   4.346  21.105  1.00  0.00     0.165 C 
HETATM   11  S1  UNL     1       4.677   3.379  21.438  1.00  0.00    -0.055 SA
BRANCH  10  12
HETATM   12  N4  UNL     1       7.212   3.770  20.697  1.00  0.00    -0.372 N 
ATOM     13  H4  UNL     1       8.026   3.997  21.267  1.00  0.00     0.161 HD
BRANCH  12  14
HETATM   14  C18 UNL     1       7.440   2.916  19.591  1.00  0.00     0.083 C 
HETATM   15  C19 UNL     1       7.532   1.459  19.884  1.00  0.00     0.031 C 
HETATM   16  C20 UNL     1       7.905   0.668  18.657  1.00  0.00     0.081 C 
HETATM   17  C21 UNL     1       9.019   1.245  17.853  1.00  0.00     0.243 C 
HETATM   18  F1  UNL     1      10.213   1.288  18.534  1.00  0.00    -0.206 F 
HETATM   19  F2  UNL     1       9.120   0.521  16.680  1.00  0.00    -0.206 F 
HETATM   20  C22 UNL     1       8.636   2.667  17.466  1.00  0.00     0.081 C 
HETATM   21  C23 UNL     1       8.618   3.439  18.796  1.00  0.00     0.031 C 
ENDBRANCH  12  14
ENDBRANCH  10  12
ENDBRANCH   7  10
ENDBRANCH   5   6
BRANCH   1  22
HETATM   22  N1  UNL     1       7.798   8.927  23.134  1.00  0.00    -0.358 N 
BRANCH  22  23
HETATM   23  C4  UNL     1       7.856   9.770  22.049  1.00  0.00     0.068 C 
BRANCH  23  24
HETATM   24  C2  UNL     1       8.373   9.537  20.692  1.00  0.00     0.016 C 
HETATM   25  C1  UNL     1       8.784   7.989  20.632  1.00  0.00     0.015 C 
HETATM   26  C3  UNL     1       7.399   9.587  19.544  1.00  0.00     0.015 C 
ENDBRANCH  23  24
ENDBRANCH  22  23
BRANCH  22  27
HETATM   27  C5  UNL     1       8.568   9.619  24.203  1.00  0.00     0.165 C 
BRANCH  27  28
HETATM   28  C6  UNL     1       9.939   9.342  24.390  1.00  0.00     0.259 C 
HETATM   29  O1  UNL     1      10.918   9.933  23.937  1.00  0.00    -0.267 OA
HETATM   30  N2  UNL     1      10.283   8.206  25.231  1.00  0.00    -0.347 N 
HETATM   31  C7  UNL     1      11.615   7.750  25.561  1.00  0.00     0.126 C 
HETATM   32  C10 UNL     1       9.392   7.287  25.909  1.00  0.00     0.126 C 
HETATM   33  C8  UNL     1      11.506   7.624  27.068  1.00  0.00     0.021 C 
HETATM   34  C9  UNL     1      10.055   7.196  27.279  1.00  0.00     0.021 C 
ENDBRANCH  27  28
ENDBRANCH  22  27
ENDBRANCH   1  22
TORSDOF 9
ENDMDL
MODEL 5
REMARK VINA RESULT: -8.222274124      1.895      4.551
REMARK  9 active torsions:
REMARK  status: ('A' for Active; 'I' for Inactive)
REMARK    1  A    between atoms: C2_2  and  C4_4 
REMARK    2  A    between atoms: C4_4  and  N1_5 
REMARK    3  A    between atoms: N1_5  and  C5_6 
REMARK    4  A    between atoms: N1_5  and  C11_14 
REMARK    5  A    between atoms: C5_6  and  C6_7 
REMARK       I    between atoms: C6_7  and  N2_9 
REMARK    6  A    between atoms: C15_18  and  N3_19 
REMARK       I    between atoms: N3_19  and  C16_21 
REMARK    7  A    between atoms: C16_21  and  C17_23 
REMARK    8  A    between atoms: C17_23  and  N4_25 
REMARK    9  A    between atoms: N4_25  and  C18_27 
ROOT
HETATM    1  C11 UNL     1       7.127   9.023  22.642  1.00  0.00     0.111 C 
HETATM    2  C12 UNL     1       7.199  10.502  22.577  1.00  0.00     0.028 C 
HETATM    3  C13 UNL     1       7.811  10.935  21.273  1.00  0.00     0.004 C 
HETATM    4  C14 UNL     1       8.309   9.697  20.633  1.00  0.00     0.027 C 
HETATM    5  C15 UNL     1       7.942   8.537  21.472  1.00  0.00     0.108 C 
ENDROOT
BRANCH   5   6
HETATM    6  N3  UNL     1       7.078   7.592  20.733  1.00  0.00    -0.348 N 
HETATM    7  C16 UNL     1       7.079   6.222  20.920  1.00  0.00     0.279 C 
HETATM    8  O2  UNL     1       7.857   5.726  21.764  1.00  0.00    -0.265 OA
ATOM      9  H3  UNL     1       6.438   7.976  20.038  1.00  0.00     0.163 HD
BRANCH   7  10
HETATM   10  C17 UNL     1       6.217   5.345  20.179  1.00  0.00     0.165 C 
HETATM   11  S1  UNL     1       4.619   5.296  20.609  1.00  0.00    -0.055 SA
BRANCH  10  12
HETATM   12  N4  UNL     1       6.695   4.540  19.110  1.00  0.00    -0.372 N 
ATOM     13  H4  UNL     1       6.341   4.767  18.181  1.00  0.00     0.161 HD
BRANCH  12  14
HETATM   14  C18 UNL     1       7.605   3.458  19.185  1.00  0.00     0.083 C 
HETATM   15  C19 UNL     1       8.677   3.420  18.152  1.00  0.00     0.031 C 
HETATM   16  C20 UNL     1       9.501   2.162  18.254  1.00  0.00     0.081 C 
HETATM   17  C21 UNL     1       8.714   0.909  18.427  1.00  0.00     0.243 C 
HETATM   18  F1  UNL     1       7.900   0.627  17.355  1.00  0.00    -0.206 F 
HETATM   19  F2  UNL     1       9.599  -0.121  18.688  1.00  0.00    -0.206 F 
HETATM   20  C22 UNL     1       7.840   1.066  19.664  1.00  0.00     0.081 C 
HETATM   21  C23 UNL     1       6.829   2.163  19.287  1.00  0.00     0.031 C 
ENDBRANCH  12  14
ENDBRANCH  10  12
ENDBRANCH   7  10
ENDBRANCH   5   6
BRANCH   1  22
HETATM   22  N1  UNL     1       7.454   8.480  23.872  1.00  0.00    -0.358 N 
BRANCH  22  23
HETATM   23  C4  UNL     1       8.487   8.813  24.717  1.00  0.00     0.068 C 
BRANCH  23  24
HETATM   24  C2  UNL     1       9.798   8.175  24.911  1.00  0.00     0.016 C 
HETATM   25  C1  UNL     1      10.841   9.026  24.042  1.00  0.00     0.015 C 
HETATM   26  C3  UNL     1      10.447   8.286  26.266  1.00  0.00     0.015 C 
ENDBRANCH  23  24
ENDBRANCH  22  23
BRANCH  22  27
HETATM   27  C5  UNL     1       6.254   8.385  24.747  1.00  0.00     0.165 C 
BRANCH  27  28
HETATM   28  C6  UNL     1       5.150   7.595  24.361  1.00  0.00     0.259 C 
HETATM   29  O1  UNL     1       5.130   6.430  23.968  1.00  0.00    -0.267 OA
HETATM   30  N2  UNL     1       3.833   8.211  24.423  1.00  0.00    -0.347 N 
HETATM   31  C7  UNL     1       2.574   7.588  24.084  1.00  0.00     0.126 C 
HETATM   32  C10 UNL     1       3.490   9.561  24.822  1.00  0.00     0.126 C 
HETATM   33  C8  UNL     1       1.749   7.931  25.309  1.00  0.00     0.021 C 
HETATM   34  C9  UNL     1       2.284   9.301  25.718  1.00  0.00     0.021 C 
ENDBRANCH  27  28
ENDBRANCH  22  27
ENDBRANCH   1  22
TORSDOF 9
ENDMDL
