MODEL 1
REMARK VINA RESULT: -7.981982067      0.000      0.000
REMARK  7 active torsions:
REMARK  status: ('A' for Active; 'I' for Inactive)
REMARK    1  A    between atoms: O1_2  and  C2_3 
REMARK    2  A    between atoms: C2_3  and  C3_4 
REMARK    3  A    between atoms: C3_4  and  N1_5 
REMARK    4  A    between atoms: C5_7  and  C6_8 
REMARK    5  A    between atoms: C9_13  and  C10_14 
REMARK       I    between atoms: C10_14  and  N3_16 
REMARK    6  A    between atoms: N3_16  and  C11_18 
REMARK    7  A    between atoms: C16_23  and  C17_24 
ROOT
HETATM    1  C10 UNL     1       5.818   5.658  21.521  1.00  0.00     0.240 C 
HETATM    2  O3  UNL     1       4.655   5.611  21.965  1.00  0.00    -0.271 OA
HETATM    3  N3  UNL     1       6.365   4.383  21.084  1.00  0.00    -0.354 N 
ATOM      4  H3  UNL     1       7.315   4.346  20.715  1.00  0.00     0.162 HD
ENDROOT
BRANCH   1   5
HETATM    5  C9  UNL     1       6.586   6.878  21.438  1.00  0.00     0.175 C 
HETATM    6  N1  UNL     1       7.362   7.301  22.498  1.00  0.00    -0.377 N 
HETATM    7  C4  UNL     1       8.206   8.435  22.176  1.00  0.00     0.136 C 
HETATM    8  C5  UNL     1       7.541   9.543  21.448  1.00  0.00     0.093 C 
HETATM    9  C7  UNL     1       6.109   9.347  21.125  1.00  0.00     0.018 C 
HETATM   10  C8  UNL     1       5.677   7.957  20.865  1.00  0.00     0.036 C 
BRANCH   6  11
HETATM   11  C3  UNL     1       7.136   7.078  23.837  1.00  0.00     0.085 C 
BRANCH  11  12
HETATM   12  C2  UNL     1       7.845   7.893  24.870  1.00  0.00     0.211 C 
BRANCH  12  13
HETATM   13  O1  UNL     1       9.040   7.321  25.272  1.00  0.00    -0.391 OA
HETATM   14  C1  UNL     1      10.006   8.283  25.554  1.00  0.00     0.201 C 
ENDBRANCH  12  13
ENDBRANCH  11  12
ENDBRANCH   6  11
BRANCH   8  15
HETATM   15  C6  UNL     1       8.263   9.978  20.205  1.00  0.00     0.236 C 
HETATM   16  N2  UNL     1       8.554   9.066  19.152  1.00  0.00    -0.062 NA
HETATM   17  O2  UNL     1       8.652  11.161  20.022  1.00  0.00    -0.276 OA
ENDBRANCH   8  15
ENDBRANCH   1   5
BRANCH   3  18
HETATM   18  C11 UNL     1       5.621   3.222  21.161  1.00  0.00     0.092 C 
HETATM   19  C12 UNL     1       4.802   2.758  19.959  1.00  0.00     0.010 C 
HETATM   20  C13 UNL     1       4.843   1.459  20.654  1.00  0.00     0.013 C 
HETATM   21  C20 UNL     1       5.304   2.991  18.637  1.00  0.00     0.027 C 
HETATM   22  C14 UNL     1       6.193   1.852  21.153  1.00  0.00     0.010 C 
HETATM   23  C15 UNL     1       7.389   1.519  20.433  1.00  0.00     0.018 C 
HETATM   24  C16 UNL     1       7.617   1.291  19.042  1.00  0.00    -0.011 C 
HETATM   25  C18 UNL     1       7.732   2.499  18.131  1.00  0.00     0.033 C 
HETATM   26  C21 UNL     1       6.596   0.840  18.077  1.00  0.00     0.033 C 
HETATM   27  C19 UNL     1       6.249   2.251  17.862  1.00  0.00     0.020 C 
HETATM   28 BR1  UNL     1       5.983   2.625  15.938  1.00  0.00    -0.085 Br
BRANCH  24  29
HETATM   29  C17 UNL     1       8.931   0.490  18.845  1.00  0.00     0.231 C 
HETATM   30  F1  UNL     1       9.905   1.378  18.478  1.00  0.00    -0.255 F 
ENDBRANCH  24  29
ENDBRANCH   3  18
TORSDOF 7
ENDMDL
MODEL 2
REMARK VINA RESULT: -7.903752128      2.425      4.332
REMARK  7 active torsions:
REMARK  status: ('A' for Active; 'I' for Inactive)
REMARK    1  A    between atoms: O1_2  and  C2_3 
REMARK    2  A    between atoms: C2_3  and  C3_4 
REMARK    3  A    between atoms: C3_4  and  N1_5 
REMARK    4  A    between atoms: C5_7  and  C6_8 
REMARK    5  A    between atoms: C9_13  and  C10_14 
REMARK       I    between atoms: C10_14  and  N3_16 
REMARK    6  A    between atoms: N3_16  and  C11_18 
REMARK    7  A    between atoms: C16_23  and  C17_24 
ROOT
HETATM    1  C10 UNL     1       7.543   8.002  22.032  1.00  0.00     0.240 C 
HETATM    2  O3  UNL     1       7.327   9.022  21.350  1.00  0.00    -0.271 OA
HETATM    3  N3  UNL     1       6.940   6.779  21.525  1.00  0.00    -0.354 N 
ATOM      4  H3  UNL     1       7.071   5.906  22.036  1.00  0.00     0.162 HD
ENDROOT
BRANCH   1   5
HETATM    5  C9  UNL     1       8.331   8.009  23.242  1.00  0.00     0.175 C 
HETATM    6  N1  UNL     1       7.727   8.079  24.481  1.00  0.00    -0.377 N 
HETATM    7  C4  UNL     1       8.651   7.886  25.582  1.00  0.00     0.136 C 
HETATM    8  C5  UNL     1       9.918   8.652  25.496  1.00  0.00     0.093 C 
HETATM    9  C7  UNL     1      10.091   9.498  24.294  1.00  0.00     0.018 C 
HETATM   10  C8  UNL     1       9.464   9.008  23.047  1.00  0.00     0.036 C 
BRANCH   6  11
HETATM   11  C3  UNL     1       6.534   8.689  24.794  1.00  0.00     0.085 C 
BRANCH  11  12
HETATM   12  C2  UNL     1       5.292   7.878  24.970  1.00  0.00     0.211 C 
BRANCH  12  13
HETATM   13  O1  UNL     1       5.289   6.733  24.192  1.00  0.00    -0.391 OA
HETATM   14  C1  UNL     1       4.028   6.469  23.662  1.00  0.00     0.201 C 
ENDBRANCH  12  13
ENDBRANCH  11  12
ENDBRANCH   6  11
BRANCH   8  15
HETATM   15  C6  UNL     1      11.152   7.814  25.681  1.00  0.00     0.236 C 
HETATM   16  N2  UNL     1      11.255   6.856  26.728  1.00  0.00    -0.062 NA
HETATM   17  O2  UNL     1      12.157   7.909  24.930  1.00  0.00    -0.276 OA
ENDBRANCH   8  15
ENDBRANCH   1   5
BRANCH   3  18
HETATM   18  C11 UNL     1       6.193   6.779  20.362  1.00  0.00     0.092 C 
HETATM   19  C12 UNL     1       6.817   6.305  19.052  1.00  0.00     0.010 C 
HETATM   20  C13 UNL     1       5.410   6.156  18.639  1.00  0.00     0.013 C 
HETATM   21  C20 UNL     1       7.776   5.238  19.078  1.00  0.00     0.027 C 
HETATM   22  C14 UNL     1       5.106   5.815  20.059  1.00  0.00     0.010 C 
HETATM   23  C15 UNL     1       5.124   4.459  20.528  1.00  0.00     0.018 C 
HETATM   24  C16 UNL     1       5.848   3.315  20.073  1.00  0.00    -0.011 C 
HETATM   25  C18 UNL     1       7.304   3.186  20.478  1.00  0.00     0.033 C 
HETATM   26  C21 UNL     1       6.360   3.125  18.703  1.00  0.00     0.033 C 
HETATM   27  C19 UNL     1       7.584   3.824  19.118  1.00  0.00     0.020 C 
HETATM   28 BR1  UNL     1       9.190   2.906  18.417  1.00  0.00    -0.085 Br
BRANCH  24  29
HETATM   29  C17 UNL     1       5.157   2.018  20.571  1.00  0.00     0.231 C 
HETATM   30  F1  UNL     1       5.897   1.530  21.612  1.00  0.00    -0.255 F 
ENDBRANCH  24  29
ENDBRANCH   3  18
TORSDOF 7
ENDMDL
MODEL 3
REMARK VINA RESULT: -7.868169737      1.194      1.240
REMARK  7 active torsions:
REMARK  status: ('A' for Active; 'I' for Inactive)
REMARK    1  A    between atoms: O1_2  and  C2_3 
REMARK    2  A    between atoms: C2_3  and  C3_4 
REMARK    3  A    between atoms: C3_4  and  N1_5 
REMARK    4  A    between atoms: C5_7  and  C6_8 
REMARK    5  A    between atoms: C9_13  and  C10_14 
REMARK       I    between atoms: C10_14  and  N3_16 
REMARK    6  A    between atoms: N3_16  and  C11_18 
REMARK    7  A    between atoms: C16_23  and  C17_24 
ROOT
HETATM    1  C10 UNL     1       6.088   6.393  21.798  1.00  0.00     0.240 C 
HETATM    2  O3  UNL     1       4.973   6.228  22.328  1.00  0.00    -0.271 OA
HETATM    3  N3  UNL     1       6.632   5.226  21.122  1.00  0.00    -0.354 N 
ATOM      4  H3  UNL     1       7.544   5.288  20.671  1.00  0.00     0.162 HD
ENDROOT
BRANCH   1   5
HETATM    5  C9  UNL     1       6.809   7.645  21.841  1.00  0.00     0.175 C 
HETATM    6  N1  UNL     1       7.701   7.915  22.859  1.00  0.00    -0.377 N 
HETATM    7  C4  UNL     1       8.469   9.127  22.643  1.00  0.00     0.136 C 
HETATM    8  C5  UNL     1       7.688  10.310  22.208  1.00  0.00     0.093 C 
HETATM    9  C7  UNL     1       6.233  10.105  22.029  1.00  0.00     0.018 C 
HETATM   10  C8  UNL     1       5.807   8.762  21.581  1.00  0.00     0.036 C 
BRANCH   6  11
HETATM   11  C3  UNL     1       7.652   7.454  24.154  1.00  0.00     0.085 C 
BRANCH  11  12
HETATM   12  C2  UNL     1       8.440   8.131  25.229  1.00  0.00     0.211 C 
BRANCH  12  13
HETATM   13  O1  UNL     1       9.573   7.419  25.587  1.00  0.00    -0.391 OA
HETATM   14  C1  UNL     1      10.673   8.253  25.770  1.00  0.00     0.201 C 
ENDBRANCH  12  13
ENDBRANCH  11  12
ENDBRANCH   6  11
BRANCH   8  15
HETATM   15  C6  UNL     1       8.237  10.987  20.984  1.00  0.00     0.236 C 
HETATM   16  N2  UNL     1       8.291  12.404  20.874  1.00  0.00    -0.062 NA
HETATM   17  O2  UNL     1       8.675  10.347  19.992  1.00  0.00    -0.276 OA
ENDBRANCH   8  15
ENDBRANCH   1   5
BRANCH   3  18
HETATM   18  C11 UNL     1       5.933   4.035  21.080  1.00  0.00     0.092 C 
HETATM   19  C12 UNL     1       5.108   3.675  19.847  1.00  0.00     0.010 C 
HETATM   20  C13 UNL     1       5.212   2.310  20.392  1.00  0.00     0.013 C 
HETATM   21  C20 UNL     1       5.575   4.073  18.551  1.00  0.00     0.027 C 
HETATM   22  C14 UNL     1       6.555   2.698  20.910  1.00  0.00     0.010 C 
HETATM   23  C15 UNL     1       7.748   2.494  20.139  1.00  0.00     0.018 C 
HETATM   24  C16 UNL     1       7.957   2.431  18.728  1.00  0.00    -0.011 C 
HETATM   25  C18 UNL     1       8.009   3.736  17.956  1.00  0.00     0.033 C 
HETATM   26  C21 UNL     1       6.935   2.050  17.735  1.00  0.00     0.033 C 
HETATM   27  C19 UNL     1       6.531   3.461  17.684  1.00  0.00     0.020 C 
HETATM   28 BR1  UNL     1       6.213   4.036  15.819  1.00  0.00    -0.085 Br
BRANCH  24  29
HETATM   29  C17 UNL     1       9.296   1.709  18.423  1.00  0.00     0.231 C 
HETATM   30  F1  UNL     1      10.210   2.665  18.075  1.00  0.00    -0.255 F 
ENDBRANCH  24  29
ENDBRANCH   3  18
TORSDOF 7
ENDMDL
MODEL 4
REMARK VINA RESULT: -7.844567766      0.909      1.203
REMARK  7 active torsions:
REMARK  status: ('A' for Active; 'I' for Inactive)
REMARK    1  A    between atoms: O1_2  and  C2_3 
REMARK    2  A    between atoms: C2_3  and  C3_4 
REMARK    3  A    between atoms: C3_4  and  N1_5 
REMARK    4  A    between atoms: C5_7  and  C6_8 
REMARK    5  A    between atoms: C9_13  and  C10_14 
REMARK       I    between atoms: C10_14  and  N3_16 
REMARK    6  A    between atoms: N3_16  and  C11_18 
REMARK    7  A    between atoms: C16_23  and  C17_24 
ROOT
HETATM    1  C10 UNL     1       5.706   5.663  21.611  1.00  0.00     0.240 C 
HETATM    2  O3  UNL     1       4.531   5.620  22.022  1.00  0.00    -0.271 OA
HETATM    3  N3  UNL     1       6.271   4.382  21.216  1.00  0.00    -0.354 N 
ATOM      4  H3  UNL     1       7.231   4.341  20.874  1.00  0.00     0.162 HD
ENDROOT
BRANCH   1   5
HETATM    5  C9  UNL     1       6.472   6.884  21.526  1.00  0.00     0.175 C 
HETATM    6  N1  UNL     1       7.129   7.387  22.630  1.00  0.00    -0.377 N 
HETATM    7  C4  UNL     1       7.997   8.508  22.321  1.00  0.00     0.136 C 
HETATM    8  C5  UNL     1       7.405   9.556  21.454  1.00  0.00     0.093 C 
HETATM    9  C7  UNL     1       6.017   9.320  20.997  1.00  0.00     0.018 C 
HETATM   10  C8  UNL     1       5.622   7.910  20.788  1.00  0.00     0.036 C 
BRANCH   6  11
HETATM   11  C3  UNL     1       6.765   7.253  23.950  1.00  0.00     0.085 C 
BRANCH  11  12
HETATM   12  C2  UNL     1       7.068   8.336  24.934  1.00  0.00     0.211 C 
BRANCH  12  13
HETATM   13  O1  UNL     1       6.166   9.385  24.864  1.00  0.00    -0.391 OA
HETATM   14  C1  UNL     1       4.850   8.935  24.796  1.00  0.00     0.201 C 
ENDBRANCH  12  13
ENDBRANCH  11  12
ENDBRANCH   6  11
BRANCH   8  15
HETATM   15  C6  UNL     1       8.252   9.915  20.266  1.00  0.00     0.236 C 
HETATM   16  N2  UNL     1       8.609   8.950  19.283  1.00  0.00    -0.062 NA
HETATM   17  O2  UNL     1       8.693  11.077  20.072  1.00  0.00    -0.276 OA
ENDBRANCH   8  15
ENDBRANCH   1   5
BRANCH   3  18
HETATM   18  C11 UNL     1       5.528   3.219  21.294  1.00  0.00     0.092 C 
HETATM   19  C12 UNL     1       4.688   2.767  20.103  1.00  0.00     0.010 C 
HETATM   20  C13 UNL     1       4.743   1.460  20.784  1.00  0.00     0.013 C 
HETATM   21  C20 UNL     1       5.166   3.014  18.774  1.00  0.00     0.027 C 
HETATM   22  C14 UNL     1       6.101   1.849  21.262  1.00  0.00     0.010 C 
HETATM   23  C15 UNL     1       7.284   1.525  20.517  1.00  0.00     0.018 C 
HETATM   24  C16 UNL     1       7.487   1.312  19.119  1.00  0.00    -0.011 C 
HETATM   25  C18 UNL     1       7.584   2.529  18.219  1.00  0.00     0.033 C 
HETATM   26  C21 UNL     1       6.449   0.869  18.169  1.00  0.00     0.033 C 
HETATM   27  C19 UNL     1       6.097   2.282  17.975  1.00  0.00     0.020 C 
HETATM   28 BR1  UNL     1       5.796   2.675  16.060  1.00  0.00    -0.085 Br
BRANCH  24  29
HETATM   29  C17 UNL     1       8.798   0.514  18.890  1.00  0.00     0.231 C 
HETATM   30  F1  UNL     1       9.768   1.408  18.531  1.00  0.00    -0.255 F 
ENDBRANCH  24  29
ENDBRANCH   3  18
TORSDOF 7
ENDMDL
MODEL 5
REMARK VINA RESULT: -7.743190365      2.108      3.930
REMARK  7 active torsions:
REMARK  status: ('A' for Active; 'I' for Inactive)
REMARK    1  A    between atoms: O1_2  and  C2_3 
REMARK    2  A    between atoms: C2_3  and  C3_4 
REMARK    3  A    between atoms: C3_4  and  N1_5 
REMARK    4  A    between atoms: C5_7  and  C6_8 
REMARK    5  A    between atoms: C9_13  and  C10_14 
REMARK       I    between atoms: C10_14  and  N3_16 
REMARK    6  A    between atoms: N3_16  and  C11_18 
REMARK    7  A    between atoms: C16_23  and  C17_24 
ROOT
HETATM    1  C10 UNL     1       5.903   7.649  21.601  1.00  0.00     0.240 C 
HETATM    2  O3  UNL     1       4.666   7.734  21.723  1.00  0.00    -0.271 OA
HETATM    3  N3  UNL     1       6.361   6.842  20.481  1.00  0.00    -0.354 N 
ATOM      4  H3  UNL     1       7.361   6.724  20.324  1.00  0.00     0.162 HD
ENDROOT
BRANCH   1   5
HETATM    5  C9  UNL     1       6.834   8.295  22.497  1.00  0.00     0.175 C 
HETATM    6  N1  UNL     1       6.926   9.671  22.552  1.00  0.00    -0.377 N 
HETATM    7  C4  UNL     1       7.769  10.148  23.631  1.00  0.00     0.136 C 
HETATM    8  C5  UNL     1       9.075   9.459  23.776  1.00  0.00     0.093 C 
HETATM    9  C7  UNL     1       9.346   8.363  22.818  1.00  0.00     0.018 C 
HETATM   10  C8  UNL     1       8.175   7.588  22.354  1.00  0.00     0.036 C 
BRANCH   6  11
HETATM   11  C3  UNL     1       6.689  10.564  21.532  1.00  0.00     0.085 C 
BRANCH  11  12
HETATM   12  C2  UNL     1       7.823  11.287  20.880  1.00  0.00     0.211 C 
BRANCH  12  13
HETATM   13  O1  UNL     1       8.577  10.465  20.059  1.00  0.00    -0.391 OA
HETATM   14  C1  UNL     1       7.790   9.814  19.113  1.00  0.00     0.201 C 
ENDBRANCH  12  13
ENDBRANCH  11  12
ENDBRANCH   6  11
BRANCH   8  15
HETATM   15  C6  UNL     1       9.355   8.968  25.168  1.00  0.00     0.236 C 
HETATM   16  N2  UNL     1      10.593   9.230  25.819  1.00  0.00    -0.062 NA
HETATM   17  O2  UNL     1       8.521   8.301  25.834  1.00  0.00    -0.276 OA
ENDBRANCH   8  15
ENDBRANCH   1   5
BRANCH   3  18
HETATM   18  C11 UNL     1       5.463   6.233  19.625  1.00  0.00     0.092 C 
HETATM   19  C12 UNL     1       5.968   5.476  18.399  1.00  0.00     0.010 C 
HETATM   20  C13 UNL     1       4.635   4.849  18.455  1.00  0.00     0.013 C 
HETATM   21  C20 UNL     1       7.209   4.762  18.479  1.00  0.00     0.027 C 
HETATM   22  C14 UNL     1       4.711   4.991  19.937  1.00  0.00     0.010 C 
HETATM   23  C15 UNL     1       5.247   3.951  20.768  1.00  0.00     0.018 C 
HETATM   24  C16 UNL     1       6.212   2.934  20.496  1.00  0.00    -0.011 C 
HETATM   25  C18 UNL     1       7.678   3.320  20.502  1.00  0.00     0.033 C 
HETATM   26  C21 UNL     1       6.510   2.383  19.160  1.00  0.00     0.033 C 
HETATM   27  C19 UNL     1       7.495   3.460  18.992  1.00  0.00     0.020 C 
HETATM   28 BR1  UNL     1       9.163   2.769  18.184  1.00  0.00    -0.085 Br
BRANCH  24  29
HETATM   29  C17 UNL     1       6.075   1.785  21.530  1.00  0.00     0.231 C 
HETATM   30  F1  UNL     1       7.249   1.084  21.525  1.00  0.00    -0.255 F 
ENDBRANCH  24  29
ENDBRANCH   3  18
TORSDOF 7
ENDMDL
