MODEL 1
REMARK VINA RESULT: -9.102365752      0.000      0.000
REMARK  10 active torsions:
REMARK  status: ('A' for Active; 'I' for Inactive)
REMARK    1  A    between atoms: C2_5  and  S1_6 
REMARK    2  A    between atoms: S1_6  and  C3_7 
REMARK    3  A    between atoms: C3_7  and  O1_8 
REMARK    4  A    between atoms: C3_7  and  C4_10 
REMARK    5  A    between atoms: C3_7  and  C5_13 
REMARK    6  A    between atoms: C5_13  and  C6_15 
REMARK    7  A    between atoms: C6_15  and  N3_16 
REMARK    8  A    between atoms: C9_23  and  N6_24 
REMARK    9  A    between atoms: C12_32  and  N9_33 
REMARK   10  A    between atoms: C13_36  and  N10_37 
ROOT
HETATM    1  C3  UNL     1       6.088   1.609  25.044  1.00  0.00     0.265 C 
ENDROOT
BRANCH   1   2
HETATM    2  S1  UNL     1       4.733   1.394  26.242  1.00  0.00    -0.035 SA
BRANCH   2   3
HETATM    3  C2  UNL     1       3.147   1.711  25.531  1.00  0.00     0.164 A 
HETATM    4  N2  UNL     1       2.255   0.743  25.245  1.00  0.00    -0.276 N 
HETATM    5  N1  UNL     1       1.066   0.968  24.712  1.00  0.00    -0.276 N 
ATOM      6  H2  UNL     1       2.513  -0.222  25.452  1.00  0.00     0.189 HD
HETATM    7  C1  UNL     1       0.174  -0.166  24.441  1.00  0.00     0.179 C 
HETATM    8  C13 UNL     1       0.671   2.219  24.416  1.00  0.00     0.160 A 
HETATM    9  C12 UNL     1       1.555   3.237  24.693  1.00  0.00     0.146 A 
HETATM   10  N8  UNL     1       2.759   2.983  25.236  1.00  0.00    -0.319 N 
ATOM     11  H8  UNL     1       3.393   3.758  25.431  1.00  0.00     0.169 HD
BRANCH   8  12
HETATM   12  N10 UNL     1      -0.482   2.481  23.896  1.00  0.00    -0.381 N 
ATOM     13 2H10 UNL     1      -0.634   2.357  22.895  1.00  0.00     0.157 HD
ATOM     14 1H10 UNL     1      -1.271   2.818  24.447  1.00  0.00     0.157 HD
ENDBRANCH   8  12
BRANCH   9  15
HETATM   15  N9  UNL     1       1.159   4.451  24.400  1.00  0.00    -0.382 N 
ATOM     16  H92 UNL     1       0.943   4.635  23.420  1.00  0.00     0.157 HD
ATOM     17  H91 UNL     1       1.067   5.182  25.106  1.00  0.00     0.157 HD
ENDBRANCH   9  15
ENDBRANCH   2   3
ENDBRANCH   1   2
BRANCH   1  18
HETATM   18  O1  UNL     1       5.986   2.865  24.424  1.00  0.00    -0.364 OA
ATOM     19  H1  UNL     1       5.947   3.550  25.081  1.00  0.00     0.212 HD
ENDBRANCH   1  18
BRANCH   1  20
HETATM   20  C4  UNL     1       7.397   1.550  25.732  1.00  0.00     0.229 C 
HETATM   21  O2  UNL     1       7.623   0.877  26.759  1.00  0.00    -0.645 OA
HETATM   22  O3  UNL     1       8.494   2.279  25.241  1.00  0.00    -0.645 OA
ENDBRANCH   1  20
BRANCH   1  23
HETATM   23  C5  UNL     1       5.948   0.520  24.040  1.00  0.00     0.202 C 
HETATM   24  O4  UNL     1       5.243  -0.443  24.305  1.00  0.00    -0.291 OA
BRANCH  23  25
HETATM   25  C6  UNL     1       6.675   0.649  22.754  1.00  0.00     0.234 C 
BRANCH  25  26
HETATM   26  N3  UNL     1       5.711   0.689  21.646  1.00  0.00    -0.265 N 
HETATM   27  C7  UNL     1       4.391   0.825  21.498  1.00  0.00     0.156 A 
HETATM   28  N4  UNL     1       3.155   0.992  21.991  1.00  0.00    -0.335 N 
HETATM   29  C10 UNL     1       4.509   0.730  20.121  1.00  0.00     0.140 A 
HETATM   30  C8  UNL     1       2.082   1.062  21.182  1.00  0.00     0.183 A 
ATOM     31  H4  UNL     1       3.026   1.068  23.000  1.00  0.00     0.168 HD
HETATM   32  N5  UNL     1       2.202   0.969  19.840  1.00  0.00    -0.337 N 
HETATM   33  C9  UNL     1       3.413   0.802  19.291  1.00  0.00     0.132 A 
ATOM     34  H5  UNL     1       1.374   1.025  19.246  1.00  0.00     0.168 HD
HETATM   35  N7  UNL     1       5.831   0.598  20.348  1.00  0.00    -0.285 N 
HETATM   36  C11 UNL     1       6.935   0.418  19.397  1.00  0.00     0.178 C 
BRANCH  33  37
HETATM   37  N6  UNL     1       3.534   0.712  18.016  1.00  0.00    -0.383 N 
ATOM     38  H62 UNL     1       3.071   1.373  17.391  1.00  0.00     0.157 HD
ATOM     39  H61 UNL     1       4.102  -0.030  17.608  1.00  0.00     0.157 HD
ENDBRANCH  33  37
ENDBRANCH  25  26
ENDBRANCH  23  25
ENDBRANCH   1  23
TORSDOF 10
ENDMDL
MODEL 2
REMARK VINA RESULT: -8.893126044      4.028      8.028
REMARK  10 active torsions:
REMARK  status: ('A' for Active; 'I' for Inactive)
REMARK    1  A    between atoms: C2_5  and  S1_6 
REMARK    2  A    between atoms: S1_6  and  C3_7 
REMARK    3  A    between atoms: C3_7  and  O1_8 
REMARK    4  A    between atoms: C3_7  and  C4_10 
REMARK    5  A    between atoms: C3_7  and  C5_13 
REMARK    6  A    between atoms: C5_13  and  C6_15 
REMARK    7  A    between atoms: C6_15  and  N3_16 
REMARK    8  A    between atoms: C9_23  and  N6_24 
REMARK    9  A    between atoms: C12_32  and  N9_33 
REMARK   10  A    between atoms: C13_36  and  N10_37 
ROOT
HETATM    1  C3  UNL     1       5.922   1.728  18.899  1.00  0.00     0.265 C 
ENDROOT
BRANCH   1   2
HETATM    2  S1  UNL     1       6.261   0.762  17.393  1.00  0.00    -0.035 SA
BRANCH   2   3
HETATM    3  C2  UNL     1       7.886   0.069  17.387  1.00  0.00     0.164 A 
HETATM    4  N2  UNL     1       8.172  -1.155  17.872  1.00  0.00    -0.276 N 
HETATM    5  N1  UNL     1       9.383  -1.684  17.874  1.00  0.00    -0.276 N 
ATOM      6  H2  UNL     1       7.407  -1.707  18.260  1.00  0.00     0.189 HD
HETATM    7  C1  UNL     1       9.580  -3.029  18.430  1.00  0.00     0.179 C 
HETATM    8  C13 UNL     1      10.431  -1.004  17.375  1.00  0.00     0.160 A 
HETATM    9  C12 UNL     1      10.180   0.252  16.870  1.00  0.00     0.146 A 
HETATM   10  N8  UNL     1       8.938   0.768  16.878  1.00  0.00    -0.319 N 
ATOM     11  H8  UNL     1       8.782   1.701  16.497  1.00  0.00     0.169 HD
BRANCH   8  12
HETATM   12  N10 UNL     1      11.630  -1.485  17.358  1.00  0.00    -0.381 N 
ATOM     13 2H10 UNL     1      11.783  -2.478  17.183  1.00  0.00     0.157 HD
ATOM     14 1H10 UNL     1      12.457  -0.908  17.515  1.00  0.00     0.157 HD
ENDBRANCH   8  12
BRANCH   9  15
HETATM   15  N9  UNL     1      11.209   0.904  16.388  1.00  0.00    -0.382 N 
ATOM     16  H92 UNL     1      11.235   1.908  16.566  1.00  0.00     0.157 HD
ATOM     17  H91 UNL     1      11.950   0.443  15.860  1.00  0.00     0.157 HD
ENDBRANCH   9  15
ENDBRANCH   2   3
ENDBRANCH   1   2
BRANCH   1  18
HETATM   18  O1  UNL     1       7.066   2.452  19.273  1.00  0.00    -0.364 OA
ATOM     19  H1  UNL     1       6.879   3.384  19.263  1.00  0.00     0.212 HD
ENDBRANCH   1  18
BRANCH   1  20
HETATM   20  C4  UNL     1       4.833   2.701  18.653  1.00  0.00     0.229 C 
HETATM   21  O2  UNL     1       3.736   2.693  19.248  1.00  0.00    -0.645 OA
HETATM   22  O3  UNL     1       4.990   3.721  17.699  1.00  0.00    -0.645 OA
ENDBRANCH   1  20
BRANCH   1  23
HETATM   23  C5  UNL     1       5.555   0.752  19.960  1.00  0.00     0.202 C 
HETATM   24  O4  UNL     1       4.629  -0.022  19.758  1.00  0.00    -0.291 OA
BRANCH  23  25
HETATM   25  C6  UNL     1       6.330   0.759  21.224  1.00  0.00     0.234 C 
BRANCH  25  26
HETATM   26  N3  UNL     1       5.426   1.017  22.353  1.00  0.00    -0.265 N 
HETATM   27  C7  UNL     1       4.205   1.526  22.536  1.00  0.00     0.156 A 
HETATM   28  N4  UNL     1       3.069   2.072  22.080  1.00  0.00    -0.335 N 
HETATM   29  C10 UNL     1       4.298   1.322  23.904  1.00  0.00     0.140 A 
HETATM   30  C8  UNL     1       2.068   2.407  22.915  1.00  0.00     0.183 A 
ATOM     31  H4  UNL     1       2.961   2.237  21.079  1.00  0.00     0.168 HD
HETATM   32  N5  UNL     1       2.163   2.207  24.247  1.00  0.00    -0.337 N 
HETATM   33  C9  UNL     1       3.275   1.663  24.760  1.00  0.00     0.132 A 
ATOM     34  H5  UNL     1       1.391   2.468  24.861  1.00  0.00     0.168 HD
HETATM   35  N7  UNL     1       5.522   0.822  23.642  1.00  0.00    -0.285 N 
HETATM   36  C11 UNL     1       6.531   0.276  24.558  1.00  0.00     0.178 C 
BRANCH  33  37
HETATM   37  N6  UNL     1       3.372   1.471  26.026  1.00  0.00    -0.383 N 
ATOM     38  H62 UNL     1       2.620   1.026  26.554  1.00  0.00     0.157 HD
ATOM     39  H61 UNL     1       4.211   1.764  26.524  1.00  0.00     0.157 HD
ENDBRANCH  33  37
ENDBRANCH  25  26
ENDBRANCH  23  25
ENDBRANCH   1  23
TORSDOF 10
ENDMDL
MODEL 3
REMARK VINA RESULT: -8.791117771      3.882      8.049
REMARK  10 active torsions:
REMARK  status: ('A' for Active; 'I' for Inactive)
REMARK    1  A    between atoms: C2_5  and  S1_6 
REMARK    2  A    between atoms: S1_6  and  C3_7 
REMARK    3  A    between atoms: C3_7  and  O1_8 
REMARK    4  A    between atoms: C3_7  and  C4_10 
REMARK    5  A    between atoms: C3_7  and  C5_13 
REMARK    6  A    between atoms: C5_13  and  C6_15 
REMARK    7  A    between atoms: C6_15  and  N3_16 
REMARK    8  A    between atoms: C9_23  and  N6_24 
REMARK    9  A    between atoms: C12_32  and  N9_33 
REMARK   10  A    between atoms: C13_36  and  N10_37 
ROOT
HETATM    1  C3  UNL     1       5.783   1.846  18.990  1.00  0.00     0.265 C 
ENDROOT
BRANCH   1   2
HETATM    2  S1  UNL     1       6.063   1.001  17.402  1.00  0.00    -0.035 SA
BRANCH   2   3
HETATM    3  C2  UNL     1       7.578   0.092  17.379  1.00  0.00     0.164 A 
HETATM    4  N2  UNL     1       8.736   0.593  16.907  1.00  0.00    -0.276 N 
HETATM    5  N1  UNL     1       9.875  -0.078  16.884  1.00  0.00    -0.276 N 
ATOM      6  H2  UNL     1       8.734   1.547  16.546  1.00  0.00     0.189 HD
HETATM    7  C1  UNL     1      11.079   0.568  16.345  1.00  0.00     0.179 C 
HETATM    8  C13 UNL     1       9.940  -1.340  17.345  1.00  0.00     0.160 A 
HETATM    9  C12 UNL     1       8.777  -1.888  17.836  1.00  0.00     0.146 A 
HETATM   10  N8  UNL     1       7.630  -1.185  17.850  1.00  0.00    -0.319 N 
ATOM     11  H8  UNL     1       6.783  -1.617  18.220  1.00  0.00     0.169 HD
BRANCH   8  12
HETATM   12  N10 UNL     1      11.033  -2.029  17.341  1.00  0.00    -0.381 N 
ATOM     13 2H10 UNL     1      11.692  -1.942  16.568  1.00  0.00     0.157 HD
ATOM     14 1H10 UNL     1      11.279  -2.676  18.091  1.00  0.00     0.157 HD
ENDBRANCH   8  12
BRANCH   9  15
HETATM   15  N9  UNL     1       8.853  -3.116  18.283  1.00  0.00    -0.382 N 
ATOM     16  H92 UNL     1       8.805  -3.237  19.295  1.00  0.00     0.157 HD
ATOM     17  H91 UNL     1       8.955  -3.919  17.661  1.00  0.00     0.157 HD
ENDBRANCH   9  15
ENDBRANCH   2   3
ENDBRANCH   1   2
BRANCH   1  18
HETATM   18  O1  UNL     1       6.924   2.582  19.351  1.00  0.00    -0.364 OA
ATOM     19  H1  UNL     1       6.668   3.419  19.720  1.00  0.00     0.212 HD
ENDBRANCH   1  18
BRANCH   1  20
HETATM   20  C4  UNL     1       4.652   2.795  18.876  1.00  0.00     0.229 C 
HETATM   21  O2  UNL     1       4.653   3.805  18.144  1.00  0.00    -0.645 OA
HETATM   22  O3  UNL     1       3.475   2.593  19.617  1.00  0.00    -0.645 OA
ENDBRANCH   1  20
BRANCH   1  23
HETATM   23  C5  UNL     1       5.509   0.785  19.997  1.00  0.00     0.202 C 
HETATM   24  O4  UNL     1       4.612  -0.018  19.782  1.00  0.00    -0.291 OA
BRANCH  23  25
HETATM   25  C6  UNL     1       6.339   0.747  21.225  1.00  0.00     0.234 C 
BRANCH  25  26
HETATM   26  N3  UNL     1       5.480   0.930  22.404  1.00  0.00    -0.265 N 
HETATM   27  C7  UNL     1       4.185   1.140  22.651  1.00  0.00     0.156 A 
HETATM   28  N4  UNL     1       2.917   1.315  22.254  1.00  0.00    -0.335 N 
HETATM   29  C10 UNL     1       4.424   1.163  24.016  1.00  0.00     0.140 A 
HETATM   30  C8  UNL     1       1.924   1.506  23.142  1.00  0.00     0.183 A 
ATOM     31  H4  UNL     1       2.699   1.304  21.257  1.00  0.00     0.168 HD
HETATM   32  N5  UNL     1       2.161   1.528  24.472  1.00  0.00    -0.337 N 
HETATM   33  C9  UNL     1       3.409   1.357  24.927  1.00  0.00     0.132 A 
ATOM     34  H5  UNL     1       1.393   1.674  25.127  1.00  0.00     0.168 HD
HETATM   35  N7  UNL     1       5.714   0.951  23.690  1.00  0.00    -0.285 N 
HETATM   36  C11 UNL     1       6.892   0.809  24.554  1.00  0.00     0.178 C 
BRANCH  33  37
HETATM   37  N6  UNL     1       3.642   1.377  26.190  1.00  0.00    -0.383 N 
ATOM     38  H62 UNL     1       3.238   2.095  26.792  1.00  0.00     0.157 HD
ATOM     39  H61 UNL     1       4.239   0.666  26.611  1.00  0.00     0.157 HD
ENDBRANCH  33  37
ENDBRANCH  25  26
ENDBRANCH  23  25
ENDBRANCH   1  23
TORSDOF 10
ENDMDL
MODEL 4
REMARK VINA RESULT: -8.780830379      3.989      8.142
REMARK  10 active torsions:
REMARK  status: ('A' for Active; 'I' for Inactive)
REMARK    1  A    between atoms: C2_5  and  S1_6 
REMARK    2  A    between atoms: S1_6  and  C3_7 
REMARK    3  A    between atoms: C3_7  and  O1_8 
REMARK    4  A    between atoms: C3_7  and  C4_10 
REMARK    5  A    between atoms: C3_7  and  C5_13 
REMARK    6  A    between atoms: C5_13  and  C6_15 
REMARK    7  A    between atoms: C6_15  and  N3_16 
REMARK    8  A    between atoms: C9_23  and  N6_24 
REMARK    9  A    between atoms: C12_32  and  N9_33 
REMARK   10  A    between atoms: C13_36  and  N10_37 
ROOT
HETATM    1  C3  UNL     1       5.419   1.684  19.036  1.00  0.00     0.265 C 
ENDROOT
BRANCH   1   2
HETATM    2  S1  UNL     1       5.682  -0.045  18.526  1.00  0.00    -0.035 SA
BRANCH   2   3
HETATM    3  C2  UNL     1       7.365  -0.375  18.103  1.00  0.00     0.164 A 
HETATM    4  N2  UNL     1       7.997  -1.522  18.415  1.00  0.00    -0.276 N 
HETATM    5  N1  UNL     1       9.256  -1.780  18.105  1.00  0.00    -0.276 N 
ATOM      6  H2  UNL     1       7.473  -2.236  18.922  1.00  0.00     0.189 HD
HETATM    7  C1  UNL     1       9.844  -3.067  18.497  1.00  0.00     0.179 C 
HETATM    8  C13 UNL     1       9.998  -0.879  17.438  1.00  0.00     0.160 A 
HETATM    9  C12 UNL     1       9.388   0.308  17.100  1.00  0.00     0.146 A 
HETATM   10  N8  UNL     1       8.106   0.547  17.427  1.00  0.00    -0.319 N 
ATOM     11  H8  UNL     1       7.680   1.436  17.163  1.00  0.00     0.169 HD
BRANCH   8  12
HETATM   12  N10 UNL     1      11.231  -1.092  17.115  1.00  0.00    -0.381 N 
ATOM     13 2H10 UNL     1      11.555  -0.897  16.167  1.00  0.00     0.157 HD
ATOM     14 1H10 UNL     1      11.919  -1.456  17.775  1.00  0.00     0.157 HD
ENDBRANCH   8  12
BRANCH   9  15
HETATM   15  N9  UNL     1      10.122   1.178  16.451  1.00  0.00    -0.382 N 
ATOM     16  H92 UNL     1      10.136   2.128  16.823  1.00  0.00     0.157 HD
ATOM     17  H91 UNL     1      10.654   0.931  15.617  1.00  0.00     0.157 HD
ENDBRANCH   9  15
ENDBRANCH   2   3
ENDBRANCH   1   2
BRANCH   1  18
HETATM   18  O1  UNL     1       6.528   2.143  19.766  1.00  0.00    -0.364 OA
ATOM     19  H1  UNL     1       6.237   2.647  20.517  1.00  0.00     0.212 HD
ENDBRANCH   1  18
BRANCH   1  20
HETATM   20  C4  UNL     1       5.270   2.554  17.847  1.00  0.00     0.229 C 
HETATM   21  O2  UNL     1       5.640   3.745  17.796  1.00  0.00    -0.645 OA
HETATM   22  O3  UNL     1       4.680   2.059  16.671  1.00  0.00    -0.645 OA
ENDBRANCH   1  20
BRANCH   1  23
HETATM   23  C5  UNL     1       4.196   1.699  19.883  1.00  0.00     0.202 C 
HETATM   24  O4  UNL     1       3.405   2.623  19.764  1.00  0.00    -0.291 OA
BRANCH  23  25
HETATM   25  C6  UNL     1       3.989   0.587  20.843  1.00  0.00     0.234 C 
BRANCH  25  26
HETATM   26  N3  UNL     1       4.243   1.065  22.210  1.00  0.00    -0.265 N 
HETATM   27  C7  UNL     1       5.223   0.979  23.113  1.00  0.00     0.156 A 
HETATM   28  N4  UNL     1       6.432   0.560  23.512  1.00  0.00    -0.335 N 
HETATM   29  C10 UNL     1       4.492   1.737  24.014  1.00  0.00     0.140 A 
HETATM   30  C8  UNL     1       6.910   0.863  24.733  1.00  0.00     0.183 A 
ATOM     31  H4  UNL     1       7.002   0.001  22.877  1.00  0.00     0.168 HD
HETATM   32  N5  UNL     1       6.195   1.602  25.609  1.00  0.00    -0.337 N 
HETATM   33  C9  UNL     1       4.979   2.049  25.263  1.00  0.00     0.132 A 
ATOM     34  H5  UNL     1       6.577   1.820  26.529  1.00  0.00     0.168 HD
HETATM   35  N7  UNL     1       3.548   1.780  23.053  1.00  0.00    -0.285 N 
HETATM   36  C11 UNL     1       2.232   2.430  23.057  1.00  0.00     0.178 C 
BRANCH  33  37
HETATM   37  N6  UNL     1       4.294   2.752  26.091  1.00  0.00    -0.383 N 
ATOM     38  H62 UNL     1       3.745   2.315  26.831  1.00  0.00     0.157 HD
ATOM     39  H61 UNL     1       4.290   3.769  26.016  1.00  0.00     0.157 HD
ENDBRANCH  33  37
ENDBRANCH  25  26
ENDBRANCH  23  25
ENDBRANCH   1  23
TORSDOF 10
ENDMDL
MODEL 5
REMARK VINA RESULT: -8.747812000      3.096      4.486
REMARK  10 active torsions:
REMARK  status: ('A' for Active; 'I' for Inactive)
REMARK    1  A    between atoms: C2_5  and  S1_6 
REMARK    2  A    between atoms: S1_6  and  C3_7 
REMARK    3  A    between atoms: C3_7  and  O1_8 
REMARK    4  A    between atoms: C3_7  and  C4_10 
REMARK    5  A    between atoms: C3_7  and  C5_13 
REMARK    6  A    between atoms: C5_13  and  C6_15 
REMARK    7  A    between atoms: C6_15  and  N3_16 
REMARK    8  A    between atoms: C9_23  and  N6_24 
REMARK    9  A    between atoms: C12_32  and  N9_33 
REMARK   10  A    between atoms: C13_36  and  N10_37 
ROOT
HETATM    1  C3  UNL     1       2.260   1.555  21.996  1.00  0.00     0.265 C 
ENDROOT
BRANCH   1   2
HETATM    2  S1  UNL     1       2.756   0.133  23.022  1.00  0.00    -0.035 SA
BRANCH   2   3
HETATM    3  C2  UNL     1       1.465  -0.401  24.103  1.00  0.00     0.164 A 
HETATM    4  N2  UNL     1       0.293   0.250  24.237  1.00  0.00    -0.276 N 
HETATM    5  N1  UNL     1      -0.680  -0.140  25.044  1.00  0.00    -0.276 N 
ATOM      6  H2  UNL     1       0.147   1.094  23.683  1.00  0.00     0.189 HD
HETATM    7  C1  UNL     1      -1.917   0.648  25.111  1.00  0.00     0.179 C 
HETATM    8  C13 UNL     1      -0.545  -1.245  25.799  1.00  0.00     0.160 A 
HETATM    9  C12 UNL     1       0.639  -1.938  25.691  1.00  0.00     0.146 A 
HETATM   10  N8  UNL     1       1.614  -1.522  24.863  1.00  0.00    -0.319 N 
ATOM     11  H8  UNL     1       2.481  -2.056  24.802  1.00  0.00     0.169 HD
BRANCH   8  12
HETATM   12  N10 UNL     1      -1.471  -1.660  26.599  1.00  0.00    -0.381 N 
ATOM     13 2H10 UNL     1      -2.401  -1.241  26.570  1.00  0.00     0.157 HD
ATOM     14 1H10 UNL     1      -1.319  -2.404  27.279  1.00  0.00     0.157 HD
ENDBRANCH   8  12
BRANCH   9  15
HETATM   15  N9  UNL     1       0.757  -3.012  26.431  1.00  0.00    -0.382 N 
ATOM     16  H92 UNL     1       1.623  -3.541  26.330  1.00  0.00     0.157 HD
ATOM     17  H91 UNL     1       0.029  -3.313  27.079  1.00  0.00     0.157 HD
ENDBRANCH   9  15
ENDBRANCH   2   3
ENDBRANCH   1   2
BRANCH   1  18
HETATM   18  O1  UNL     1       1.062   1.266  21.322  1.00  0.00    -0.364 OA
ATOM     19  H1  UNL     1       0.884   1.938  20.674  1.00  0.00     0.212 HD
ENDBRANCH   1  18
BRANCH   1  20
HETATM   20  C4  UNL     1       2.025   2.745  22.846  1.00  0.00     0.229 C 
HETATM   21  O2  UNL     1       2.763   3.091  23.791  1.00  0.00    -0.645 OA
HETATM   22  O3  UNL     1       0.915   3.576  22.617  1.00  0.00    -0.645 OA
ENDBRANCH   1  20
BRANCH   1  23
HETATM   23  C5  UNL     1       3.362   1.785  21.024  1.00  0.00     0.202 C 
HETATM   24  O4  UNL     1       3.169   2.532  20.075  1.00  0.00    -0.291 OA
BRANCH  23  25
HETATM   25  C6  UNL     1       4.656   1.094  21.246  1.00  0.00     0.234 C 
BRANCH  25  26
HETATM   26  N3  UNL     1       5.081   0.436  20.002  1.00  0.00    -0.265 N 
HETATM   27  C7  UNL     1       4.516   0.036  18.861  1.00  0.00     0.156 A 
HETATM   28  N4  UNL     1       3.458  -0.108  18.050  1.00  0.00    -0.335 N 
HETATM   29  C10 UNL     1       5.733  -0.435  18.395  1.00  0.00     0.140 A 
HETATM   30  C8  UNL     1       3.577  -0.685  16.840  1.00  0.00     0.183 A 
ATOM     31  H4  UNL     1       2.545   0.227  18.357  1.00  0.00     0.168 HD
HETATM   32  N5  UNL     1       4.765  -1.143  16.389  1.00  0.00    -0.337 N 
HETATM   33  C9  UNL     1       5.856  -1.025  17.157  1.00  0.00     0.132 A 
ATOM     34  H5  UNL     1       4.831  -1.576  15.468  1.00  0.00     0.168 HD
HETATM   35  N7  UNL     1       6.233  -0.005  19.570  1.00  0.00    -0.285 N 
HETATM   36  C11 UNL     1       7.606  -0.062  20.086  1.00  0.00     0.178 C 
BRANCH  33  37
HETATM   37  N6  UNL     1       6.989  -1.458  16.734  1.00  0.00    -0.383 N 
ATOM     38  H62 UNL     1       7.645  -1.926  17.360  1.00  0.00     0.157 HD
ATOM     39  H61 UNL     1       7.249  -1.338  15.755  1.00  0.00     0.157 HD
ENDBRANCH  33  37
ENDBRANCH  25  26
ENDBRANCH  23  25
ENDBRANCH   1  23
TORSDOF 10
ENDMDL
