MODEL 1
REMARK VINA RESULT: -9.244173217      0.000      0.000
REMARK  9 active torsions:
REMARK  status: ('A' for Active; 'I' for Inactive)
REMARK    1  A    between atoms: C2_2  and  C3_3 
REMARK    2  A    between atoms: C4_4  and  N1_5 
REMARK    3  A    between atoms: N2_8  and  C5_9 
REMARK    4  A    between atoms: C5_9  and  C6_10 
REMARK    5  A    between atoms: C5_9  and  C7_19 
REMARK       I    between atoms: C6_10  and  N3_12 
REMARK    6  A    between atoms: N3_12  and  N4_14 
REMARK    7  A    between atoms: N4_14  and  N5_15 
REMARK    8  A    between atoms: N5_15  and  N6_16 
REMARK    9  A    between atoms: C12_33  and  C13_34 
REMARK       I    between atoms: C13_34  and  N11_35 
ROOT
HETATM    1  C3  UNL     1       5.466   0.820  20.958  1.00  0.00     0.000 A 
HETATM    2  C4  UNL     1       4.621   0.961  22.111  1.00  0.00     0.109 A 
HETATM    3  N2  UNL     1       3.304   0.819  22.126  1.00  0.00    -0.323 N 
HETATM    4  C9  UNL     1       2.695   0.522  20.966  1.00  0.00     0.124 A 
HETATM    5  C10 UNL     1       3.406   0.366  19.814  1.00  0.00     0.062 A 
HETATM    6  N9  UNL     1       2.776   0.089  18.680  1.00  0.00    -0.350 N 
ATOM      7  H9  UNL     1       1.760  -0.010  18.700  1.00  0.00     0.166 HD
HETATM    8  C11 UNL     1       3.407  -0.066  17.508  1.00  0.00     0.181 A 
HETATM    9  N10 UNL     1       4.716   0.055  17.465  1.00  0.00    -0.347 N 
ATOM     10  H10 UNL     1       5.200  -0.066  16.576  1.00  0.00     0.167 HD
HETATM   11  C12 UNL     1       5.455   0.344  18.610  1.00  0.00     0.114 A 
HETATM   12  C14 UNL     1       4.819   0.511  19.796  1.00  0.00     0.034 A 
ENDROOT
BRANCH   3  13
HETATM   13  C5  UNL     1       2.455   0.932  23.295  1.00  0.00     0.231 C 
BRANCH  13  14
HETATM   14  C6  UNL     1       2.493   2.189  24.026  1.00  0.00     0.261 C 
HETATM   15  O1  UNL     1       2.951   2.372  25.204  1.00  0.00    -0.270 OA
HETATM   16  N3  UNL     1       1.986   3.356  23.391  1.00  0.00    -0.254 N 
ATOM     17  H3  UNL     1       1.610   3.261  22.448  1.00  0.00     0.187 HD
BRANCH  16  18
HETATM   18  N4  UNL     1       1.971   4.620  23.976  1.00  0.00    -0.007 NA
BRANCH  18  19
HETATM   19  N5  UNL     1       0.717   5.164  24.129  1.00  0.00    -0.016 NA
BRANCH  19  20
HETATM   20  N6  UNL     1      -0.281   4.501  23.431  1.00  0.00    -0.330 N 
ATOM     21  H62 UNL     1      -0.457   3.503  23.556  1.00  0.00     0.173 HD
ATOM     22  H61 UNL     1      -0.811   5.094  22.793  1.00  0.00     0.173 HD
ENDBRANCH  19  20
ENDBRANCH  18  19
ENDBRANCH  16  18
ENDBRANCH  13  14
BRANCH  13  23
HETATM   23  C7  UNL     1       1.094   0.401  22.967  1.00  0.00     0.278 C 
HETATM   24  N7  UNL     1       0.799  -0.715  23.886  1.00  0.00    -0.101 NA
HETATM   25  N8  UNL     1       0.180  -0.095  24.986  1.00  0.00    -0.247 N 
HETATM   26  C8  UNL     1      -0.372   1.118  24.506  1.00  0.00     0.378 C 
ATOM     27  H8  UNL     1       0.138  -0.449  25.941  1.00  0.00     0.188 HD
HETATM   28  O2  UNL     1      -1.127   1.873  25.173  1.00  0.00    -0.237 OA
HETATM   29  O3  UNL     1       0.052   1.320  23.222  1.00  0.00    -0.277 OA
ENDBRANCH  13  23
ENDBRANCH   3  13
BRANCH   2  30
HETATM   30  N1  UNL     1       5.262   1.288  23.167  1.00  0.00    -0.385 N 
ATOM     31  H12 UNL     1       5.540   2.254  23.337  1.00  0.00     0.157 HD
ATOM     32  H11 UNL     1       5.474   0.493  23.769  1.00  0.00     0.157 HD
ENDBRANCH   2  30
BRANCH   1  33
HETATM   33  C2  UNL     1       6.880   1.064  21.099  1.00  0.00     0.039 C 
HETATM   34  C1  UNL     1       7.608  -0.070  21.850  1.00  0.00     0.010 C 
ENDBRANCH   1  33
BRANCH  11  35
HETATM   35  C13 UNL     1       6.871   0.325  18.416  1.00  0.00     0.267 C 
HETATM   36  N11 UNL     1       7.605   1.432  18.066  1.00  0.00    -0.365 N 
ATOM     37 2H11 UNL     1       7.117   2.320  17.949  1.00  0.00     0.159 HD
ATOM     38 1H11 UNL     1       8.616   1.419  17.928  1.00  0.00     0.159 HD
HETATM   39  O4  UNL     1       7.473  -0.770  18.560  1.00  0.00    -0.266 OA
ENDBRANCH  11  35
TORSDOF 9
ENDMDL
MODEL 2
REMARK VINA RESULT: -9.003732789      1.388      2.920
REMARK  9 active torsions:
REMARK  status: ('A' for Active; 'I' for Inactive)
REMARK    1  A    between atoms: C2_2  and  C3_3 
REMARK    2  A    between atoms: C4_4  and  N1_5 
REMARK    3  A    between atoms: N2_8  and  C5_9 
REMARK    4  A    between atoms: C5_9  and  C6_10 
REMARK    5  A    between atoms: C5_9  and  C7_19 
REMARK       I    between atoms: C6_10  and  N3_12 
REMARK    6  A    between atoms: N3_12  and  N4_14 
REMARK    7  A    between atoms: N4_14  and  N5_15 
REMARK    8  A    between atoms: N5_15  and  N6_16 
REMARK    9  A    between atoms: C12_33  and  C13_34 
REMARK       I    between atoms: C13_34  and  N11_35 
ROOT
HETATM    1  C3  UNL     1       5.513   0.650  20.319  1.00  0.00     0.000 A 
HETATM    2  C4  UNL     1       4.628   1.013  21.391  1.00  0.00     0.109 A 
HETATM    3  N2  UNL     1       3.307   0.911  21.372  1.00  0.00    -0.323 N 
HETATM    4  C9  UNL     1       2.735   0.431  20.254  1.00  0.00     0.124 A 
HETATM    5  C10 UNL     1       3.484   0.058  19.180  1.00  0.00     0.062 A 
HETATM    6  N9  UNL     1       2.890  -0.396  18.084  1.00  0.00    -0.350 N 
ATOM      7  H9  UNL     1       1.872  -0.463  18.076  1.00  0.00     0.166 HD
HETATM    8  C11 UNL     1       3.562  -0.770  16.986  1.00  0.00     0.181 A 
HETATM    9  N10 UNL     1       4.875  -0.694  16.982  1.00  0.00    -0.347 N 
ATOM     10  H10 UNL     1       5.388  -0.981  16.149  1.00  0.00     0.167 HD
HETATM   11  C12 UNL     1       5.578  -0.229  18.091  1.00  0.00     0.114 A 
HETATM   12  C14 UNL     1       4.901   0.160  19.200  1.00  0.00     0.034 A 
ENDROOT
BRANCH   3  13
HETATM   13  C5  UNL     1       2.417   1.249  22.464  1.00  0.00     0.231 C 
BRANCH  13  14
HETATM   14  C6  UNL     1       2.493   0.429  23.663  1.00  0.00     0.261 C 
HETATM   15  O1  UNL     1       3.555   0.071  24.275  1.00  0.00    -0.270 OA
HETATM   16  N3  UNL     1       1.280  -0.031  24.246  1.00  0.00    -0.254 N 
ATOM     17  H3  UNL     1       0.404   0.230  23.793  1.00  0.00     0.187 HD
BRANCH  16  18
HETATM   18  N4  UNL     1       1.214  -0.815  25.395  1.00  0.00    -0.007 NA
BRANCH  18  19
HETATM   19  N5  UNL     1       0.897  -2.134  25.169  1.00  0.00    -0.016 NA
BRANCH  19  20
HETATM   20  N6  UNL     1       0.954  -2.935  26.299  1.00  0.00    -0.330 N 
ATOM     21  H62 UNL     1       1.106  -2.546  27.230  1.00  0.00     0.173 HD
ATOM     22  H61 UNL     1       0.832  -3.931  26.114  1.00  0.00     0.173 HD
ENDBRANCH  19  20
ENDBRANCH  18  19
ENDBRANCH  16  18
ENDBRANCH  13  14
BRANCH  13  23
HETATM   23  C7  UNL     1       2.439   2.731  22.676  1.00  0.00     0.278 C 
HETATM   24  N7  UNL     1       1.131   3.277  22.265  1.00  0.00    -0.101 NA
HETATM   25  N8  UNL     1       0.358   3.224  23.438  1.00  0.00    -0.247 N 
HETATM   26  C8  UNL     1       1.269   3.233  24.523  1.00  0.00     0.378 C 
ATOM     27  H8  UNL     1      -0.660   3.186  23.496  1.00  0.00     0.188 HD
HETATM   28  O2  UNL     1       0.939   3.341  25.733  1.00  0.00    -0.237 OA
HETATM   29  O3  UNL     1       2.540   3.106  24.034  1.00  0.00    -0.277 OA
ENDBRANCH  13  23
ENDBRANCH   3  13
BRANCH   2  30
HETATM   30  N1  UNL     1       5.237   1.502  22.402  1.00  0.00    -0.385 N 
ATOM     31  H12 UNL     1       6.013   2.154  22.285  1.00  0.00     0.157 HD
ATOM     32  H11 UNL     1       4.885   1.149  23.292  1.00  0.00     0.157 HD
ENDBRANCH   2  30
BRANCH   1  33
HETATM   33  C2  UNL     1       6.927   0.877  20.479  1.00  0.00     0.039 C 
HETATM   34  C1  UNL     1       7.585  -0.126  21.447  1.00  0.00     0.010 C 
ENDBRANCH   1  33
BRANCH  11  35
HETATM   35  C13 UNL     1       6.998  -0.319  17.967  1.00  0.00     0.267 C 
HETATM   36  N11 UNL     1       7.791   0.717  17.535  1.00  0.00    -0.365 N 
ATOM     37 2H11 UNL     1       7.344   1.604  17.300  1.00  0.00     0.159 HD
ATOM     38 1H11 UNL     1       8.806   0.653  17.447  1.00  0.00     0.159 HD
HETATM   39  O4  UNL     1       7.549  -1.412  18.255  1.00  0.00    -0.266 OA
ENDBRANCH  11  35
TORSDOF 9
ENDMDL
MODEL 3
REMARK VINA RESULT: -8.929407816      1.685      3.744
REMARK  9 active torsions:
REMARK  status: ('A' for Active; 'I' for Inactive)
REMARK    1  A    between atoms: C2_2  and  C3_3 
REMARK    2  A    between atoms: C4_4  and  N1_5 
REMARK    3  A    between atoms: N2_8  and  C5_9 
REMARK    4  A    between atoms: C5_9  and  C6_10 
REMARK    5  A    between atoms: C5_9  and  C7_19 
REMARK       I    between atoms: C6_10  and  N3_12 
REMARK    6  A    between atoms: N3_12  and  N4_14 
REMARK    7  A    between atoms: N4_14  and  N5_15 
REMARK    8  A    between atoms: N5_15  and  N6_16 
REMARK    9  A    between atoms: C12_33  and  C13_34 
REMARK       I    between atoms: C13_34  and  N11_35 
ROOT
HETATM    1  C3  UNL     1       4.043   0.772  19.913  1.00  0.00     0.000 A 
HETATM    2  C4  UNL     1       2.809   0.795  20.649  1.00  0.00     0.109 A 
HETATM    3  N2  UNL     1       2.697   0.796  21.968  1.00  0.00    -0.323 N 
HETATM    4  C9  UNL     1       3.829   0.767  22.692  1.00  0.00     0.124 A 
HETATM    5  C10 UNL     1       5.051   0.744  22.091  1.00  0.00     0.062 A 
HETATM    6  N9  UNL     1       6.152   0.699  22.831  1.00  0.00    -0.350 N 
ATOM      7  H9  UNL     1       6.054   0.692  23.846  1.00  0.00     0.166 HD
HETATM    8  C11 UNL     1       7.385   0.662  22.309  1.00  0.00     0.181 A 
HETATM    9  N10 UNL     1       7.529   0.676  21.002  1.00  0.00    -0.347 N 
ATOM     10  H10 UNL     1       8.467   0.651  20.603  1.00  0.00     0.167 HD
HETATM   11  C12 UNL     1       6.427   0.723  20.152  1.00  0.00     0.114 A 
HETATM   12  C14 UNL     1       5.176   0.751  20.675  1.00  0.00     0.034 A 
ENDROOT
BRANCH   3  13
HETATM   13  C5  UNL     1       1.453   0.849  22.711  1.00  0.00     0.231 C 
BRANCH  13  14
HETATM   14  C6  UNL     1       1.410   0.152  23.987  1.00  0.00     0.261 C 
HETATM   15  O1  UNL     1       2.289   0.200  24.911  1.00  0.00    -0.270 OA
HETATM   16  N3  UNL     1       0.283  -0.668  24.271  1.00  0.00    -0.254 N 
ATOM     17  H3  UNL     1      -0.448  -0.738  23.564  1.00  0.00     0.187 HD
BRANCH  16  18
HETATM   18  N4  UNL     1       0.116  -1.380  25.456  1.00  0.00    -0.007 NA
BRANCH  18  19
HETATM   19  N5  UNL     1      -1.076  -1.143  26.102  1.00  0.00    -0.016 NA
BRANCH  19  20
HETATM   20  N6  UNL     1      -1.729   0.007  25.688  1.00  0.00    -0.330 N 
ATOM     21  H62 UNL     1      -1.552   0.915  26.121  1.00  0.00     0.173 HD
ATOM     22  H61 UNL     1      -2.391  -0.137  24.926  1.00  0.00     0.173 HD
ENDBRANCH  19  20
ENDBRANCH  18  19
ENDBRANCH  16  18
ENDBRANCH  13  14
BRANCH  13  23
HETATM   23  C7  UNL     1       0.939   2.255  22.709  1.00  0.00     0.278 C 
HETATM   24  N7  UNL     1       0.026   2.415  23.857  1.00  0.00    -0.101 NA
HETATM   25  N8  UNL     1       0.865   2.832  24.904  1.00  0.00    -0.247 N 
HETATM   26  C8  UNL     1       1.997   3.433  24.299  1.00  0.00     0.378 C 
ATOM     27  H8  UNL     1       0.694   2.723  25.903  1.00  0.00     0.188 HD
HETATM   28  O2  UNL     1       2.898   4.053  24.923  1.00  0.00    -0.237 OA
HETATM   29  O3  UNL     1       1.940   3.223  22.949  1.00  0.00    -0.277 OA
ENDBRANCH  13  23
ENDBRANCH   3  13
BRANCH   2  30
HETATM   30  N1  UNL     1       1.776   0.776  19.898  1.00  0.00    -0.385 N 
ATOM     31  H12 UNL     1       1.155   1.583  19.834  1.00  0.00     0.157 HD
ATOM     32  H11 UNL     1       1.644  -0.116  19.420  1.00  0.00     0.157 HD
ENDBRANCH   2  30
BRANCH   1  33
HETATM   33  C2  UNL     1       3.992   0.717  18.473  1.00  0.00     0.039 C 
HETATM   34  C1  UNL     1       3.630  -0.686  17.944  1.00  0.00     0.010 C 
ENDBRANCH   1  33
BRANCH  11  35
HETATM   35  C13 UNL     1       6.756   0.850  18.768  1.00  0.00     0.267 C 
HETATM   36  N11 UNL     1       7.071  -0.216  17.960  1.00  0.00    -0.365 N 
ATOM     37 2H11 UNL     1       7.058  -1.152  18.366  1.00  0.00     0.159 HD
ATOM     38 1H11 UNL     1       7.306  -0.125  16.971  1.00  0.00     0.159 HD
HETATM   39  O4  UNL     1       6.773   2.003  18.268  1.00  0.00    -0.266 OA
ENDBRANCH  11  35
TORSDOF 9
ENDMDL
MODEL 4
REMARK VINA RESULT: -8.880748798      1.024      2.549
REMARK  9 active torsions:
REMARK  status: ('A' for Active; 'I' for Inactive)
REMARK    1  A    between atoms: C2_2  and  C3_3 
REMARK    2  A    between atoms: C4_4  and  N1_5 
REMARK    3  A    between atoms: N2_8  and  C5_9 
REMARK    4  A    between atoms: C5_9  and  C6_10 
REMARK    5  A    between atoms: C5_9  and  C7_19 
REMARK       I    between atoms: C6_10  and  N3_12 
REMARK    6  A    between atoms: N3_12  and  N4_14 
REMARK    7  A    between atoms: N4_14  and  N5_15 
REMARK    8  A    between atoms: N5_15  and  N6_16 
REMARK    9  A    between atoms: C12_33  and  C13_34 
REMARK       I    between atoms: C13_34  and  N11_35 
ROOT
HETATM    1  C3  UNL     1       4.175   0.866  20.383  1.00  0.00     0.000 A 
HETATM    2  C4  UNL     1       3.149   0.960  21.384  1.00  0.00     0.109 A 
HETATM    3  N2  UNL     1       3.342   0.927  22.694  1.00  0.00    -0.323 N 
HETATM    4  C9  UNL     1       4.603   0.788  23.136  1.00  0.00     0.124 A 
HETATM    5  C10 UNL     1       5.649   0.690  22.269  1.00  0.00     0.062 A 
HETATM    6  N9  UNL     1       6.882   0.536  22.735  1.00  0.00    -0.350 N 
ATOM      7  H9  UNL     1       7.019   0.504  23.745  1.00  0.00     0.166 HD
HETATM    8  C11 UNL     1       7.957   0.422  21.942  1.00  0.00     0.181 A 
HETATM    9  N10 UNL     1       7.798   0.467  20.638  1.00  0.00    -0.347 N 
ATOM     10  H10 UNL     1       8.614   0.384  20.032  1.00  0.00     0.167 HD
HETATM   11  C12 UNL     1       6.538   0.626  20.065  1.00  0.00     0.114 A 
HETATM   12  C14 UNL     1       5.447   0.733  20.864  1.00  0.00     0.034 A 
ENDROOT
BRANCH   3  13
HETATM   13  C5  UNL     1       2.310   1.051  23.704  1.00  0.00     0.231 C 
BRANCH  13  14
HETATM   14  C6  UNL     1       2.183   2.338  24.371  1.00  0.00     0.261 C 
HETATM   15  O1  UNL     1       2.252   2.556  25.627  1.00  0.00    -0.270 OA
HETATM   16  N3  UNL     1       1.969   3.495  23.572  1.00  0.00    -0.254 N 
ATOM     17  H3  UNL     1       1.908   3.373  22.561  1.00  0.00     0.187 HD
BRANCH  16  18
HETATM   18  N4  UNL     1       1.839   4.784  24.083  1.00  0.00    -0.007 NA
BRANCH  18  19
HETATM   19  N5  UNL     1       0.548   5.259  24.112  1.00  0.00    -0.016 NA
BRANCH  19  20
HETATM   20  N6  UNL     1      -0.357   4.492  23.395  1.00  0.00    -0.330 N 
ATOM     21  H62 UNL     1      -1.366   4.587  23.521  1.00  0.00     0.173 HD
ATOM     22  H61 UNL     1       0.072   3.837  22.742  1.00  0.00     0.173 HD
ENDBRANCH  19  20
ENDBRANCH  18  19
ENDBRANCH  16  18
ENDBRANCH  13  14
BRANCH  13  23
HETATM   23  C7  UNL     1       1.040   0.448  23.187  1.00  0.00     0.278 C 
HETATM   24  N7  UNL     1       0.651  -0.653  24.089  1.00  0.00    -0.101 NA
HETATM   25  N8  UNL     1      -0.158  -0.031  25.055  1.00  0.00    -0.247 N 
HETATM   26  C8  UNL     1      -0.678   1.141  24.452  1.00  0.00     0.378 C 
ATOM     27  H8  UNL     1      -0.336  -0.359  26.005  1.00  0.00     0.188 HD
HETATM   28  O2  UNL     1      -1.559   1.879  24.966  1.00  0.00    -0.237 OA
HETATM   29  O3  UNL     1      -0.066   1.325  23.244  1.00  0.00    -0.277 OA
ENDBRANCH  13  23
ENDBRANCH   3  13
BRANCH   2  30
HETATM   30  N1  UNL     1       1.973   1.045  20.892  1.00  0.00    -0.385 N 
ATOM     31  H12 UNL     1       1.466   0.213  20.591  1.00  0.00     0.157 HD
ATOM     32  H11 UNL     1       1.639   2.006  20.815  1.00  0.00     0.157 HD
ENDBRANCH   2  30
BRANCH   1  33
HETATM   33  C2  UNL     1       3.792   0.862  18.994  1.00  0.00     0.039 C 
HETATM   34  C1  UNL     1       3.308  -0.521  18.514  1.00  0.00     0.010 C 
ENDBRANCH   1  33
BRANCH  11  35
HETATM   35  C13 UNL     1       6.551   0.773  18.644  1.00  0.00     0.267 C 
HETATM   36  N11 UNL     1       6.454   1.984  18.004  1.00  0.00    -0.365 N 
ATOM     37 2H11 UNL     1       6.380   2.828  18.572  1.00  0.00     0.159 HD
ATOM     38 1H11 UNL     1       6.463   2.089  16.988  1.00  0.00     0.159 HD
HETATM   39  O4  UNL     1       6.641  -0.268  17.944  1.00  0.00    -0.266 OA
ENDBRANCH  11  35
TORSDOF 9
ENDMDL
MODEL 5
REMARK VINA RESULT: -8.771777854      1.391      2.837
REMARK  9 active torsions:
REMARK  status: ('A' for Active; 'I' for Inactive)
REMARK    1  A    between atoms: C2_2  and  C3_3 
REMARK    2  A    between atoms: C4_4  and  N1_5 
REMARK    3  A    between atoms: N2_8  and  C5_9 
REMARK    4  A    between atoms: C5_9  and  C6_10 
REMARK    5  A    between atoms: C5_9  and  C7_19 
REMARK       I    between atoms: C6_10  and  N3_12 
REMARK    6  A    between atoms: N3_12  and  N4_14 
REMARK    7  A    between atoms: N4_14  and  N5_15 
REMARK    8  A    between atoms: N5_15  and  N6_16 
REMARK    9  A    between atoms: C12_33  and  C13_34 
REMARK       I    between atoms: C13_34  and  N11_35 
ROOT
HETATM    1  C3  UNL     1       4.118   0.944  20.765  1.00  0.00     0.000 A 
HETATM    2  C4  UNL     1       3.026   0.936  21.699  1.00  0.00     0.109 A 
HETATM    3  N2  UNL     1       3.135   0.839  23.015  1.00  0.00    -0.323 N 
HETATM    4  C9  UNL     1       4.371   0.732  23.533  1.00  0.00     0.124 A 
HETATM    5  C10 UNL     1       5.474   0.729  22.734  1.00  0.00     0.062 A 
HETATM    6  N9  UNL     1       6.681   0.605  23.272  1.00  0.00    -0.350 N 
ATOM      7  H9  UNL     1       6.754   0.522  24.286  1.00  0.00     0.166 HD
HETATM    8  C11 UNL     1       7.808   0.583  22.548  1.00  0.00     0.181 A 
HETATM    9  N10 UNL     1       7.732   0.693  21.240  1.00  0.00    -0.347 N 
ATOM     10  H10 UNL     1       8.589   0.680  20.687  1.00  0.00     0.167 HD
HETATM   11  C12 UNL     1       6.505   0.827  20.594  1.00  0.00     0.114 A 
HETATM   12  C14 UNL     1       5.361   0.841  21.322  1.00  0.00     0.034 A 
ENDROOT
BRANCH   3  13
HETATM   13  C5  UNL     1       2.035   0.861  23.959  1.00  0.00     0.231 C 
BRANCH  13  14
HETATM   14  C6  UNL     1       1.492   2.162  24.317  1.00  0.00     0.261 C 
HETATM   15  O1  UNL     1       1.629   2.763  25.435  1.00  0.00    -0.270 OA
HETATM   16  N3  UNL     1       0.734   2.868  23.343  1.00  0.00    -0.254 N 
ATOM     17  H3  UNL     1       0.598   2.429  22.433  1.00  0.00     0.187 HD
BRANCH  16  18
HETATM   18  N4  UNL     1       0.167   4.122  23.555  1.00  0.00    -0.007 NA
BRANCH  18  19
HETATM   19  N5  UNL     1       1.023   5.053  24.096  1.00  0.00    -0.016 NA
BRANCH  19  20
HETATM   20  N6  UNL     1       0.448   6.295  24.319  1.00  0.00    -0.330 N 
ATOM     21  H62 UNL     1       0.111   6.576  25.240  1.00  0.00     0.173 HD
ATOM     22  H61 UNL     1       0.395   6.888  23.491  1.00  0.00     0.173 HD
ENDBRANCH  19  20
ENDBRANCH  18  19
ENDBRANCH  16  18
ENDBRANCH  13  14
BRANCH  13  23
HETATM   23  C7  UNL     1       1.038  -0.188  23.576  1.00  0.00     0.278 C 
HETATM   24  N7  UNL     1       1.132  -1.293  24.549  1.00  0.00    -0.101 NA
HETATM   25  N8  UNL     1       0.219  -0.938  25.557  1.00  0.00    -0.247 N 
HETATM   26  C8  UNL     1      -0.727  -0.071  24.956  1.00  0.00     0.378 C 
ATOM     27  H8  UNL     1       0.235  -1.243  26.530  1.00  0.00     0.188 HD
HETATM   28  O2  UNL     1      -1.779   0.337  25.514  1.00  0.00    -0.237 OA
HETATM   29  O3  UNL     1      -0.303   0.238  23.693  1.00  0.00    -0.277 OA
ENDBRANCH  13  23
ENDBRANCH   3  13
BRANCH   2  30
HETATM   30  N1  UNL     1       1.882   0.996  21.134  1.00  0.00    -0.385 N 
ATOM     31  H12 UNL     1       1.778   0.826  20.133  1.00  0.00     0.157 HD
ATOM     32  H11 UNL     1       1.131   1.252  21.775  1.00  0.00     0.157 HD
ENDBRANCH   2  30
BRANCH   1  33
HETATM   33  C2  UNL     1       3.826   1.000  19.355  1.00  0.00     0.039 C 
HETATM   34  C1  UNL     1       3.349  -0.354  18.791  1.00  0.00     0.010 C 
ENDBRANCH   1  33
BRANCH  11  35
HETATM   35  C13 UNL     1       6.603   1.053  19.187  1.00  0.00     0.267 C 
HETATM   36  N11 UNL     1       6.701   0.044  18.260  1.00  0.00    -0.365 N 
ATOM     37 2H11 UNL     1       6.691  -0.921  18.591  1.00  0.00     0.159 HD
ATOM     38 1H11 UNL     1       6.770   0.205  17.254  1.00  0.00     0.159 HD
HETATM   39  O4  UNL     1       6.615   2.242  18.778  1.00  0.00    -0.266 OA
ENDBRANCH  11  35
TORSDOF 9
ENDMDL
