MODEL 1
REMARK VINA RESULT: -9.852453669      0.000      0.000
REMARK  10 active torsions:
REMARK  status: ('A' for Active; 'I' for Inactive)
REMARK    1  A    between atoms: C2_3  and  C3_4 
REMARK    2  A    between atoms: C3_4  and  O1_5 
REMARK    3  A    between atoms: C3_4  and  N2_7 
REMARK    4  A    between atoms: N2_7  and  C4_9 
REMARK    5  A    between atoms: C4_9  and  C5_10 
REMARK    6  A    between atoms: C4_9  and  C6_13 
REMARK       I    between atoms: C6_13  and  N3_15 
REMARK       I    between atoms: N3_15  and  C7_17 
REMARK       I    between atoms: C7_17  and  N4_19 
REMARK    7  A    between atoms: N5_21  and  N6_23 
REMARK    8  A    between atoms: C10_33  and  N9_34 
REMARK    9  A    between atoms: N9_34  and  O7_36 
REMARK   10  A    between atoms: O7_36  and  N10_37 
ROOT
HETATM    1  C3  UNL     1       3.259   1.664  21.385  1.00  0.00     0.284 C 
ENDROOT
BRANCH   1   2
HETATM    2  C2  UNL     1       4.620   1.241  20.850  1.00  0.00     0.137 A 
HETATM    3  N1  UNL     1       4.800   1.138  19.527  1.00  0.00    -0.321 N 
HETATM    4  C1  UNL     1       3.862   1.517  18.506  1.00  0.00     0.159 C 
HETATM    5  C11 UNL     1       6.013   0.650  19.125  1.00  0.00     0.157 A 
HETATM    6  C9  UNL     1       6.986   0.293  20.011  1.00  0.00     0.161 A 
HETATM    7  N11 UNL     1       6.518   0.366  17.903  1.00  0.00    -0.172 N 
HETATM    8  C8  UNL     1       6.750   0.424  21.384  1.00  0.00     0.278 A 
HETATM    9  N8  UNL     1       8.073  -0.201  19.359  1.00  0.00    -0.181 N 
HETATM   10  N7  UNL     1       5.570   0.894  21.764  1.00  0.00    -0.307 N 
HETATM   11  O6  UNL     1       7.676   0.094  22.186  1.00  0.00    -0.265 OA
ATOM     12  H7  UNL     1       5.369   0.997  22.759  1.00  0.00     0.170 HD
HETATM   13  C10 UNL     1       7.750  -0.143  18.056  1.00  0.00     0.706 A 
ATOM     14  H8  UNL     1       8.942  -0.542  19.769  1.00  0.00     0.184 HD
ATOM     15  H11 UNL     1       6.042   0.514  17.013  1.00  0.00     0.186 HD
BRANCH  13  16
HETATM   16  N9  UNL     1       8.523  -0.545  17.111  1.00  0.00    -0.072 N 
ATOM     17  H9  UNL     1       8.701  -1.548  17.063  1.00  0.00     0.215 HD
BRANCH  16  18
HETATM   18  O7  UNL     1       9.127   0.227  16.171  1.00  0.00    -0.149 OA
BRANCH  18  19
HETATM   19  N10 UNL     1      10.140   1.119  16.496  1.00  0.00    -0.286 N 
ATOM     20 2H10 UNL     1      10.311   1.313  17.483  1.00  0.00     0.186 HD
ATOM     21 1H10 UNL     1      10.706   1.575  15.780  1.00  0.00     0.186 HD
ENDBRANCH  18  19
ENDBRANCH  16  18
ENDBRANCH  13  16
ENDBRANCH   1   2
BRANCH   1  22
HETATM   22  O1  UNL     1       2.521   0.474  21.531  1.00  0.00    -0.370 OA
ATOM     23  H1  UNL     1       2.073   0.550  22.365  1.00  0.00     0.212 HD
ENDBRANCH   1  22
BRANCH   1  24
HETATM   24  N2  UNL     1       3.432   2.351  22.573  1.00  0.00    -0.370 N 
ATOM     25  H2  UNL     1       3.931   3.237  22.493  1.00  0.00     0.157 HD
BRANCH  24  26
HETATM   26  C4  UNL     1       3.035   2.022  23.839  1.00  0.00     0.274 C 
BRANCH  26  27
HETATM   27  C5  UNL     1       1.932   2.950  24.306  1.00  0.00     0.206 C 
HETATM   28  O2  UNL     1       0.982   2.548  24.977  1.00  0.00    -0.646 OA
HETATM   29  O3  UNL     1       1.994   4.307  23.968  1.00  0.00    -0.646 OA
ENDBRANCH  26  27
BRANCH  26  30
HETATM   30  C6  UNL     1       4.056   1.969  24.931  1.00  0.00     0.258 C 
HETATM   31  O4  UNL     1       4.132   2.873  25.771  1.00  0.00    -0.270 OA
HETATM   32  N3  UNL     1       4.904   0.839  24.921  1.00  0.00    -0.276 N 
HETATM   33  C7  UNL     1       6.114   0.661  25.587  1.00  0.00     0.342 C 
ATOM     34  H3  UNL     1       4.589   0.053  24.353  1.00  0.00     0.173 HD
HETATM   35  O5  UNL     1       6.644  -0.463  25.709  1.00  0.00    -0.245 OA
HETATM   36  N4  UNL     1       6.854   1.803  26.160  1.00  0.00    -0.237 N 
HETATM   37  N5  UNL     1       7.783   2.208  25.454  1.00  0.00    -0.245 N 
ATOM     38  H4  UNL     1       6.619   2.222  27.060  1.00  0.00     0.193 HD
ATOM     39  H5  UNL     1       7.766   1.599  24.635  1.00  0.00     0.208 HD
BRANCH  37  40
HETATM   40  N6  UNL     1       8.763   3.016  25.236  1.00  0.00    -0.331 N 
ATOM     41  H62 UNL     1       8.341   3.925  25.422  1.00  0.00     0.178 HD
ATOM     42  H61 UNL     1       9.734   3.190  24.974  1.00  0.00     0.178 HD
ENDBRANCH  37  40
ENDBRANCH  26  30
ENDBRANCH  24  26
ENDBRANCH   1  24
TORSDOF 10
ENDMDL
MODEL 2
REMARK VINA RESULT: -9.613076275      1.873      2.554
REMARK  10 active torsions:
REMARK  status: ('A' for Active; 'I' for Inactive)
REMARK    1  A    between atoms: C2_3  and  C3_4 
REMARK    2  A    between atoms: C3_4  and  O1_5 
REMARK    3  A    between atoms: C3_4  and  N2_7 
REMARK    4  A    between atoms: N2_7  and  C4_9 
REMARK    5  A    between atoms: C4_9  and  C5_10 
REMARK    6  A    between atoms: C4_9  and  C6_13 
REMARK       I    between atoms: C6_13  and  N3_15 
REMARK       I    between atoms: N3_15  and  C7_17 
REMARK       I    between atoms: C7_17  and  N4_19 
REMARK    7  A    between atoms: N5_21  and  N6_23 
REMARK    8  A    between atoms: C10_33  and  N9_34 
REMARK    9  A    between atoms: N9_34  and  O7_36 
REMARK   10  A    between atoms: O7_36  and  N10_37 
ROOT
HETATM    1  C3  UNL     1       3.826   1.373  21.178  1.00  0.00     0.284 C 
ENDROOT
BRANCH   1   2
HETATM    2  C2  UNL     1       4.411   0.581  20.017  1.00  0.00     0.137 A 
HETATM    3  N1  UNL     1       5.741   0.510  19.879  1.00  0.00    -0.321 N 
HETATM    4  C1  UNL     1       6.723   1.004  20.805  1.00  0.00     0.159 C 
HETATM    5  C11 UNL     1       6.191  -0.126  18.755  1.00  0.00     0.157 A 
HETATM    6  C9  UNL     1       5.345  -0.660  17.829  1.00  0.00     0.161 A 
HETATM    7  N11 UNL     1       7.436  -0.337  18.267  1.00  0.00    -0.172 N 
HETATM    8  C8  UNL     1       3.962  -0.562  18.022  1.00  0.00     0.278 A 
HETATM    9  N8  UNL     1       6.042  -1.192  16.790  1.00  0.00    -0.181 N 
HETATM   10  N7  UNL     1       3.535   0.059  19.113  1.00  0.00    -0.307 N 
HETATM   11  O6  UNL     1       3.197  -1.077  17.151  1.00  0.00    -0.265 OA
ATOM     12  H7  UNL     1       2.532   0.148  19.278  1.00  0.00     0.170 HD
HETATM   13  C10 UNL     1       7.333  -0.975  17.091  1.00  0.00     0.706 A 
ATOM     14  H8  UNL     1       5.667  -1.655  15.962  1.00  0.00     0.184 HD
ATOM     15  H11 UNL     1       8.307  -0.057  18.718  1.00  0.00     0.186 HD
BRANCH  13  16
HETATM   16  N9  UNL     1       8.311  -1.321  16.333  1.00  0.00    -0.072 N 
ATOM     17  H9  UNL     1       8.696  -2.253  16.482  1.00  0.00     0.215 HD
BRANCH  16  18
HETATM   18  O7  UNL     1       8.885  -0.574  15.354  1.00  0.00    -0.149 OA
BRANCH  18  19
HETATM   19  N10 UNL     1       9.439   0.672  15.613  1.00  0.00    -0.286 N 
ATOM     20 2H10 UNL     1       9.710   0.887  16.573  1.00  0.00     0.186 HD
ATOM     21 1H10 UNL     1       9.577   1.363  14.876  1.00  0.00     0.186 HD
ENDBRANCH  18  19
ENDBRANCH  16  18
ENDBRANCH  13  16
ENDBRANCH   1   2
BRANCH   1  22
HETATM   22  O1  UNL     1       3.272   2.534  20.607  1.00  0.00    -0.370 OA
ATOM     23  H1  UNL     1       3.314   3.199  21.284  1.00  0.00     0.212 HD
ENDBRANCH   1  22
BRANCH   1  24
HETATM   24  N2  UNL     1       2.895   0.590  21.838  1.00  0.00    -0.370 N 
ATOM     25  H2  UNL     1       2.584  -0.237  21.327  1.00  0.00     0.157 HD
BRANCH  24  26
HETATM   26  C4  UNL     1       2.329   0.756  23.071  1.00  0.00     0.274 C 
BRANCH  26  27
HETATM   27  C5  UNL     1       0.924   1.305  22.939  1.00  0.00     0.206 C 
HETATM   28  O2  UNL     1      -0.052   0.716  23.403  1.00  0.00    -0.646 OA
HETATM   29  O3  UNL     1       0.726   2.520  22.272  1.00  0.00    -0.646 OA
ENDBRANCH  26  27
BRANCH  26  30
HETATM   30  C6  UNL     1       3.035   1.596  24.088  1.00  0.00     0.258 C 
HETATM   31  O4  UNL     1       3.371   2.757  23.826  1.00  0.00    -0.270 OA
HETATM   32  N3  UNL     1       3.285   0.972  25.331  1.00  0.00    -0.276 N 
HETATM   33  C7  UNL     1       4.170   1.364  26.333  1.00  0.00     0.342 C 
ATOM     34  H3  UNL     1       2.748   0.126  25.518  1.00  0.00     0.173 HD
HETATM   35  O5  UNL     1       4.120   0.886  27.484  1.00  0.00    -0.245 OA
HETATM   36  N4  UNL     1       5.239   2.350  26.074  1.00  0.00    -0.237 N 
HETATM   37  N5  UNL     1       6.349   1.848  25.872  1.00  0.00    -0.245 N 
ATOM     38  H4  UNL     1       5.075   3.356  26.065  1.00  0.00     0.193 HD
ATOM     39  H5  UNL     1       6.193   0.842  25.946  1.00  0.00     0.208 HD
BRANCH  37  40
HETATM   40  N6  UNL     1       7.606   1.961  25.613  1.00  0.00    -0.331 N 
ATOM     41  H62 UNL     1       7.645   2.845  25.105  1.00  0.00     0.178 HD
ATOM     42  H61 UNL     1       8.563   1.610  25.664  1.00  0.00     0.178 HD
ENDBRANCH  37  40
ENDBRANCH  26  30
ENDBRANCH  24  26
ENDBRANCH   1  24
TORSDOF 10
ENDMDL
MODEL 3
REMARK VINA RESULT: -9.596178317      2.021      3.120
REMARK  10 active torsions:
REMARK  status: ('A' for Active; 'I' for Inactive)
REMARK    1  A    between atoms: C2_3  and  C3_4 
REMARK    2  A    between atoms: C3_4  and  O1_5 
REMARK    3  A    between atoms: C3_4  and  N2_7 
REMARK    4  A    between atoms: N2_7  and  C4_9 
REMARK    5  A    between atoms: C4_9  and  C5_10 
REMARK    6  A    between atoms: C4_9  and  C6_13 
REMARK       I    between atoms: C6_13  and  N3_15 
REMARK       I    between atoms: N3_15  and  C7_17 
REMARK       I    between atoms: C7_17  and  N4_19 
REMARK    7  A    between atoms: N5_21  and  N6_23 
REMARK    8  A    between atoms: C10_33  and  N9_34 
REMARK    9  A    between atoms: N9_34  and  O7_36 
REMARK   10  A    between atoms: O7_36  and  N10_37 
ROOT
HETATM    1  C3  UNL     1       3.780   1.367  19.795  1.00  0.00     0.284 C 
ENDROOT
BRANCH   1   2
HETATM    2  C2  UNL     1       4.806   0.687  18.899  1.00  0.00     0.137 A 
HETATM    3  N1  UNL     1       6.052   1.172  18.847  1.00  0.00    -0.321 N 
HETATM    4  C1  UNL     1       6.595   2.223  19.665  1.00  0.00     0.159 C 
HETATM    5  C11 UNL     1       6.888   0.578  17.941  1.00  0.00     0.157 A 
HETATM    6  C9  UNL     1       6.485  -0.449  17.141  1.00  0.00     0.161 A 
HETATM    7  N11 UNL     1       8.167   0.832  17.583  1.00  0.00    -0.172 N 
HETATM    8  C8  UNL     1       5.172  -0.923  17.237  1.00  0.00     0.278 A 
HETATM    9  N8  UNL     1       7.487  -0.828  16.303  1.00  0.00    -0.181 N 
HETATM   10  N7  UNL     1       4.368  -0.338  18.114  1.00  0.00    -0.307 N 
HETATM   11  O6  UNL     1       4.825  -1.886  16.487  1.00  0.00    -0.265 OA
ATOM     12  H7  UNL     1       3.404  -0.661  18.204  1.00  0.00     0.170 HD
HETATM   13  C10 UNL     1       8.514  -0.015  16.602  1.00  0.00     0.706 A 
ATOM     14  H8  UNL     1       7.464  -1.568  15.601  1.00  0.00     0.184 HD
ATOM     15  H11 UNL     1       8.768   1.548  17.990  1.00  0.00     0.186 HD
BRANCH  13  16
HETATM   16  N9  UNL     1       9.650  -0.051  16.002  1.00  0.00    -0.072 N 
ATOM     17  H9  UNL     1       9.715  -0.655  15.183  1.00  0.00     0.215 HD
BRANCH  16  18
HETATM   18  O7  UNL     1      10.773   0.632  16.346  1.00  0.00    -0.149 OA
BRANCH  18  19
HETATM   19  N10 UNL     1      11.547   0.265  17.438  1.00  0.00    -0.286 N 
ATOM     20 2H10 UNL     1      11.236   0.552  18.366  1.00  0.00     0.186 HD
ATOM     21 1H10 UNL     1      12.405  -0.277  17.331  1.00  0.00     0.186 HD
ENDBRANCH  18  19
ENDBRANCH  16  18
ENDBRANCH  13  16
ENDBRANCH   1   2
BRANCH   1  22
HETATM   22  O1  UNL     1       2.814   1.908  18.925  1.00  0.00    -0.370 OA
ATOM     23  H1  UNL     1       2.343   1.164  18.569  1.00  0.00     0.212 HD
ENDBRANCH   1  22
BRANCH   1  24
HETATM   24  N2  UNL     1       3.261   0.437  20.678  1.00  0.00    -0.370 N 
ATOM     25  H2  UNL     1       2.938  -0.432  20.253  1.00  0.00     0.157 HD
BRANCH  24  26
HETATM   26  C4  UNL     1       3.116   0.507  22.036  1.00  0.00     0.274 C 
BRANCH  26  27
HETATM   27  C5  UNL     1       1.745   1.040  22.395  1.00  0.00     0.206 C 
HETATM   28  O2  UNL     1       1.229   1.974  21.783  1.00  0.00    -0.646 OA
HETATM   29  O3  UNL     1       1.039   0.451  23.451  1.00  0.00    -0.646 OA
ENDBRANCH  26  27
BRANCH  26  30
HETATM   30  C6  UNL     1       4.114   1.284  22.835  1.00  0.00     0.258 C 
HETATM   31  O4  UNL     1       5.325   1.056  22.730  1.00  0.00    -0.270 OA
HETATM   32  N3  UNL     1       3.575   2.267  23.697  1.00  0.00    -0.276 N 
HETATM   33  C7  UNL     1       4.194   2.913  24.764  1.00  0.00     0.342 C 
ATOM     34  H3  UNL     1       2.609   2.537  23.512  1.00  0.00     0.173 HD
HETATM   35  O5  UNL     1       3.711   3.937  25.287  1.00  0.00    -0.245 OA
HETATM   36  N4  UNL     1       5.446   2.398  25.356  1.00  0.00    -0.237 N 
HETATM   37  N5  UNL     1       5.283   1.744  26.391  1.00  0.00    -0.245 N 
ATOM     38  H4  UNL     1       6.364   2.567  24.946  1.00  0.00     0.193 HD
ATOM     39  H5  UNL     1       4.274   1.753  26.542  1.00  0.00     0.208 HD
BRANCH  37  40
HETATM   40  N6  UNL     1       5.751   1.057  27.375  1.00  0.00    -0.331 N 
ATOM     41  H62 UNL     1       5.211   0.195  27.314  1.00  0.00     0.178 HD
ATOM     42  H61 UNL     1       6.384   0.953  28.169  1.00  0.00     0.178 HD
ENDBRANCH  37  40
ENDBRANCH  26  30
ENDBRANCH  24  26
ENDBRANCH   1  24
TORSDOF 10
ENDMDL
MODEL 4
REMARK VINA RESULT: -9.569698069      2.430      8.098
REMARK  10 active torsions:
REMARK  status: ('A' for Active; 'I' for Inactive)
REMARK    1  A    between atoms: C2_3  and  C3_4 
REMARK    2  A    between atoms: C3_4  and  O1_5 
REMARK    3  A    between atoms: C3_4  and  N2_7 
REMARK    4  A    between atoms: N2_7  and  C4_9 
REMARK    5  A    between atoms: C4_9  and  C5_10 
REMARK    6  A    between atoms: C4_9  and  C6_13 
REMARK       I    between atoms: C6_13  and  N3_15 
REMARK       I    between atoms: N3_15  and  C7_17 
REMARK       I    between atoms: C7_17  and  N4_19 
REMARK    7  A    between atoms: N5_21  and  N6_23 
REMARK    8  A    between atoms: C10_33  and  N9_34 
REMARK    9  A    between atoms: N9_34  and  O7_36 
REMARK   10  A    between atoms: O7_36  and  N10_37 
ROOT
HETATM    1  C3  UNL     1       6.461   1.601  19.331  1.00  0.00     0.284 C 
ENDROOT
BRANCH   1   2
HETATM    2  C2  UNL     1       5.464   1.308  20.443  1.00  0.00     0.137 A 
HETATM    3  N1  UNL     1       4.153   1.425  20.193  1.00  0.00    -0.321 N 
HETATM    4  C1  UNL     1       3.546   1.680  18.915  1.00  0.00     0.159 C 
HETATM    5  C11 UNL     1       3.323   1.252  21.266  1.00  0.00     0.157 A 
HETATM    6  C9  UNL     1       3.792   0.972  22.515  1.00  0.00     0.161 A 
HETATM    7  N11 UNL     1       1.980   1.346  21.401  1.00  0.00    -0.172 N 
HETATM    8  C8  UNL     1       5.172   0.855  22.723  1.00  0.00     0.278 A 
HETATM    9  N8  UNL     1       2.769   0.893  23.408  1.00  0.00    -0.181 N 
HETATM   10  N7  UNL     1       5.968   1.029  21.677  1.00  0.00    -0.307 N 
HETATM   11  O6  UNL     1       5.582   0.585  23.892  1.00  0.00    -0.265 OA
ATOM     12  H7  UNL     1       6.979   0.953  21.800  1.00  0.00     0.170 HD
HETATM   13  C10 UNL     1       1.661   1.130  22.686  1.00  0.00     0.706 A 
ATOM     14  H8  UNL     1       2.830   0.696  24.407  1.00  0.00     0.184 HD
ATOM     15  H11 UNL     1       1.320   1.548  20.650  1.00  0.00     0.186 HD
BRANCH  13  16
HETATM   16  N9  UNL     1       0.478   1.161  23.185  1.00  0.00    -0.072 N 
ATOM     17  H9  UNL     1      -0.048   0.287  23.168  1.00  0.00     0.215 HD
BRANCH  16  18
HETATM   18  O7  UNL     1      -0.146   2.235  23.734  1.00  0.00    -0.149 OA
BRANCH  18  19
HETATM   19  N10 UNL     1       0.238   3.536  23.436  1.00  0.00    -0.286 N 
ATOM     20 2H10 UNL     1       1.085   3.672  22.886  1.00  0.00     0.186 HD
ATOM     21 1H10 UNL     1      -0.303   4.342  23.751  1.00  0.00     0.186 HD
ENDBRANCH  18  19
ENDBRANCH  16  18
ENDBRANCH  13  16
ENDBRANCH   1   2
BRANCH   1  22
HETATM   22  O1  UNL     1       6.934   2.903  19.577  1.00  0.00    -0.370 OA
ATOM     23  H1  UNL     1       6.271   3.320  20.116  1.00  0.00     0.212 HD
ENDBRANCH   1  22
BRANCH   1  24
HETATM   24  N2  UNL     1       7.458   0.642  19.351  1.00  0.00    -0.370 N 
ATOM     25  H2  UNL     1       8.299   0.901  19.869  1.00  0.00     0.157 HD
BRANCH  24  26
HETATM   26  C4  UNL     1       7.489  -0.601  18.783  1.00  0.00     0.274 C 
BRANCH  26  27
HETATM   27  C5  UNL     1       8.149  -1.594  19.717  1.00  0.00     0.206 C 
HETATM   28  O2  UNL     1       8.963  -2.424  19.316  1.00  0.00    -0.646 OA
HETATM   29  O3  UNL     1       7.827  -1.566  21.080  1.00  0.00    -0.646 OA
ENDBRANCH  26  27
BRANCH  26  30
HETATM   30  C6  UNL     1       8.124  -0.772  17.440  1.00  0.00     0.258 C 
HETATM   31  O4  UNL     1       7.492  -1.265  16.498  1.00  0.00    -0.270 OA
HETATM   32  N3  UNL     1       9.467  -0.342  17.339  1.00  0.00    -0.276 N 
HETATM   33  C7  UNL     1      10.400  -0.647  16.352  1.00  0.00     0.342 C 
ATOM     34  H3  UNL     1       9.794   0.270  18.087  1.00  0.00     0.173 HD
HETATM   35  O5  UNL     1      11.467  -0.011  16.230  1.00  0.00    -0.245 OA
HETATM   36  N4  UNL     1      10.189  -1.766  15.410  1.00  0.00    -0.237 N 
HETATM   37  N5  UNL     1      10.794  -2.800  15.711  1.00  0.00    -0.245 N 
ATOM     38  H4  UNL     1       9.596  -1.691  14.584  1.00  0.00     0.193 HD
ATOM     39  H5  UNL     1      11.290  -2.564  16.571  1.00  0.00     0.208 HD
BRANCH  37  40
HETATM   40  N6  UNL     1      11.110  -4.027  15.482  1.00  0.00    -0.331 N 
ATOM     41  H62 UNL     1      12.019  -3.936  15.027  1.00  0.00     0.178 HD
ATOM     42  H61 UNL     1      10.905  -5.026  15.530  1.00  0.00     0.178 HD
ENDBRANCH  37  40
ENDBRANCH  26  30
ENDBRANCH  24  26
ENDBRANCH   1  24
TORSDOF 10
ENDMDL
MODEL 5
REMARK VINA RESULT: -9.568030833      2.227      7.507
REMARK  10 active torsions:
REMARK  status: ('A' for Active; 'I' for Inactive)
REMARK    1  A    between atoms: C2_3  and  C3_4 
REMARK    2  A    between atoms: C3_4  and  O1_5 
REMARK    3  A    between atoms: C3_4  and  N2_7 
REMARK    4  A    between atoms: N2_7  and  C4_9 
REMARK    5  A    between atoms: C4_9  and  C5_10 
REMARK    6  A    between atoms: C4_9  and  C6_13 
REMARK       I    between atoms: C6_13  and  N3_15 
REMARK       I    between atoms: N3_15  and  C7_17 
REMARK       I    between atoms: C7_17  and  N4_19 
REMARK    7  A    between atoms: N5_21  and  N6_23 
REMARK    8  A    between atoms: C10_33  and  N9_34 
REMARK    9  A    between atoms: N9_34  and  O7_36 
REMARK   10  A    between atoms: O7_36  and  N10_37 
ROOT
HETATM    1  C3  UNL     1       5.547   0.731  20.831  1.00  0.00     0.284 C 
ENDROOT
BRANCH   1   2
HETATM    2  C2  UNL     1       5.427   0.945  22.333  1.00  0.00     0.137 A 
HETATM    3  N1  UNL     1       6.482   0.686  23.117  1.00  0.00    -0.321 N 
HETATM    4  C1  UNL     1       7.806   0.338  22.678  1.00  0.00     0.159 C 
HETATM    5  C11 UNL     1       6.268   0.797  24.463  1.00  0.00     0.157 A 
HETATM    6  C9  UNL     1       5.060   1.153  24.983  1.00  0.00     0.161 A 
HETATM    7  N11 UNL     1       7.065   0.566  25.531  1.00  0.00    -0.172 N 
HETATM    8  C8  UNL     1       3.989   1.418  24.121  1.00  0.00     0.278 A 
HETATM    9  N8  UNL     1       5.100   1.147  26.343  1.00  0.00    -0.181 N 
HETATM   10  N7  UNL     1       4.205   1.303  22.818  1.00  0.00    -0.307 N 
HETATM   11  O6  UNL     1       2.878   1.757  24.631  1.00  0.00    -0.265 OA
ATOM     12  H7  UNL     1       3.442   1.487  22.166  1.00  0.00     0.170 HD
HETATM   13  C10 UNL     1       6.355   0.778  26.650  1.00  0.00     0.706 A 
ATOM     14  H8  UNL     1       4.343   1.372  26.988  1.00  0.00     0.184 HD
ATOM     15  H11 UNL     1       8.043   0.279  25.493  1.00  0.00     0.186 HD
BRANCH  13  16
HETATM   16  N9  UNL     1       6.782   0.636  27.853  1.00  0.00    -0.072 N 
ATOM     17  H9  UNL     1       6.231   1.079  28.588  1.00  0.00     0.215 HD
BRANCH  16  18
HETATM   18  O7  UNL     1       7.892  -0.041  28.248  1.00  0.00    -0.149 OA
BRANCH  18  19
HETATM   19  N10 UNL     1       7.946  -1.428  28.234  1.00  0.00    -0.286 N 
ATOM     20 2H10 UNL     1       7.962  -1.917  29.129  1.00  0.00     0.186 HD
ATOM     21 1H10 UNL     1       7.970  -1.957  27.362  1.00  0.00     0.186 HD
ENDBRANCH  18  19
ENDBRANCH  16  18
ENDBRANCH  13  16
ENDBRANCH   1   2
BRANCH   1  22
HETATM   22  O1  UNL     1       4.256   0.381  20.393  1.00  0.00    -0.370 OA
ATOM     23  H1  UNL     1       3.796   1.203  20.264  1.00  0.00     0.212 HD
ENDBRANCH   1  22
BRANCH   1  24
HETATM   24  N2  UNL     1       6.029   1.888  20.245  1.00  0.00    -0.370 N 
ATOM     25  H2  UNL     1       6.209   2.658  20.889  1.00  0.00     0.157 HD
BRANCH  24  26
HETATM   26  C4  UNL     1       6.301   2.155  18.932  1.00  0.00     0.274 C 
BRANCH  26  27
HETATM   27  C5  UNL     1       5.214   3.023  18.333  1.00  0.00     0.206 C 
HETATM   28  O2  UNL     1       5.435   3.793  17.399  1.00  0.00    -0.646 OA
HETATM   29  O3  UNL     1       3.916   2.946  18.852  1.00  0.00    -0.646 OA
ENDBRANCH  26  27
BRANCH  26  30
HETATM   30  C6  UNL     1       6.524   1.016  17.989  1.00  0.00     0.258 C 
HETATM   31  O4  UNL     1       5.635   0.181  17.784  1.00  0.00    -0.270 OA
HETATM   32  N3  UNL     1       7.796   0.970  17.375  1.00  0.00    -0.276 N 
HETATM   33  C7  UNL     1       8.401  -0.100  16.719  1.00  0.00     0.342 C 
ATOM     34  H3  UNL     1       8.341   1.830  17.418  1.00  0.00     0.173 HD
HETATM   35  O5  UNL     1       9.409   0.050  15.999  1.00  0.00    -0.245 OA
HETATM   36  N4  UNL     1       7.896  -1.480  16.867  1.00  0.00    -0.237 N 
HETATM   37  N5  UNL     1       8.528  -2.165  17.677  1.00  0.00    -0.245 N 
ATOM     38  H4  UNL     1       7.095  -1.837  16.345  1.00  0.00     0.193 HD
ATOM     39  H5  UNL     1       9.255  -1.540  18.027  1.00  0.00     0.208 HD
BRANCH  37  40
HETATM   40  N6  UNL     1       8.727  -3.274  18.302  1.00  0.00    -0.331 N 
ATOM     41  H62 UNL     1       7.871  -3.372  18.848  1.00  0.00     0.178 HD
ATOM     42  H61 UNL     1       9.307  -4.086  18.515  1.00  0.00     0.178 HD
ENDBRANCH  37  40
ENDBRANCH  26  30
ENDBRANCH  24  26
ENDBRANCH   1  24
TORSDOF 10
ENDMDL
