MODEL 1
REMARK VINA RESULT: -8.350236144      0.000      0.000
REMARK  20 active torsions:
REMARK  status: ('A' for Active; 'I' for Inactive)
REMARK    1  A    between atoms: S1_2  and  C2_3 
REMARK    2  A    between atoms: C3_6  and  N2_7 
REMARK    3  A    between atoms: N2_7  and  N3_9 
REMARK    4  A    between atoms: N3_9  and  C4_11 
REMARK    5  A    between atoms: N4_12  and  N5_13 
REMARK    6  A    between atoms: C5_16  and  N6_17 
REMARK       I    between atoms: N6_17  and  C6_19 
REMARK    7  A    between atoms: N8_24  and  C9_25 
REMARK    8  A    between atoms: C10_27  and  C11_28 
REMARK    9  A    between atoms: C11_28  and  O3_29 
REMARK   10  A    between atoms: C12_31  and  N9_32 
REMARK   11  A    between atoms: N9_32  and  C13_34 
REMARK   12  A    between atoms: C14_37  and  N11_38 
REMARK   13  A    between atoms: N11_38  and  C15_39 
REMARK   14  A    between atoms: N11_38  and  C17_43 
REMARK   15  A    between atoms: C15_39  and  C16_40 
REMARK   16  A    between atoms: C16_40  and  O4_41 
REMARK   17  A    between atoms: C17_43  and  C18_44 
REMARK   18  A    between atoms: C18_44  and  O5_45 
REMARK   19  A    between atoms: C19_49  and  N13_50 
REMARK   20  A    between atoms: C20_58  and  N16_59 
ROOT
HETATM    1  C4  UNL     1      10.078  46.832   4.536  1.00  0.00     0.727 A 
HETATM    2  N4  UNL     1       9.885  47.629   5.595  1.00  0.00    -0.071 N 
HETATM    3  C5  UNL     1       9.772  48.941   5.188  1.00  0.00     0.190 A 
HETATM    4  C8  UNL     1       9.907  48.909   3.834  1.00  0.00     0.186 A 
HETATM    5  N7  UNL     1       9.857  49.971   2.916  1.00  0.00    -0.078 NA
HETATM    6  N8  UNL     1      10.094  47.607   3.477  1.00  0.00    -0.112 N 
ENDROOT
BRANCH   6   7
HETATM    7  C9  UNL     1      10.305  47.178   2.092  1.00  0.00     0.398 C 
HETATM    8  O2  UNL     1      11.472  47.771   1.649  1.00  0.00    -0.331 OA
HETATM    9  C10 UNL     1      11.245  48.301   0.379  1.00  0.00     0.199 C 
HETATM   10  C12 UNL     1       9.869  47.891   0.009  1.00  0.00     0.274 C 
HETATM   11  O6  UNL     1       9.287  47.668   1.270  1.00  0.00    -0.315 OA
BRANCH   9  12
HETATM   12  C11 UNL     1      11.478  49.799   0.404  1.00  0.00     0.200 C 
BRANCH  12  13
HETATM   13  O3  UNL     1      10.377  50.539   0.006  1.00  0.00    -0.398 OA
ATOM     14  H3  UNL     1       9.915  50.951   0.727  1.00  0.00     0.209 HD
ENDBRANCH  12  13
ENDBRANCH   9  12
BRANCH  10  15
HETATM   15  N9  UNL     1       9.721  46.767  -0.847  1.00  0.00    -0.196 N 
ATOM     16  H9  UNL     1       9.817  45.848  -0.417  1.00  0.00     0.180 HD
BRANCH  15  17
HETATM   17  C13 UNL     1       9.452  46.794  -2.239  1.00  0.00     0.709 A 
HETATM   18  N10 UNL     1       9.522  45.638  -2.968  1.00  0.00    -0.021 N 
HETATM   19  C14 UNL     1       9.278  45.566  -4.276  1.00  0.00     0.709 A 
ATOM     20  H10 UNL     1       9.777  44.779  -2.480  1.00  0.00     0.203 HD
HETATM   21  N12 UNL     1       8.941  46.743  -4.889  1.00  0.00    -0.022 N 
HETATM   22  C19 UNL     1       8.866  47.884  -4.195  1.00  0.00     0.705 A 
ATOM     23  H12 UNL     1       8.744  46.749  -5.890  1.00  0.00     0.203 HD
HETATM   24  N14 UNL     1       9.118  47.923  -2.871  1.00  0.00    -0.022 N 
ATOM     25  H14 UNL     1       9.055  48.804  -2.359  1.00  0.00     0.203 HD
BRANCH  19  26
HETATM   26  N11 UNL     1       9.341  44.382  -5.053  1.00  0.00    -0.213 N 
BRANCH  26  27
HETATM   27  C15 UNL     1       9.955  43.158  -4.572  1.00  0.00     0.167 C 
BRANCH  27  28
HETATM   28  C16 UNL     1      11.465  43.213  -4.577  1.00  0.00     0.184 C 
BRANCH  28  29
HETATM   29  O4  UNL     1      11.885  43.627  -3.314  1.00  0.00    -0.399 OA
ATOM     30  H4  UNL     1      11.943  42.860  -2.757  1.00  0.00     0.209 HD
ENDBRANCH  28  29
ENDBRANCH  27  28
ENDBRANCH  26  27
BRANCH  26  31
HETATM   31  C17 UNL     1       8.763  44.375  -6.363  1.00  0.00     0.167 C 
BRANCH  31  32
HETATM   32  C18 UNL     1       9.771  44.392  -7.486  1.00  0.00     0.184 C 
BRANCH  32  33
HETATM   33  O5  UNL     1      10.430  45.615  -7.468  1.00  0.00    -0.399 OA
ATOM     34  H5  UNL     1      10.254  46.065  -8.287  1.00  0.00     0.209 HD
ENDBRANCH  32  33
ENDBRANCH  31  32
ENDBRANCH  26  31
ENDBRANCH  19  26
BRANCH  22  35
HETATM   35  N13 UNL     1       8.550  48.978  -4.790  1.00  0.00    -0.234 N 
ATOM     36 2H13 UNL     1       7.712  48.990  -5.372  1.00  0.00     0.174 HD
ATOM     37 1H13 UNL     1       9.131  49.808  -4.672  1.00  0.00     0.174 HD
ENDBRANCH  22  35
ENDBRANCH  15  17
ENDBRANCH  10  15
ENDBRANCH   6   7
BRANCH   1  38
HETATM   38  N3  UNL     1      10.208  45.531   4.644  1.00  0.00    -0.115 N 
ATOM     39  H3  UNL     1       9.400  45.028   5.011  1.00  0.00     0.206 HD
BRANCH  38  40
HETATM   40  N2  UNL     1      11.283  44.778   4.329  1.00  0.00    -0.117 N 
ATOM     41  H2  UNL     1      12.213  45.115   4.579  1.00  0.00     0.206 HD
BRANCH  40  42
HETATM   42  C3  UNL     1      11.171  43.646   3.721  1.00  0.00     0.713 A 
HETATM   43  N1  UNL     1      12.218  42.852   3.424  1.00  0.00    -0.168 N 
HETATM   44  C2  UNL     1      12.009  41.683   2.786  1.00  0.00     0.174 A 
ATOM     45  H1  UNL     1      13.164  43.133   3.680  1.00  0.00     0.186 HD
HETATM   46  N17 UNL     1      10.742  41.324   2.452  1.00  0.00    -0.170 N 
HETATM   47  C20 UNL     1       9.695  42.105   2.741  1.00  0.00     0.692 A 
ATOM     48  H17 UNL     1      10.585  40.439   1.970  1.00  0.00     0.186 HD
HETATM   49  N15 UNL     1       9.917  43.259   3.373  1.00  0.00    -0.021 N 
ATOM     50  H15 UNL     1       9.127  43.863   3.599  1.00  0.00     0.203 HD
BRANCH  44  51
HETATM   51  S1  UNL     1      13.326  40.571   2.355  1.00  0.00    -0.097 SA
HETATM   52  C1  UNL     1      14.511  41.364   1.254  1.00  0.00     0.099 C 
ENDBRANCH  44  51
BRANCH  47  53
HETATM   53  N16 UNL     1       8.509  41.746   2.417  1.00  0.00    -0.234 N 
ATOM     54 2H16 UNL     1       8.041  40.994   2.921  1.00  0.00     0.174 HD
ATOM     55 1H16 UNL     1       8.011  42.203   1.653  1.00  0.00     0.174 HD
ENDBRANCH  47  53
ENDBRANCH  40  42
ENDBRANCH  38  40
ENDBRANCH   1  38
BRANCH   2  56
HETATM   56  N5  UNL     1       9.805  47.218   6.918  1.00  0.00    -0.322 N 
ATOM     57  H52 UNL     1      10.581  47.270   7.578  1.00  0.00     0.178 HD
ATOM     58  H51 UNL     1       8.980  46.829   7.374  1.00  0.00     0.178 HD
ENDBRANCH   2  56
BRANCH   3  59
HETATM   59  N6  UNL     1       9.567  50.006   6.086  1.00  0.00    -0.309 N 
HETATM   60  C6  UNL     1       8.740  50.072   7.175  1.00  0.00     0.219 C 
HETATM   61  C7  UNL     1       8.700  51.383   7.993  1.00  0.00     0.117 C 
HETATM   62  O1  UNL     1       7.978  49.222   7.644  1.00  0.00    -0.274 OA
ATOM     63  H6  UNL     1      10.112  50.848   5.898  1.00  0.00     0.170 HD
ENDBRANCH   3  59
TORSDOF 20
ENDMDL
MODEL 2
REMARK VINA RESULT: -8.294609983      4.297      9.002
REMARK  20 active torsions:
REMARK  status: ('A' for Active; 'I' for Inactive)
REMARK    1  A    between atoms: S1_2  and  C2_3 
REMARK    2  A    between atoms: C3_6  and  N2_7 
REMARK    3  A    between atoms: N2_7  and  N3_9 
REMARK    4  A    between atoms: N3_9  and  C4_11 
REMARK    5  A    between atoms: N4_12  and  N5_13 
REMARK    6  A    between atoms: C5_16  and  N6_17 
REMARK       I    between atoms: N6_17  and  C6_19 
REMARK    7  A    between atoms: N8_24  and  C9_25 
REMARK    8  A    between atoms: C10_27  and  C11_28 
REMARK    9  A    between atoms: C11_28  and  O3_29 
REMARK   10  A    between atoms: C12_31  and  N9_32 
REMARK   11  A    between atoms: N9_32  and  C13_34 
REMARK   12  A    between atoms: C14_37  and  N11_38 
REMARK   13  A    between atoms: N11_38  and  C15_39 
REMARK   14  A    between atoms: N11_38  and  C17_43 
REMARK   15  A    between atoms: C15_39  and  C16_40 
REMARK   16  A    between atoms: C16_40  and  O4_41 
REMARK   17  A    between atoms: C17_43  and  C18_44 
REMARK   18  A    between atoms: C18_44  and  O5_45 
REMARK   19  A    between atoms: C19_49  and  N13_50 
REMARK   20  A    between atoms: C20_58  and  N16_59 
ROOT
HETATM    1  C4  UNL     1       8.230  42.252   3.777  1.00  0.00     0.727 A 
HETATM    2  N4  UNL     1       8.217  41.558   2.632  1.00  0.00    -0.071 N 
HETATM    3  C5  UNL     1       9.428  41.684   1.986  1.00  0.00     0.190 A 
HETATM    4  C8  UNL     1      10.179  42.489   2.787  1.00  0.00     0.186 A 
HETATM    5  N7  UNL     1      11.502  42.927   2.609  1.00  0.00    -0.078 NA
HETATM    6  N8  UNL     1       9.412  42.815   3.866  1.00  0.00    -0.112 N 
ENDROOT
BRANCH   6   7
HETATM    7  C9  UNL     1       9.875  43.695   4.941  1.00  0.00     0.398 C 
HETATM    8  O2  UNL     1      10.041  42.915   6.070  1.00  0.00    -0.331 OA
HETATM    9  C10 UNL     1       9.466  43.579   7.155  1.00  0.00     0.199 C 
HETATM   10  C12 UNL     1       9.025  44.895   6.637  1.00  0.00     0.274 C 
HETATM   11  O6  UNL     1       8.890  44.633   5.261  1.00  0.00    -0.315 OA
BRANCH   9  12
HETATM   12  C11 UNL     1       8.360  42.724   7.746  1.00  0.00     0.200 C 
BRANCH  12  13
HETATM   13  O3  UNL     1       7.097  43.053   7.282  1.00  0.00    -0.398 OA
ATOM     14  H3  UNL     1       6.393  42.699   7.813  1.00  0.00     0.209 HD
ENDBRANCH  12  13
ENDBRANCH   9  12
BRANCH  10  15
HETATM   15  N9  UNL     1       9.863  46.016   6.880  1.00  0.00    -0.196 N 
ATOM     16  H9  UNL     1      10.668  45.864   7.487  1.00  0.00     0.180 HD
BRANCH  15  17
HETATM   17  C13 UNL     1       9.693  47.326   6.364  1.00  0.00     0.709 A 
HETATM   18  N10 UNL     1       9.882  47.562   5.029  1.00  0.00    -0.021 N 
HETATM   19  C14 UNL     1       9.737  48.756   4.455  1.00  0.00     0.709 A 
ATOM     20  H10 UNL     1      10.152  46.776   4.438  1.00  0.00     0.203 HD
HETATM   21  N12 UNL     1       9.377  49.781   5.286  1.00  0.00    -0.022 N 
HETATM   22  C19 UNL     1       9.186  49.572   6.594  1.00  0.00     0.705 A 
ATOM     23  H12 UNL     1       9.252  50.719   4.903  1.00  0.00     0.203 HD
HETATM   24  N14 UNL     1       9.340  48.351   7.145  1.00  0.00    -0.022 N 
ATOM     25  H14 UNL     1       9.189  48.212   8.145  1.00  0.00     0.203 HD
BRANCH  19  26
HETATM   26  N11 UNL     1       9.924  49.025   3.076  1.00  0.00    -0.213 N 
BRANCH  26  27
HETATM   27  C15 UNL     1       9.638  48.051   2.039  1.00  0.00     0.167 C 
BRANCH  27  28
HETATM   28  C16 UNL     1      10.850  47.247   1.631  1.00  0.00     0.184 C 
BRANCH  28  29
HETATM   29  O4  UNL     1      10.770  46.001   2.250  1.00  0.00    -0.399 OA
ATOM     30  H4  UNL     1      11.639  45.618   2.256  1.00  0.00     0.209 HD
ENDBRANCH  28  29
ENDBRANCH  27  28
ENDBRANCH  26  27
BRANCH  26  31
HETATM   31  C17 UNL     1      10.400  50.314   2.674  1.00  0.00     0.167 C 
BRANCH  31  32
HETATM   32  C18 UNL     1      11.757  50.675   3.228  1.00  0.00     0.184 C 
BRANCH  32  33
HETATM   33  O5  UNL     1      11.579  51.543   4.299  1.00  0.00    -0.399 OA
ATOM     34  H5  UNL     1      11.586  52.434   3.969  1.00  0.00     0.209 HD
ENDBRANCH  32  33
ENDBRANCH  31  32
ENDBRANCH  26  31
ENDBRANCH  19  26
BRANCH  22  35
HETATM   35  N13 UNL     1       8.850  50.550   7.358  1.00  0.00    -0.234 N 
ATOM     36 2H13 UNL     1       9.190  51.484   7.129  1.00  0.00     0.174 HD
ATOM     37 1H13 UNL     1       8.254  50.381   8.169  1.00  0.00     0.174 HD
ENDBRANCH  22  35
ENDBRANCH  15  17
ENDBRANCH  10  15
ENDBRANCH   6   7
BRANCH   1  38
HETATM   38  N3  UNL     1       7.201  42.292   4.591  1.00  0.00    -0.115 N 
ATOM     39  H3  UNL     1       7.157  43.095   5.219  1.00  0.00     0.206 HD
BRANCH  38  40
HETATM   40  N2  UNL     1       6.196  41.397   4.697  1.00  0.00    -0.117 N 
ATOM     41  H2  UNL     1       5.571  41.260   3.903  1.00  0.00     0.206 HD
BRANCH  40  42
HETATM   42  C3  UNL     1       6.002  40.711   5.772  1.00  0.00     0.713 A 
HETATM   43  N1  UNL     1       4.861  40.753   6.488  1.00  0.00    -0.168 N 
HETATM   44  C2  UNL     1       4.743  40.001   7.600  1.00  0.00     0.174 A 
ATOM     45  H1  UNL     1       4.090  41.350   6.190  1.00  0.00     0.186 HD
HETATM   46  N17 UNL     1       5.781  39.211   7.983  1.00  0.00    -0.170 N 
HETATM   47  C20 UNL     1       6.919  39.163   7.281  1.00  0.00     0.692 A 
ATOM     48  H17 UNL     1       5.690  38.642   8.825  1.00  0.00     0.186 HD
HETATM   49  N15 UNL     1       7.021  39.912   6.182  1.00  0.00    -0.021 N 
ATOM     50  H15 UNL     1       7.883  39.884   5.638  1.00  0.00     0.203 HD
BRANCH  44  51
HETATM   51  S1  UNL     1       3.279  39.988   8.605  1.00  0.00    -0.097 SA
HETATM   52  C1  UNL     1       2.076  41.194   8.014  1.00  0.00     0.099 C 
ENDBRANCH  44  51
BRANCH  47  53
HETATM   53  N16 UNL     1       7.883  38.411   7.661  1.00  0.00    -0.234 N 
ATOM     54 2H16 UNL     1       8.673  38.231   7.041  1.00  0.00     0.174 HD
ATOM     55 1H16 UNL     1       7.884  37.980   8.585  1.00  0.00     0.174 HD
ENDBRANCH  47  53
ENDBRANCH  40  42
ENDBRANCH  38  40
ENDBRANCH   1  38
BRANCH   2  56
HETATM   56  N5  UNL     1       7.154  40.810   2.145  1.00  0.00    -0.322 N 
ATOM     57  H52 UNL     1       7.037  39.811   2.312  1.00  0.00     0.178 HD
ATOM     58  H51 UNL     1       6.383  41.165   1.580  1.00  0.00     0.178 HD
ENDBRANCH   2  56
BRANCH   3  59
HETATM   59  N6  UNL     1       9.707  41.065   0.752  1.00  0.00    -0.309 N 
HETATM   60  C6  UNL     1       9.498  41.535  -0.517  1.00  0.00     0.219 C 
HETATM   61  C7  UNL     1       9.891  40.635  -1.710  1.00  0.00     0.117 C 
HETATM   62  O1  UNL     1       9.024  42.609  -0.896  1.00  0.00    -0.274 OA
ATOM     63  H6  UNL     1      10.123  40.136   0.813  1.00  0.00     0.170 HD
ENDBRANCH   3  59
TORSDOF 20
ENDMDL
MODEL 3
REMARK VINA RESULT: -8.252930312      5.314     12.183
REMARK  20 active torsions:
REMARK  status: ('A' for Active; 'I' for Inactive)
REMARK    1  A    between atoms: S1_2  and  C2_3 
REMARK    2  A    between atoms: C3_6  and  N2_7 
REMARK    3  A    between atoms: N2_7  and  N3_9 
REMARK    4  A    between atoms: N3_9  and  C4_11 
REMARK    5  A    between atoms: N4_12  and  N5_13 
REMARK    6  A    between atoms: C5_16  and  N6_17 
REMARK       I    between atoms: N6_17  and  C6_19 
REMARK    7  A    between atoms: N8_24  and  C9_25 
REMARK    8  A    between atoms: C10_27  and  C11_28 
REMARK    9  A    between atoms: C11_28  and  O3_29 
REMARK   10  A    between atoms: C12_31  and  N9_32 
REMARK   11  A    between atoms: N9_32  and  C13_34 
REMARK   12  A    between atoms: C14_37  and  N11_38 
REMARK   13  A    between atoms: N11_38  and  C15_39 
REMARK   14  A    between atoms: N11_38  and  C17_43 
REMARK   15  A    between atoms: C15_39  and  C16_40 
REMARK   16  A    between atoms: C16_40  and  O4_41 
REMARK   17  A    between atoms: C17_43  and  C18_44 
REMARK   18  A    between atoms: C18_44  and  O5_45 
REMARK   19  A    between atoms: C19_49  and  N13_50 
REMARK   20  A    between atoms: C20_58  and  N16_59 
ROOT
HETATM    1  C4  UNL     1      10.130  43.708 -10.398  1.00  0.00     0.727 A 
HETATM    2  N4  UNL     1       9.557  44.093 -11.546  1.00  0.00    -0.071 N 
HETATM    3  C5  UNL     1       9.627  45.463 -11.675  1.00  0.00     0.190 A 
HETATM    4  C8  UNL     1      10.265  45.897 -10.554  1.00  0.00     0.186 A 
HETATM    5  N7  UNL     1      10.609  47.208 -10.184  1.00  0.00    -0.078 NA
HETATM    6  N8  UNL     1      10.552  44.798  -9.801  1.00  0.00    -0.112 N 
ENDROOT
BRANCH   6   7
HETATM    7  C9  UNL     1      11.219  44.870  -8.500  1.00  0.00     0.398 C 
HETATM    8  O2  UNL     1      12.488  44.344  -8.656  1.00  0.00    -0.331 OA
HETATM    9  C10 UNL     1      12.739  43.472  -7.596  1.00  0.00     0.199 C 
HETATM   10  C12 UNL     1      11.567  43.581  -6.696  1.00  0.00     0.274 C 
HETATM   11  O6  UNL     1      10.572  44.049  -7.573  1.00  0.00    -0.315 OA
BRANCH   9  12
HETATM   12  C11 UNL     1      13.000  42.078  -8.135  1.00  0.00     0.200 C 
BRANCH  12  13
HETATM   13  O3  UNL     1      11.894  41.247  -8.084  1.00  0.00    -0.398 OA
ATOM     14  H3  UNL     1      11.117  41.667  -7.734  1.00  0.00     0.209 HD
ENDBRANCH  12  13
ENDBRANCH   9  12
BRANCH  10  15
HETATM   15  N9  UNL     1      11.689  44.409  -5.548  1.00  0.00    -0.196 N 
ATOM     16  H9  UNL     1      12.469  45.064  -5.536  1.00  0.00     0.180 HD
BRANCH  15  17
HETATM   17  C13 UNL     1      10.834  44.416  -4.416  1.00  0.00     0.709 A 
HETATM   18  N10 UNL     1      10.463  45.605  -3.850  1.00  0.00    -0.021 N 
HETATM   19  C14 UNL     1       9.659  45.710  -2.793  1.00  0.00     0.709 A 
ATOM     20  H10 UNL     1      10.825  46.465  -4.264  1.00  0.00     0.203 HD
HETATM   21  N12 UNL     1       9.200  44.531  -2.271  1.00  0.00    -0.022 N 
HETATM   22  C19 UNL     1       9.550  43.357  -2.808  1.00  0.00     0.705 A 
ATOM     23  H12 UNL     1       8.581  44.548  -1.459  1.00  0.00     0.203 HD
HETATM   24  N14 UNL     1      10.365  43.285  -3.880  1.00  0.00    -0.022 N 
ATOM     25  H14 UNL     1      10.621  42.380  -4.275  1.00  0.00     0.203 HD
BRANCH  19  26
HETATM   26  N11 UNL     1       9.257  46.929  -2.192  1.00  0.00    -0.213 N 
BRANCH  26  27
HETATM   27  C15 UNL     1       9.829  47.420  -0.952  1.00  0.00     0.167 C 
BRANCH  27  28
HETATM   28  C16 UNL     1       9.523  48.877  -0.696  1.00  0.00     0.184 C 
BRANCH  28  29
HETATM   29  O4  UNL     1       8.970  48.985   0.579  1.00  0.00    -0.399 OA
ATOM     30  H4  UNL     1       8.816  49.905   0.756  1.00  0.00     0.209 HD
ENDBRANCH  28  29
ENDBRANCH  27  28
ENDBRANCH  26  27
BRANCH  26  31
HETATM   31  C17 UNL     1       8.255  47.726  -2.833  1.00  0.00     0.167 C 
BRANCH  31  32
HETATM   32  C18 UNL     1       7.020  46.961  -3.243  1.00  0.00     0.184 C 
BRANCH  32  33
HETATM   33  O5  UNL     1       6.461  46.386  -2.107  1.00  0.00    -0.399 OA
ATOM     34  H5  UNL     1       6.637  46.953  -1.365  1.00  0.00     0.209 HD
ENDBRANCH  32  33
ENDBRANCH  31  32
ENDBRANCH  26  31
ENDBRANCH  19  26
BRANCH  22  35
HETATM   35  N13 UNL     1       9.109  42.261  -2.300  1.00  0.00    -0.234 N 
ATOM     36 2H13 UNL     1       9.764  41.661  -1.798  1.00  0.00     0.174 HD
ATOM     37 1H13 UNL     1       8.125  42.012  -2.403  1.00  0.00     0.174 HD
ENDBRANCH  22  35
ENDBRANCH  15  17
ENDBRANCH  10  15
ENDBRANCH   6   7
BRANCH   1  38
HETATM   38  N3  UNL     1      10.208  42.450 -10.034  1.00  0.00    -0.115 N 
ATOM     39  H3  UNL     1      11.066  42.174  -9.555  1.00  0.00     0.206 HD
BRANCH  38  40
HETATM   40  N2  UNL     1       9.290  41.477 -10.218  1.00  0.00    -0.117 N 
ATOM     41  H2  UNL     1       9.128  41.123 -11.160  1.00  0.00     0.206 HD
BRANCH  40  42
HETATM   42  C3  UNL     1       8.613  40.983  -9.238  1.00  0.00     0.713 A 
HETATM   43  N1  UNL     1       7.513  40.221  -9.401  1.00  0.00    -0.168 N 
HETATM   44  C2  UNL     1       6.866  39.744  -8.319  1.00  0.00     0.174 A 
ATOM     45  H1  UNL     1       7.171  40.007 -10.338  1.00  0.00     0.186 HD
HETATM   46  N17 UNL     1       7.334  40.040  -7.078  1.00  0.00    -0.170 N 
HETATM   47  C20 UNL     1       8.425  40.795  -6.904  1.00  0.00     0.692 A 
ATOM     48  H17 UNL     1       6.844  39.678  -6.261  1.00  0.00     0.186 HD
HETATM   49  N15 UNL     1       9.055  41.260  -7.984  1.00  0.00    -0.021 N 
ATOM     50  H15 UNL     1       9.888  41.837  -7.866  1.00  0.00     0.203 HD
BRANCH  44  51
HETATM   51  S1  UNL     1       5.410  38.733  -8.435  1.00  0.00    -0.097 SA
HETATM   52  C1  UNL     1       4.563  38.630  -6.848  1.00  0.00     0.099 C 
ENDBRANCH  44  51
BRANCH  47  53
HETATM   53  N16 UNL     1       8.848  41.061  -5.726  1.00  0.00    -0.234 N 
ATOM     54 2H16 UNL     1       8.371  41.753  -5.149  1.00  0.00     0.174 HD
ATOM     55 1H16 UNL     1       9.666  40.588  -5.341  1.00  0.00     0.174 HD
ENDBRANCH  47  53
ENDBRANCH  40  42
ENDBRANCH  38  40
ENDBRANCH   1  38
BRANCH   2  56
HETATM   56  N5  UNL     1       8.974  43.255 -12.485  1.00  0.00    -0.322 N 
ATOM     57  H52 UNL     1       8.046  42.846 -12.385  1.00  0.00     0.178 HD
ATOM     58  H51 UNL     1       9.396  42.959 -13.366  1.00  0.00     0.178 HD
ENDBRANCH   2  56
BRANCH   3  59
HETATM   59  N6  UNL     1       9.102  46.156 -12.784  1.00  0.00    -0.309 N 
HETATM   60  C6  UNL     1       9.706  47.086 -13.588  1.00  0.00     0.219 C 
HETATM   61  C7  UNL     1       8.887  47.704 -14.743  1.00  0.00     0.117 C 
HETATM   62  O1  UNL     1      10.852  47.542 -13.548  1.00  0.00    -0.274 OA
ATOM     63  H6  UNL     1       8.135  45.933 -13.021  1.00  0.00     0.170 HD
ENDBRANCH   3  59
TORSDOF 20
ENDMDL
MODEL 4
REMARK VINA RESULT: -8.208597414      1.390      1.708
REMARK  20 active torsions:
REMARK  status: ('A' for Active; 'I' for Inactive)
REMARK    1  A    between atoms: S1_2  and  C2_3 
REMARK    2  A    between atoms: C3_6  and  N2_7 
REMARK    3  A    between atoms: N2_7  and  N3_9 
REMARK    4  A    between atoms: N3_9  and  C4_11 
REMARK    5  A    between atoms: N4_12  and  N5_13 
REMARK    6  A    between atoms: C5_16  and  N6_17 
REMARK       I    between atoms: N6_17  and  C6_19 
REMARK    7  A    between atoms: N8_24  and  C9_25 
REMARK    8  A    between atoms: C10_27  and  C11_28 
REMARK    9  A    between atoms: C11_28  and  O3_29 
REMARK   10  A    between atoms: C12_31  and  N9_32 
REMARK   11  A    between atoms: N9_32  and  C13_34 
REMARK   12  A    between atoms: C14_37  and  N11_38 
REMARK   13  A    between atoms: N11_38  and  C15_39 
REMARK   14  A    between atoms: N11_38  and  C17_43 
REMARK   15  A    between atoms: C15_39  and  C16_40 
REMARK   16  A    between atoms: C16_40  and  O4_41 
REMARK   17  A    between atoms: C17_43  and  C18_44 
REMARK   18  A    between atoms: C18_44  and  O5_45 
REMARK   19  A    between atoms: C19_49  and  N13_50 
REMARK   20  A    between atoms: C20_58  and  N16_59 
ROOT
HETATM    1  C4  UNL     1      10.360  46.866   4.503  1.00  0.00     0.727 A 
HETATM    2  N4  UNL     1      10.128  47.653   5.562  1.00  0.00    -0.071 N 
HETATM    3  C5  UNL     1       9.850  48.938   5.147  1.00  0.00     0.190 A 
HETATM    4  C8  UNL     1       9.926  48.900   3.788  1.00  0.00     0.186 A 
HETATM    5  N7  UNL     1       9.716  49.935   2.862  1.00  0.00    -0.078 NA
HETATM    6  N8  UNL     1      10.240  47.621   3.437  1.00  0.00    -0.112 N 
ENDROOT
BRANCH   6   7
HETATM    7  C9  UNL     1      10.433  47.197   2.048  1.00  0.00     0.398 C 
HETATM    8  O2  UNL     1      11.564  47.835   1.575  1.00  0.00    -0.331 OA
HETATM    9  C10 UNL     1      11.284  48.351   0.309  1.00  0.00     0.199 C 
HETATM   10  C12 UNL     1       9.917  47.884  -0.025  1.00  0.00     0.274 C 
HETATM   11  O6  UNL     1       9.376  47.641   1.251  1.00  0.00    -0.315 OA
BRANCH   9  12
HETATM   12  C11 UNL     1      11.456  49.858   0.324  1.00  0.00     0.200 C 
BRANCH  12  13
HETATM   13  O3  UNL     1      10.317  50.551  -0.051  1.00  0.00    -0.398 OA
ATOM     14  H3  UNL     1       9.823  50.896   0.683  1.00  0.00     0.209 HD
ENDBRANCH  12  13
ENDBRANCH   9  12
BRANCH  10  15
HETATM   15  N9  UNL     1       9.793  46.752  -0.874  1.00  0.00    -0.196 N 
ATOM     16  H9  UNL     1       9.931  45.838  -0.443  1.00  0.00     0.180 HD
BRANCH  15  17
HETATM   17  C13 UNL     1       9.497  46.764  -2.261  1.00  0.00     0.709 A 
HETATM   18  N10 UNL     1       9.557  45.600  -2.979  1.00  0.00    -0.021 N 
HETATM   19  C14 UNL     1       9.288  45.513  -4.282  1.00  0.00     0.709 A 
ATOM     20  H10 UNL     1       9.824  44.747  -2.487  1.00  0.00     0.203 HD
HETATM   21  N12 UNL     1       8.935  46.682  -4.900  1.00  0.00    -0.022 N 
HETATM   22  C19 UNL     1       8.871  47.831  -4.216  1.00  0.00     0.705 A 
ATOM     23  H12 UNL     1       8.719  46.678  -5.897  1.00  0.00     0.203 HD
HETATM   24  N14 UNL     1       9.148  47.885  -2.898  1.00  0.00    -0.022 N 
ATOM     25  H14 UNL     1       9.093  48.771  -2.394  1.00  0.00     0.203 HD
BRANCH  19  26
HETATM   26  N11 UNL     1       9.339  44.321  -5.046  1.00  0.00    -0.213 N 
BRANCH  26  27
HETATM   27  C15 UNL     1       9.793  43.055  -4.501  1.00  0.00     0.167 C 
BRANCH  27  28
HETATM   28  C16 UNL     1      11.298  42.941  -4.446  1.00  0.00     0.184 C 
BRANCH  28  29
HETATM   29  O4  UNL     1      11.710  43.287  -3.160  1.00  0.00    -0.399 OA
ATOM     30  H4  UNL     1      12.651  43.164  -3.110  1.00  0.00     0.209 HD
ENDBRANCH  28  29
ENDBRANCH  27  28
ENDBRANCH  26  27
BRANCH  26  31
HETATM   31  C17 UNL     1       8.912  44.350  -6.413  1.00  0.00     0.167 C 
BRANCH  31  32
HETATM   32  C18 UNL     1      10.040  44.404  -7.415  1.00  0.00     0.184 C 
BRANCH  32  33
HETATM   33  O5  UNL     1      10.430  45.730  -7.568  1.00  0.00    -0.399 OA
ATOM     34  H5  UNL     1      11.164  45.896  -6.989  1.00  0.00     0.209 HD
ENDBRANCH  32  33
ENDBRANCH  31  32
ENDBRANCH  26  31
ENDBRANCH  19  26
BRANCH  22  35
HETATM   35  N13 UNL     1       8.540  48.918  -4.817  1.00  0.00    -0.234 N 
ATOM     36 2H13 UNL     1       8.705  48.987  -5.821  1.00  0.00     0.174 HD
ATOM     37 1H13 UNL     1       8.120  49.684  -4.290  1.00  0.00     0.174 HD
ENDBRANCH  22  35
ENDBRANCH  15  17
ENDBRANCH  10  15
ENDBRANCH   6   7
BRANCH   1  38
HETATM   38  N3  UNL     1      10.639  45.589   4.619  1.00  0.00    -0.115 N 
ATOM     39  H3  UNL     1      11.458  45.261   4.108  1.00  0.00     0.206 HD
BRANCH  38  40
HETATM   40  N2  UNL     1       9.972  44.659   5.334  1.00  0.00    -0.117 N 
ATOM     41  H2  UNL     1      10.004  44.702   6.353  1.00  0.00     0.206 HD
BRANCH  40  42
HETATM   42  C3  UNL     1       9.294  43.719   4.768  1.00  0.00     0.713 A 
HETATM   43  N1  UNL     1       9.670  43.112   3.625  1.00  0.00    -0.168 N 
HETATM   44  C2  UNL     1       8.901  42.137   3.102  1.00  0.00     0.174 A 
ATOM     45  H1  UNL     1      10.533  43.390   3.157  1.00  0.00     0.186 HD
HETATM   46  N17 UNL     1       7.754  41.780   3.739  1.00  0.00    -0.170 N 
HETATM   47  C20 UNL     1       7.370  42.376   4.874  1.00  0.00     0.692 A 
ATOM     48  H17 UNL     1       7.173  41.042   3.343  1.00  0.00     0.186 HD
HETATM   49  N15 UNL     1       8.142  43.339   5.380  1.00  0.00    -0.021 N 
ATOM     50  H15 UNL     1       7.861  43.801   6.245  1.00  0.00     0.203 HD
BRANCH  44  51
HETATM   51  S1  UNL     1       9.316  41.280   1.602  1.00  0.00    -0.097 SA
HETATM   52  C1  UNL     1       8.001  40.148   1.117  1.00  0.00     0.099 C 
ENDBRANCH  44  51
BRANCH  47  53
HETATM   53  N16 UNL     1       6.287  42.023   5.457  1.00  0.00    -0.234 N 
ATOM     54 2H16 UNL     1       5.667  42.723   5.864  1.00  0.00     0.174 HD
ATOM     55 1H16 UNL     1       6.020  41.040   5.524  1.00  0.00     0.174 HD
ENDBRANCH  47  53
ENDBRANCH  40  42
ENDBRANCH  38  40
ENDBRANCH   1  38
BRANCH   2  56
HETATM   56  N5  UNL     1      10.155  47.258   6.891  1.00  0.00    -0.322 N 
ATOM     57  H52 UNL     1       9.337  46.934   7.406  1.00  0.00     0.178 HD
ATOM     58  H51 UNL     1      10.978  47.242   7.494  1.00  0.00     0.178 HD
ENDBRANCH   2  56
BRANCH   3  59
HETATM   59  N6  UNL     1       9.570  49.989   6.042  1.00  0.00    -0.309 N 
HETATM   60  C6  UNL     1       8.743  49.996   7.134  1.00  0.00     0.219 C 
HETATM   61  C7  UNL     1       8.608  51.303   7.947  1.00  0.00     0.117 C 
HETATM   62  O1  UNL     1       8.048  49.093   7.608  1.00  0.00    -0.274 OA
ATOM     63  H6  UNL     1      10.050  50.868   5.850  1.00  0.00     0.170 HD
ENDBRANCH   3  59
TORSDOF 20
ENDMDL
MODEL 5
REMARK VINA RESULT: -8.070529506      5.286     10.147
REMARK  20 active torsions:
REMARK  status: ('A' for Active; 'I' for Inactive)
REMARK    1  A    between atoms: S1_2  and  C2_3 
REMARK    2  A    between atoms: C3_6  and  N2_7 
REMARK    3  A    between atoms: N2_7  and  N3_9 
REMARK    4  A    between atoms: N3_9  and  C4_11 
REMARK    5  A    between atoms: N4_12  and  N5_13 
REMARK    6  A    between atoms: C5_16  and  N6_17 
REMARK       I    between atoms: N6_17  and  C6_19 
REMARK    7  A    between atoms: N8_24  and  C9_25 
REMARK    8  A    between atoms: C10_27  and  C11_28 
REMARK    9  A    between atoms: C11_28  and  O3_29 
REMARK   10  A    between atoms: C12_31  and  N9_32 
REMARK   11  A    between atoms: N9_32  and  C13_34 
REMARK   12  A    between atoms: C14_37  and  N11_38 
REMARK   13  A    between atoms: N11_38  and  C15_39 
REMARK   14  A    between atoms: N11_38  and  C17_43 
REMARK   15  A    between atoms: C15_39  and  C16_40 
REMARK   16  A    between atoms: C16_40  and  O4_41 
REMARK   17  A    between atoms: C17_43  and  C18_44 
REMARK   18  A    between atoms: C18_44  and  O5_45 
REMARK   19  A    between atoms: C19_49  and  N13_50 
REMARK   20  A    between atoms: C20_58  and  N16_59 
ROOT
HETATM    1  C4  UNL     1       9.119  45.551  -4.942  1.00  0.00     0.727 A 
HETATM    2  N4  UNL     1       9.011  46.648  -4.181  1.00  0.00    -0.071 N 
HETATM    3  C5  UNL     1       8.906  46.296  -2.853  1.00  0.00     0.190 A 
HETATM    4  C8  UNL     1       8.951  44.935  -2.838  1.00  0.00     0.186 A 
HETATM    5  N7  UNL     1       8.899  44.061  -1.739  1.00  0.00    -0.078 NA
HETATM    6  N8  UNL     1       9.079  44.521  -4.130  1.00  0.00    -0.112 N 
ENDROOT
BRANCH   6   7
HETATM    7  C9  UNL     1       9.136  43.109  -4.516  1.00  0.00     0.398 C 
HETATM    8  O2  UNL     1      10.436  42.681  -4.325  1.00  0.00    -0.331 OA
HETATM    9  C10 UNL     1      10.832  41.953  -5.447  1.00  0.00     0.199 C 
HETATM   10  C12 UNL     1       9.633  41.860  -6.314  1.00  0.00     0.274 C 
HETATM   11  O6  UNL     1       8.880  42.967  -5.882  1.00  0.00    -0.315 OA
BRANCH   9  12
HETATM   12  C11 UNL     1      12.032  42.622  -6.090  1.00  0.00     0.200 C 
BRANCH  12  13
HETATM   13  O3  UNL     1      12.344  43.852  -5.535  1.00  0.00    -0.398 OA
ATOM     14  H3  UNL     1      12.097  44.589  -6.081  1.00  0.00     0.209 HD
ENDBRANCH  12  13
ENDBRANCH   9  12
BRANCH  10  15
HETATM   15  N9  UNL     1       8.876  40.659  -6.270  1.00  0.00    -0.196 N 
ATOM     16  H9  UNL     1       9.091  40.009  -5.514  1.00  0.00     0.180 HD
BRANCH  15  17
HETATM   17  C13 UNL     1       7.851  40.272  -7.171  1.00  0.00     0.709 A 
HETATM   18  N10 UNL     1       6.791  39.533  -6.719  1.00  0.00    -0.021 N 
HETATM   19  C14 UNL     1       5.780  39.133  -7.489  1.00  0.00     0.709 A 
ATOM     20  H10 UNL     1       6.774  39.274  -5.733  1.00  0.00     0.203 HD
HETATM   21  N12 UNL     1       5.845  39.503  -8.805  1.00  0.00    -0.022 N 
HETATM   22  C19 UNL     1       6.872  40.225  -9.267  1.00  0.00     0.705 A 
ATOM     23  H12 UNL     1       5.099  39.224  -9.443  1.00  0.00     0.203 HD
HETATM   24  N14 UNL     1       7.881  40.616  -8.461  1.00  0.00    -0.022 N 
ATOM     25  H14 UNL     1       8.655  41.167  -8.833  1.00  0.00     0.203 HD
BRANCH  19  26
HETATM   26  N11 UNL     1       4.670  38.372  -7.045  1.00  0.00    -0.213 N 
BRANCH  26  27
HETATM   27  C15 UNL     1       3.791  37.659  -7.954  1.00  0.00     0.167 C 
BRANCH  27  28
HETATM   28  C16 UNL     1       2.488  38.381  -8.204  1.00  0.00     0.184 C 
BRANCH  28  29
HETATM   29  O4  UNL     1       2.719  39.370  -9.159  1.00  0.00    -0.399 OA
ATOM     30  H4  UNL     1       2.602  40.215  -8.742  1.00  0.00     0.209 HD
ENDBRANCH  28  29
ENDBRANCH  27  28
ENDBRANCH  26  27
BRANCH  26  31
HETATM   31  C17 UNL     1       4.402  38.281  -5.641  1.00  0.00     0.167 C 
BRANCH  31  32
HETATM   32  C18 UNL     1       4.149  36.877  -5.146  1.00  0.00     0.184 C 
BRANCH  32  33
HETATM   33  O5  UNL     1       3.668  36.949  -3.844  1.00  0.00    -0.399 OA
ATOM     34  H5  UNL     1       2.962  36.321  -3.749  1.00  0.00     0.209 HD
ENDBRANCH  32  33
ENDBRANCH  31  32
ENDBRANCH  26  31
ENDBRANCH  19  26
BRANCH  22  35
HETATM   35  N13 UNL     1       6.915  40.560 -10.507  1.00  0.00    -0.234 N 
ATOM     36 2H13 UNL     1       7.777  40.969 -10.870  1.00  0.00     0.174 HD
ATOM     37 1H13 UNL     1       6.101  40.412 -11.103  1.00  0.00     0.174 HD
ENDBRANCH  22  35
ENDBRANCH  15  17
ENDBRANCH  10  15
ENDBRANCH   6   7
BRANCH   1  38
HETATM   38  N3  UNL     1       9.243  45.605  -6.247  1.00  0.00    -0.115 N 
ATOM     39  H3  UNL     1       8.387  45.782  -6.773  1.00  0.00     0.206 HD
BRANCH  38  40
HETATM   40  N2  UNL     1      10.369  45.456  -6.977  1.00  0.00    -0.117 N 
ATOM     41  H2  UNL     1      11.271  45.464  -6.501  1.00  0.00     0.206 HD
BRANCH  40  42
HETATM   42  C3  UNL     1      10.339  45.303  -8.257  1.00  0.00     0.713 A 
HETATM   43  N1  UNL     1      10.151  44.113  -8.862  1.00  0.00    -0.168 N 
HETATM   44  C2  UNL     1      10.132  44.044 -10.208  1.00  0.00     0.174 A 
ATOM     45  H1  UNL     1      10.023  43.269  -8.304  1.00  0.00     0.186 HD
HETATM   46  N17 UNL     1      10.305  45.179 -10.935  1.00  0.00    -0.170 N 
HETATM   47  C20 UNL     1      10.494  46.365 -10.346  1.00  0.00     0.692 A 
ATOM     48  H17 UNL     1      10.291  45.126 -11.953  1.00  0.00     0.186 HD
HETATM   49  N15 UNL     1      10.509  46.418  -9.013  1.00  0.00    -0.021 N 
ATOM     50  H15 UNL     1      10.651  47.317  -8.551  1.00  0.00     0.203 HD
BRANCH  44  51
HETATM   51  S1  UNL     1       9.889  42.523 -11.092  1.00  0.00    -0.097 SA
HETATM   52  C1  UNL     1      11.025  41.248 -10.514  1.00  0.00     0.099 C 
ENDBRANCH  44  51
BRANCH  47  53
HETATM   53  N16 UNL     1      10.654  47.422 -11.051  1.00  0.00    -0.234 N 
ATOM     54 2H16 UNL     1       9.857  48.014 -11.282  1.00  0.00     0.174 HD
ATOM     55 1H16 UNL     1      11.576  47.692 -11.393  1.00  0.00     0.174 HD
ENDBRANCH  47  53
ENDBRANCH  40  42
ENDBRANCH  38  40
ENDBRANCH   1  38
BRANCH   2  56
HETATM   56  N5  UNL     1       9.006  47.958  -4.638  1.00  0.00    -0.322 N 
ATOM     57  H52 UNL     1       8.742  48.229  -5.585  1.00  0.00     0.178 HD
ATOM     58  H51 UNL     1       9.256  48.782  -4.093  1.00  0.00     0.178 HD
ENDBRANCH   2  56
BRANCH   3  59
HETATM   59  N6  UNL     1       8.775  47.242  -1.817  1.00  0.00    -0.309 N 
HETATM   60  C6  UNL     1       9.537  47.401  -0.691  1.00  0.00     0.219 C 
HETATM   61  C7  UNL     1       9.163  48.528   0.299  1.00  0.00     0.117 C 
HETATM   62  O1  UNL     1      10.523  46.768  -0.305  1.00  0.00    -0.274 OA
ATOM     63  H6  UNL     1       8.003  47.901  -1.922  1.00  0.00     0.170 HD
ENDBRANCH   3  59
TORSDOF 20
ENDMDL
