MODEL 1
REMARK VINA RESULT: -8.158590304      0.000      0.000
REMARK  22 active torsions:
REMARK  status: ('A' for Active; 'I' for Inactive)
REMARK    1  A    between atoms: C2_2  and  O1_3 
REMARK    2  A    between atoms: O1_3  and  C3_4 
REMARK    3  A    between atoms: C3_4  and  C4_6 
REMARK    4  A    between atoms: C5_7  and  O3_8 
REMARK    5  A    between atoms: O3_8  and  C6_9 
REMARK    6  A    between atoms: C6_9  and  C7_10 
REMARK    7  A    between atoms: C7_10  and  O4_11 
REMARK    8  A    between atoms: C7_10  and  C8_13 
REMARK    9  A    between atoms: C8_13  and  O5_14 
REMARK   10  A    between atoms: C8_13  and  C9_16 
REMARK   11  A    between atoms: C9_16  and  O6_17 
REMARK   12  A    between atoms: C9_16  and  C10_19 
REMARK   13  A    between atoms: C10_19  and  C11_20 
REMARK   14  A    between atoms: C10_19  and  N1_23 
REMARK   15  A    between atoms: C11_20  and  O7_21 
REMARK   16  A    between atoms: C12_25  and  C13_26 
REMARK   17  A    between atoms: C13_26  and  O9_27 
REMARK   18  A    between atoms: C13_26  and  O10_29 
REMARK   19  A    between atoms: C17_35  and  N2_36 
REMARK   20  A    between atoms: N2_36  and  O12_38 
REMARK   21  A    between atoms: C20_45  and  N4_46 
REMARK   22  A    between atoms: C23_55  and  O14_56 
ROOT
HETATM    1  C4  UNL     1      10.200  43.271   4.219  1.00  0.00     0.094 A 
HETATM    2  C5  UNL     1      10.201  44.276   5.065  1.00  0.00     0.086 A 
HETATM    3  C16 UNL     1       9.018  44.159   5.937  1.00  0.00     0.068 A 
HETATM    4  C17 UNL     1       8.308  43.093   5.623  1.00  0.00     0.077 A 
HETATM    5  C18 UNL     1       9.015  42.435   4.490  1.00  0.00     0.179 A 
HETATM    6  O13 UNL     1       8.202  42.475   3.339  1.00  0.00    -0.294 OA
HETATM    7  C19 UNL     1       7.160  41.540   3.221  1.00  0.00     0.258 A 
HETATM    8  N3  UNL     1       5.906  41.571   2.736  1.00  0.00    -0.152 N 
ATOM      9  H3  UNL     1       5.430  42.370   2.317  1.00  0.00     0.188 HD
HETATM   10  C20 UNL     1       5.409  40.336   2.915  1.00  0.00     0.693 A 
HETATM   11  N5  UNL     1       6.352  39.581   3.497  1.00  0.00    -0.126 N 
ATOM     12  H5  UNL     1       6.253  38.599   3.751  1.00  0.00     0.206 HD
HETATM   13  N6  UNL     1       7.427  40.314   3.686  1.00  0.00    -0.220 N 
HETATM   14  C21 UNL     1       8.691  39.941   4.276  1.00  0.00     0.251 C 
HETATM   15  C22 UNL     1       8.490  38.897   5.303  1.00  0.00     0.089 C 
HETATM   16  N7  UNL     1       8.346  38.067   6.099  1.00  0.00    -0.195 NA
HETATM   17  C23 UNL     1       9.481  41.052   4.836  1.00  0.00     0.203 C 
ENDROOT
BRANCH  17  18
HETATM   18  O14 UNL     1       9.478  40.974   6.249  1.00  0.00    -0.389 OA
ATOM     19  H14 UNL     1       8.587  41.156   6.525  1.00  0.00     0.210 HD
ENDBRANCH  17  18
BRANCH  10  20
HETATM   20  N4  UNL     1       4.202  39.959   2.569  1.00  0.00    -0.233 N 
ATOM     21  H42 UNL     1       3.407  40.563   2.365  1.00  0.00     0.174 HD
ATOM     22  H41 UNL     1       3.905  38.989   2.460  1.00  0.00     0.174 HD
ENDBRANCH  10  20
BRANCH   1  23
HETATM   23  C3  UNL     1      11.184  43.010   3.193  1.00  0.00     0.295 C 
HETATM   24  O2  UNL     1      12.393  43.387   3.288  1.00  0.00    -0.259 OA
BRANCH  23  25
HETATM   25  O1  UNL     1      10.859  42.325   2.027  1.00  0.00    -0.318 OA
BRANCH  25  26
HETATM   26  C2  UNL     1      11.408  41.033   1.765  1.00  0.00     0.174 C 
HETATM   27  C1  UNL     1      10.418  40.226   0.984  1.00  0.00     0.034 C 
ENDBRANCH  25  26
ENDBRANCH  23  25
ENDBRANCH   1  23
BRANCH   4  28
HETATM   28  N2  UNL     1       7.107  42.676   6.258  1.00  0.00    -0.270 N 
ATOM     29  H2  UNL     1       6.214  42.909   5.825  1.00  0.00     0.194 HD
BRANCH  28  30
HETATM   30  O12 UNL     1       7.109  41.974   7.429  1.00  0.00    -0.290 OA
ATOM     31  H12 UNL     1       6.315  41.819   7.928  1.00  0.00     0.244 HD
ENDBRANCH  28  30
ENDBRANCH   4  28
BRANCH   2  32
HETATM   32  O3  UNL     1      11.166  45.284   5.120  1.00  0.00    -0.348 OA
BRANCH  32  33
HETATM   33  C6  UNL     1      10.738  46.654   5.184  1.00  0.00     0.210 C 
BRANCH  33  34
HETATM   34  C7  UNL     1       9.817  46.894   4.009  1.00  0.00     0.173 C 
BRANCH  34  35
HETATM   35  O4  UNL     1       8.857  47.826   4.309  1.00  0.00    -0.391 OA
ATOM     36  H4  UNL     1       8.622  48.337   3.544  1.00  0.00     0.210 HD
ENDBRANCH  34  35
BRANCH  34  37
HETATM   37  C8  UNL     1      10.559  47.163   2.742  1.00  0.00     0.179 C 
BRANCH  37  38
HETATM   38  O5  UNL     1      10.865  45.993   2.093  1.00  0.00    -0.390 OA
ATOM     39  H5  UNL     1      10.538  46.004   1.201  1.00  0.00     0.210 HD
ENDBRANCH  37  38
BRANCH  37  40
HETATM   40  C9  UNL     1       9.884  48.204   1.882  1.00  0.00     0.177 C 
BRANCH  40  41
HETATM   41  O6  UNL     1       8.593  47.761   1.611  1.00  0.00    -0.391 OA
ATOM     42  H6  UNL     1       8.114  47.738   2.431  1.00  0.00     0.210 HD
ENDBRANCH  40  41
BRANCH  40  43
HETATM   43  C10 UNL     1      10.603  48.493   0.602  1.00  0.00     0.173 C 
BRANCH  43  44
HETATM   44  C11 UNL     1      10.977  49.955   0.501  1.00  0.00     0.194 C 
BRANCH  44  45
HETATM   45  O7  UNL     1      11.825  50.276  -0.520  1.00  0.00    -0.399 OA
ATOM     46  H7  UNL     1      11.522  50.962  -1.104  1.00  0.00     0.209 HD
ENDBRANCH  44  45
ENDBRANCH  43  44
BRANCH  43  47
HETATM   47  N1  UNL     1       9.996  47.947  -0.561  1.00  0.00    -0.207 N 
HETATM   48  O8  UNL     1      10.128  46.671  -0.896  1.00  0.00    -0.231 OA
HETATM   49  C12 UNL     1       9.505  46.423  -1.996  1.00  0.00     0.136 A 
HETATM   50  C14 UNL     1       8.916  47.587  -2.436  1.00  0.00     0.116 A 
HETATM   51  C15 UNL     1       9.255  48.548  -1.486  1.00  0.00     0.270 A 
HETATM   52  O11 UNL     1       8.907  49.728  -1.536  1.00  0.00    -0.266 OA
BRANCH  49  53
HETATM   53  C13 UNL     1       9.458  45.076  -2.645  1.00  0.00     0.315 C 
BRANCH  53  54
HETATM   54  O9  UNL     1       8.917  44.205  -1.689  1.00  0.00    -0.365 OA
ATOM     55  H9  UNL     1       8.170  44.658  -1.315  1.00  0.00     0.213 HD
ENDBRANCH  53  54
BRANCH  53  56
HETATM   56  O10 UNL     1      10.699  44.674  -3.087  1.00  0.00    -0.365 OA
ATOM     57  H10 UNL     1      11.332  44.632  -2.380  1.00  0.00     0.213 HD
ENDBRANCH  53  56
ENDBRANCH  49  53
ENDBRANCH  43  47
ENDBRANCH  40  43
ENDBRANCH  37  40
ENDBRANCH  34  37
ENDBRANCH  33  34
ENDBRANCH  32  33
ENDBRANCH   2  32
TORSDOF 22
ENDMDL
MODEL 2
REMARK VINA RESULT: -8.081501397      4.502      8.743
REMARK  22 active torsions:
REMARK  status: ('A' for Active; 'I' for Inactive)
REMARK    1  A    between atoms: C2_2  and  O1_3 
REMARK    2  A    between atoms: O1_3  and  C3_4 
REMARK    3  A    between atoms: C3_4  and  C4_6 
REMARK    4  A    between atoms: C5_7  and  O3_8 
REMARK    5  A    between atoms: O3_8  and  C6_9 
REMARK    6  A    between atoms: C6_9  and  C7_10 
REMARK    7  A    between atoms: C7_10  and  O4_11 
REMARK    8  A    between atoms: C7_10  and  C8_13 
REMARK    9  A    between atoms: C8_13  and  O5_14 
REMARK   10  A    between atoms: C8_13  and  C9_16 
REMARK   11  A    between atoms: C9_16  and  O6_17 
REMARK   12  A    between atoms: C9_16  and  C10_19 
REMARK   13  A    between atoms: C10_19  and  C11_20 
REMARK   14  A    between atoms: C10_19  and  N1_23 
REMARK   15  A    between atoms: C11_20  and  O7_21 
REMARK   16  A    between atoms: C12_25  and  C13_26 
REMARK   17  A    between atoms: C13_26  and  O9_27 
REMARK   18  A    between atoms: C13_26  and  O10_29 
REMARK   19  A    between atoms: C17_35  and  N2_36 
REMARK   20  A    between atoms: N2_36  and  O12_38 
REMARK   21  A    between atoms: C20_45  and  N4_46 
REMARK   22  A    between atoms: C23_55  and  O14_56 
ROOT
HETATM    1  C4  UNL     1       9.557  44.015  -3.445  1.00  0.00     0.094 A 
HETATM    2  C5  UNL     1       8.940  45.173  -3.378  1.00  0.00     0.086 A 
HETATM    3  C16 UNL     1       8.964  45.797  -4.713  1.00  0.00     0.068 A 
HETATM    4  C17 UNL     1       9.589  45.025  -5.581  1.00  0.00     0.077 A 
HETATM    5  C18 UNL     1      10.021  43.813  -4.831  1.00  0.00     0.179 A 
HETATM    6  O13 UNL     1      11.429  43.755  -4.798  1.00  0.00    -0.294 OA
HETATM    7  C19 UNL     1      12.107  43.284  -5.934  1.00  0.00     0.258 A 
HETATM    8  N3  UNL     1      13.257  43.604  -6.554  1.00  0.00    -0.152 N 
ATOM      9  H3  UNL     1      13.920  44.329  -6.282  1.00  0.00     0.188 HD
HETATM   10  C20 UNL     1      13.353  42.774  -7.606  1.00  0.00     0.693 A 
HETATM   11  N5  UNL     1      12.278  41.972  -7.611  1.00  0.00    -0.126 N 
ATOM     12  H5  UNL     1      12.086  41.241  -8.296  1.00  0.00     0.206 HD
HETATM   13  N6  UNL     1      11.512  42.280  -6.588  1.00  0.00    -0.220 N 
HETATM   14  C21 UNL     1      10.256  41.694  -6.183  1.00  0.00     0.251 C 
HETATM   15  C22 UNL     1       9.511  41.209  -7.363  1.00  0.00     0.089 C 
HETATM   16  N7  UNL     1       8.926  40.810  -8.279  1.00  0.00    -0.195 NA
HETATM   17  C23 UNL     1       9.391  42.561  -5.362  1.00  0.00     0.203 C 
ENDROOT
BRANCH  17  18
HETATM   18  O14 UNL     1       8.269  42.971  -6.122  1.00  0.00    -0.389 OA
ATOM     19  H14 UNL     1       8.470  42.764  -7.028  1.00  0.00     0.210 HD
ENDBRANCH  17  18
BRANCH  10  20
HETATM   20  N4  UNL     1      14.342  42.769  -8.467  1.00  0.00    -0.233 N 
ATOM     21  H42 UNL     1      15.332  42.904  -8.263  1.00  0.00     0.174 HD
ATOM     22  H41 UNL     1      14.238  42.627  -9.472  1.00  0.00     0.174 HD
ENDBRANCH  10  20
BRANCH   1  23
HETATM   23  C3  UNL     1       9.756  43.084  -2.358  1.00  0.00     0.295 C 
HETATM   24  O2  UNL     1       8.939  42.968  -1.393  1.00  0.00    -0.259 OA
BRANCH  23  25
HETATM   25  O1  UNL     1      10.870  42.252  -2.304  1.00  0.00    -0.318 OA
BRANCH  25  26
HETATM   26  C2  UNL     1      10.727  40.836  -2.411  1.00  0.00     0.174 C 
HETATM   27  C1  UNL     1      11.868  40.283  -3.207  1.00  0.00     0.034 C 
ENDBRANCH  25  26
ENDBRANCH  23  25
ENDBRANCH   1  23
BRANCH   4  28
HETATM   28  N2  UNL     1       9.795  45.315  -6.957  1.00  0.00    -0.270 N 
ATOM     29  H2  UNL     1       8.989  45.341  -7.581  1.00  0.00     0.194 HD
BRANCH  28  30
HETATM   30  O12 UNL     1      11.036  45.558  -7.471  1.00  0.00    -0.290 OA
ATOM     31  H12 UNL     1      11.176  46.161  -8.192  1.00  0.00     0.244 HD
ENDBRANCH  28  30
ENDBRANCH   4  28
BRANCH   2  32
HETATM   32  O3  UNL     1       8.361  45.715  -2.229  1.00  0.00    -0.348 OA
BRANCH  32  33
HETATM   33  C6  UNL     1       8.357  47.141  -2.058  1.00  0.00     0.210 C 
BRANCH  33  34
HETATM   34  C7  UNL     1       9.120  47.445  -0.788  1.00  0.00     0.173 C 
BRANCH  34  35
HETATM   35  O4  UNL     1      10.026  46.458  -0.502  1.00  0.00    -0.391 OA
ATOM     36  H4  UNL     1       9.659  45.596  -0.657  1.00  0.00     0.210 HD
ENDBRANCH  34  35
BRANCH  34  37
HETATM   37  C8  UNL     1       9.690  48.825  -0.775  1.00  0.00     0.179 C 
BRANCH  37  38
HETATM   38  O5  UNL     1       9.258  49.545  -1.861  1.00  0.00    -0.390 OA
ATOM     39  H5  UNL     1       9.468  50.466  -1.763  1.00  0.00     0.210 HD
ENDBRANCH  37  38
BRANCH  37  40
HETATM   40  C9  UNL     1       9.509  49.517   0.554  1.00  0.00     0.177 C 
BRANCH  40  41
HETATM   41  O6  UNL     1       9.237  50.858   0.304  1.00  0.00    -0.391 OA
ATOM     42  H6  UNL     1       8.586  51.146   0.933  1.00  0.00     0.210 HD
ENDBRANCH  40  41
BRANCH  40  43
HETATM   43  C10 UNL     1      10.690  49.398   1.465  1.00  0.00     0.173 C 
BRANCH  43  44
HETATM   44  C11 UNL     1      11.966  49.179   0.683  1.00  0.00     0.194 C 
BRANCH  44  45
HETATM   45  O7  UNL     1      12.587  47.982   0.893  1.00  0.00    -0.399 OA
ATOM     46  H7  UNL     1      12.675  47.426   0.128  1.00  0.00     0.209 HD
ENDBRANCH  44  45
ENDBRANCH  43  44
BRANCH  43  47
HETATM   47  N1  UNL     1      10.508  48.524   2.571  1.00  0.00    -0.207 N 
HETATM   48  O8  UNL     1      10.568  47.205   2.447  1.00  0.00    -0.231 OA
HETATM   49  C12 UNL     1      10.352  46.632   3.581  1.00  0.00     0.136 A 
HETATM   50  C14 UNL     1      10.134  47.607   4.528  1.00  0.00     0.116 A 
HETATM   51  C15 UNL     1      10.242  48.814   3.840  1.00  0.00     0.270 A 
HETATM   52  O11 UNL     1      10.108  49.924   4.357  1.00  0.00    -0.266 OA
BRANCH  49  53
HETATM   53  C13 UNL     1      10.351  45.150   3.782  1.00  0.00     0.315 C 
BRANCH  53  54
HETATM   54  O9  UNL     1      10.613  44.589   2.525  1.00  0.00    -0.365 OA
ATOM     55  H9  UNL     1       9.790  44.611   2.051  1.00  0.00     0.213 HD
ENDBRANCH  53  54
BRANCH  53  56
HETATM   56  O10 UNL     1       9.166  44.705   4.326  1.00  0.00    -0.365 OA
ATOM     57  H10 UNL     1       8.896  45.233   5.069  1.00  0.00     0.213 HD
ENDBRANCH  53  56
ENDBRANCH  49  53
ENDBRANCH  43  47
ENDBRANCH  40  43
ENDBRANCH  37  40
ENDBRANCH  34  37
ENDBRANCH  33  34
ENDBRANCH  32  33
ENDBRANCH   2  32
TORSDOF 22
ENDMDL
MODEL 3
REMARK VINA RESULT: -7.881807785      4.679      8.853
REMARK  22 active torsions:
REMARK  status: ('A' for Active; 'I' for Inactive)
REMARK    1  A    between atoms: C2_2  and  O1_3 
REMARK    2  A    between atoms: O1_3  and  C3_4 
REMARK    3  A    between atoms: C3_4  and  C4_6 
REMARK    4  A    between atoms: C5_7  and  O3_8 
REMARK    5  A    between atoms: O3_8  and  C6_9 
REMARK    6  A    between atoms: C6_9  and  C7_10 
REMARK    7  A    between atoms: C7_10  and  O4_11 
REMARK    8  A    between atoms: C7_10  and  C8_13 
REMARK    9  A    between atoms: C8_13  and  O5_14 
REMARK   10  A    between atoms: C8_13  and  C9_16 
REMARK   11  A    between atoms: C9_16  and  O6_17 
REMARK   12  A    between atoms: C9_16  and  C10_19 
REMARK   13  A    between atoms: C10_19  and  C11_20 
REMARK   14  A    between atoms: C10_19  and  N1_23 
REMARK   15  A    between atoms: C11_20  and  O7_21 
REMARK   16  A    between atoms: C12_25  and  C13_26 
REMARK   17  A    between atoms: C13_26  and  O9_27 
REMARK   18  A    between atoms: C13_26  and  O10_29 
REMARK   19  A    between atoms: C17_35  and  N2_36 
REMARK   20  A    between atoms: N2_36  and  O12_38 
REMARK   21  A    between atoms: C20_45  and  N4_46 
REMARK   22  A    between atoms: C23_55  and  O14_56 
ROOT
HETATM    1  C4  UNL     1      11.104  44.243  -4.317  1.00  0.00     0.094 A 
HETATM    2  C5  UNL     1      10.320  45.179  -3.834  1.00  0.00     0.086 A 
HETATM    3  C16 UNL     1       9.106  45.254  -4.667  1.00  0.00     0.068 A 
HETATM    4  C17 UNL     1       9.155  44.371  -5.646  1.00  0.00     0.077 A 
HETATM    5  C18 UNL     1      10.448  43.648  -5.497  1.00  0.00     0.179 A 
HETATM    6  O13 UNL     1      11.269  43.915  -6.612  1.00  0.00    -0.294 OA
HETATM    7  C19 UNL     1      11.026  43.215  -7.806  1.00  0.00     0.258 A 
HETATM    8  N3  UNL     1      11.073  43.525  -9.114  1.00  0.00    -0.152 N 
ATOM      9  H3  UNL     1      11.323  44.425  -9.523  1.00  0.00     0.188 HD
HETATM   10  C20 UNL     1      10.724  42.407  -9.772  1.00  0.00     0.693 A 
HETATM   11  N5  UNL     1      10.473  41.447  -8.870  1.00  0.00    -0.126 N 
ATOM     12  H5  UNL     1      10.187  40.492  -9.084  1.00  0.00     0.206 HD
HETATM   13  N6  UNL     1      10.657  41.937  -7.664  1.00  0.00    -0.220 N 
HETATM   14  C21 UNL     1      10.509  41.286  -6.384  1.00  0.00     0.251 C 
HETATM   15  C22 UNL     1       9.459  40.248  -6.454  1.00  0.00     0.089 C 
HETATM   16  N7  UNL     1       8.649  39.422  -6.502  1.00  0.00    -0.195 NA
HETATM   17  C23 UNL     1      10.255  42.183  -5.243  1.00  0.00     0.203 C 
ENDROOT
BRANCH  17  18
HETATM   18  O14 UNL     1       8.918  42.029  -4.804  1.00  0.00    -0.389 OA
ATOM     19  H14 UNL     1       8.368  42.372  -5.498  1.00  0.00     0.210 HD
ENDBRANCH  17  18
BRANCH  10  20
HETATM   20  N4  UNL     1      10.649  42.300 -11.076  1.00  0.00    -0.233 N 
ATOM     21  H42 UNL     1      11.069  42.922 -11.766  1.00  0.00     0.174 HD
ATOM     22  H41 UNL     1      10.149  41.562 -11.572  1.00  0.00     0.174 HD
ENDBRANCH  10  20
BRANCH   1  23
HETATM   23  C3  UNL     1      12.392  43.848  -3.795  1.00  0.00     0.295 C 
HETATM   24  O2  UNL     1      13.480  44.385  -4.168  1.00  0.00    -0.259 OA
BRANCH  23  25
HETATM   25  O1  UNL     1      12.517  42.841  -2.843  1.00  0.00    -0.318 OA
BRANCH  25  26
HETATM   26  C2  UNL     1      13.623  41.940  -2.876  1.00  0.00     0.174 C 
HETATM   27  C1  UNL     1      13.777  41.297  -1.532  1.00  0.00     0.034 C 
ENDBRANCH  25  26
ENDBRANCH  23  25
ENDBRANCH   1  23
BRANCH   4  28
HETATM   28  N2  UNL     1       8.155  44.169  -6.636  1.00  0.00    -0.270 N 
ATOM     29  H2  UNL     1       7.245  43.806  -6.350  1.00  0.00     0.194 HD
BRANCH  28  30
HETATM   30  O12 UNL     1       8.371  44.442  -7.955  1.00  0.00    -0.290 OA
ATOM     31  H12 UNL     1       7.878  45.107  -8.422  1.00  0.00     0.244 HD
ENDBRANCH  28  30
ENDBRANCH   4  28
BRANCH   2  32
HETATM   32  O3  UNL     1      10.597  45.968  -2.715  1.00  0.00    -0.348 OA
BRANCH  32  33
HETATM   33  C6  UNL     1       9.506  46.439  -1.907  1.00  0.00     0.210 C 
BRANCH  33  34
HETATM   34  C7  UNL     1       9.394  47.931  -2.127  1.00  0.00     0.173 C 
BRANCH  34  35
HETATM   35  O4  UNL     1       8.199  48.261  -2.710  1.00  0.00    -0.391 OA
ATOM     36  H4  UNL     1       7.565  48.546  -2.062  1.00  0.00     0.210 HD
ENDBRANCH  34  35
BRANCH  34  37
HETATM   37  C8  UNL     1       9.717  48.718  -0.900  1.00  0.00     0.179 C 
BRANCH  37  38
HETATM   38  O5  UNL     1       9.098  49.942  -0.925  1.00  0.00    -0.390 OA
ATOM     39  H5  UNL     1       8.644  50.111  -0.107  1.00  0.00     0.210 HD
ENDBRANCH  37  38
BRANCH  37  40
HETATM   40  C9  UNL     1       9.505  47.929   0.370  1.00  0.00     0.177 C 
BRANCH  40  41
HETATM   41  O6  UNL     1       8.198  48.143   0.792  1.00  0.00    -0.391 OA
ATOM     42  H6  UNL     1       7.893  47.347   1.213  1.00  0.00     0.210 HD
ENDBRANCH  40  41
BRANCH  40  43
HETATM   43  C10 UNL     1      10.459  48.281   1.468  1.00  0.00     0.173 C 
BRANCH  43  44
HETATM   44  C11 UNL     1      11.758  48.822   0.912  1.00  0.00     0.194 C 
BRANCH  44  45
HETATM   45  O7  UNL     1      12.783  47.923   0.831  1.00  0.00    -0.399 OA
ATOM     46  H7  UNL     1      13.259  47.770   1.638  1.00  0.00     0.209 HD
ENDBRANCH  44  45
ENDBRANCH  43  44
BRANCH  43  47
HETATM   47  N1  UNL     1      10.605  47.289   2.474  1.00  0.00    -0.207 N 
HETATM   48  O8  UNL     1      10.739  46.002   2.186  1.00  0.00    -0.231 OA
HETATM   49  C12 UNL     1      10.834  45.302   3.263  1.00  0.00     0.136 A 
HETATM   50  C14 UNL     1      10.764  46.152   4.344  1.00  0.00     0.116 A 
HETATM   51  C15 UNL     1      10.616  47.425   3.796  1.00  0.00     0.270 A 
HETATM   52  O11 UNL     1      10.518  48.459   4.458  1.00  0.00    -0.266 OA
BRANCH  49  53
HETATM   53  C13 UNL     1      10.996  43.815   3.283  1.00  0.00     0.315 C 
BRANCH  53  54
HETATM   54  O9  UNL     1      12.375  43.575   3.213  1.00  0.00    -0.365 OA
ATOM     55  H9  UNL     1      12.663  43.436   4.108  1.00  0.00     0.213 HD
ENDBRANCH  53  54
BRANCH  53  56
HETATM   56  O10 UNL     1      10.298  43.208   2.262  1.00  0.00    -0.365 OA
ATOM     57  H10 UNL     1      10.524  42.289   2.174  1.00  0.00     0.213 HD
ENDBRANCH  53  56
ENDBRANCH  49  53
ENDBRANCH  43  47
ENDBRANCH  40  43
ENDBRANCH  37  40
ENDBRANCH  34  37
ENDBRANCH  33  34
ENDBRANCH  32  33
ENDBRANCH   2  32
TORSDOF 22
ENDMDL
MODEL 4
REMARK VINA RESULT: -7.816862554      5.073      9.047
REMARK  22 active torsions:
REMARK  status: ('A' for Active; 'I' for Inactive)
REMARK    1  A    between atoms: C2_2  and  O1_3 
REMARK    2  A    between atoms: O1_3  and  C3_4 
REMARK    3  A    between atoms: C3_4  and  C4_6 
REMARK    4  A    between atoms: C5_7  and  O3_8 
REMARK    5  A    between atoms: O3_8  and  C6_9 
REMARK    6  A    between atoms: C6_9  and  C7_10 
REMARK    7  A    between atoms: C7_10  and  O4_11 
REMARK    8  A    between atoms: C7_10  and  C8_13 
REMARK    9  A    between atoms: C8_13  and  O5_14 
REMARK   10  A    between atoms: C8_13  and  C9_16 
REMARK   11  A    between atoms: C9_16  and  O6_17 
REMARK   12  A    between atoms: C9_16  and  C10_19 
REMARK   13  A    between atoms: C10_19  and  C11_20 
REMARK   14  A    between atoms: C10_19  and  N1_23 
REMARK   15  A    between atoms: C11_20  and  O7_21 
REMARK   16  A    between atoms: C12_25  and  C13_26 
REMARK   17  A    between atoms: C13_26  and  O9_27 
REMARK   18  A    between atoms: C13_26  and  O10_29 
REMARK   19  A    between atoms: C17_35  and  N2_36 
REMARK   20  A    between atoms: N2_36  and  O12_38 
REMARK   21  A    between atoms: C20_45  and  N4_46 
REMARK   22  A    between atoms: C23_55  and  O14_56 
ROOT
HETATM    1  C4  UNL     1       9.517  44.128  -3.519  1.00  0.00     0.094 A 
HETATM    2  C5  UNL     1       8.997  45.334  -3.546  1.00  0.00     0.086 A 
HETATM    3  C16 UNL     1       9.140  45.878  -4.908  1.00  0.00     0.068 A 
HETATM    4  C17 UNL     1       9.740  45.011  -5.699  1.00  0.00     0.077 A 
HETATM    5  C18 UNL     1      10.031  43.811  -4.866  1.00  0.00     0.179 A 
HETATM    6  O13 UNL     1      11.426  43.641  -4.753  1.00  0.00    -0.294 OA
HETATM    7  C19 UNL     1      12.117  43.052  -5.824  1.00  0.00     0.258 A 
HETATM    8  N3  UNL     1      13.319  43.242  -6.397  1.00  0.00    -0.152 N 
ATOM      9  H3  UNL     1      14.027  43.925  -6.127  1.00  0.00     0.188 HD
HETATM   10  C20 UNL     1      13.398  42.350  -7.398  1.00  0.00     0.693 A 
HETATM   11  N5  UNL     1      12.261  41.639  -7.420  1.00  0.00    -0.126 N 
ATOM     12  H5  UNL     1      12.042  40.889  -8.076  1.00  0.00     0.206 HD
HETATM   13  N6  UNL     1      11.473  42.065  -6.457  1.00  0.00    -0.220 N 
HETATM   14  C21 UNL     1      10.153  41.608  -6.091  1.00  0.00     0.251 C 
HETATM   15  C22 UNL     1       9.430  41.119  -7.284  1.00  0.00     0.089 C 
HETATM   16  N7  UNL     1       8.859  40.719  -8.209  1.00  0.00    -0.195 NA
HETATM   17  C23 UNL     1       9.324  42.587  -5.365  1.00  0.00     0.203 C 
ENDROOT
BRANCH  17  18
HETATM   18  O14 UNL     1       8.281  43.044  -6.205  1.00  0.00    -0.389 OA
ATOM     19  H14 UNL     1       8.700  43.468  -6.945  1.00  0.00     0.210 HD
ENDBRANCH  17  18
BRANCH  10  20
HETATM   20  N4  UNL     1      14.424  42.216  -8.202  1.00  0.00    -0.233 N 
ATOM     21  H42 UNL     1      15.098  42.937  -8.459  1.00  0.00     0.174 HD
ATOM     22  H41 UNL     1      14.680  41.352  -8.681  1.00  0.00     0.174 HD
ENDBRANCH  10  20
BRANCH   1  23
HETATM   23  C3  UNL     1       9.582  43.246  -2.376  1.00  0.00     0.295 C 
HETATM   24  O2  UNL     1       8.930  43.455  -1.307  1.00  0.00    -0.259 OA
BRANCH  23  25
HETATM   25  O1  UNL     1      10.374  42.103  -2.380  1.00  0.00    -0.318 OA
BRANCH  25  26
HETATM   26  C2  UNL     1       9.934  40.908  -1.735  1.00  0.00     0.174 C 
HETATM   27  C1  UNL     1       8.947  40.207  -2.615  1.00  0.00     0.034 C 
ENDBRANCH  25  26
ENDBRANCH  23  25
ENDBRANCH   1  23
BRANCH   4  28
HETATM   28  N2  UNL     1      10.039  45.205  -7.075  1.00  0.00    -0.270 N 
ATOM     29  H2  UNL     1       9.272  45.231  -7.747  1.00  0.00     0.194 HD
BRANCH  28  30
HETATM   30  O12 UNL     1      11.318  45.357  -7.527  1.00  0.00    -0.290 OA
ATOM     31  H12 UNL     1      11.610  46.150  -7.963  1.00  0.00     0.244 HD
ENDBRANCH  28  30
ENDBRANCH   4  28
BRANCH   2  32
HETATM   32  O3  UNL     1       8.410  45.985  -2.459  1.00  0.00    -0.348 OA
BRANCH  32  33
HETATM   33  C6  UNL     1       8.699  47.375  -2.241  1.00  0.00     0.210 C 
BRANCH  33  34
HETATM   34  C7  UNL     1       9.256  47.505  -0.842  1.00  0.00     0.173 C 
BRANCH  34  35
HETATM   35  O4  UNL     1      10.015  46.415  -0.504  1.00  0.00    -0.391 OA
ATOM     36  H4  UNL     1       9.571  45.604  -0.721  1.00  0.00     0.210 HD
ENDBRANCH  34  35
BRANCH  34  37
HETATM   37  C8  UNL     1       9.930  48.817  -0.610  1.00  0.00     0.179 C 
BRANCH  37  38
HETATM   38  O5  UNL     1       9.876  49.603  -1.735  1.00  0.00    -0.390 OA
ATOM     39  H5  UNL     1       9.584  50.482  -1.522  1.00  0.00     0.210 HD
ENDBRANCH  37  38
BRANCH  37  40
HETATM   40  C9  UNL     1       9.464  49.495   0.656  1.00  0.00     0.177 C 
BRANCH  40  41
HETATM   41  O6  UNL     1       9.122  50.805   0.338  1.00  0.00    -0.391 OA
ATOM     42  H6  UNL     1       9.439  51.367   1.036  1.00  0.00     0.210 HD
ENDBRANCH  40  41
BRANCH  40  43
HETATM   43  C10 UNL     1      10.479  49.486   1.756  1.00  0.00     0.173 C 
BRANCH  43  44
HETATM   44  C11 UNL     1      11.806  48.944   1.273  1.00  0.00     0.194 C 
BRANCH  44  45
HETATM   45  O7  UNL     1      11.992  47.602   1.449  1.00  0.00    -0.399 OA
ATOM     46  H7  UNL     1      11.222  47.112   1.710  1.00  0.00     0.209 HD
ENDBRANCH  44  45
ENDBRANCH  43  44
BRANCH  43  47
HETATM   47  N1  UNL     1      10.022  48.944   2.987  1.00  0.00    -0.207 N 
HETATM   48  O8  UNL     1       9.877  49.686   4.076  1.00  0.00    -0.231 OA
HETATM   49  C12 UNL     1       9.470  48.967   5.065  1.00  0.00     0.136 A 
HETATM   50  C14 UNL     1       9.329  47.668   4.632  1.00  0.00     0.116 A 
HETATM   51  C15 UNL     1       9.694  47.692   3.287  1.00  0.00     0.270 A 
HETATM   52  O11 UNL     1       9.695  46.705   2.550  1.00  0.00    -0.266 OA
BRANCH  49  53
HETATM   53  C13 UNL     1       9.208  49.503   6.437  1.00  0.00     0.315 C 
BRANCH  53  54
HETATM   54  O9  UNL     1       9.699  50.815   6.439  1.00  0.00    -0.365 OA
ATOM     55  H9  UNL     1      10.606  50.757   6.160  1.00  0.00     0.213 HD
ENDBRANCH  53  54
BRANCH  53  56
HETATM   56  O10 UNL     1       9.781  48.719   7.414  1.00  0.00    -0.365 OA
ATOM     57  H10 UNL     1       9.143  48.156   7.838  1.00  0.00     0.213 HD
ENDBRANCH  53  56
ENDBRANCH  49  53
ENDBRANCH  43  47
ENDBRANCH  40  43
ENDBRANCH  37  40
ENDBRANCH  34  37
ENDBRANCH  33  34
ENDBRANCH  32  33
ENDBRANCH   2  32
TORSDOF 22
ENDMDL
MODEL 5
REMARK VINA RESULT: -7.740044449      1.318      1.591
REMARK  22 active torsions:
REMARK  status: ('A' for Active; 'I' for Inactive)
REMARK    1  A    between atoms: C2_2  and  O1_3 
REMARK    2  A    between atoms: O1_3  and  C3_4 
REMARK    3  A    between atoms: C3_4  and  C4_6 
REMARK    4  A    between atoms: C5_7  and  O3_8 
REMARK    5  A    between atoms: O3_8  and  C6_9 
REMARK    6  A    between atoms: C6_9  and  C7_10 
REMARK    7  A    between atoms: C7_10  and  O4_11 
REMARK    8  A    between atoms: C7_10  and  C8_13 
REMARK    9  A    between atoms: C8_13  and  O5_14 
REMARK   10  A    between atoms: C8_13  and  C9_16 
REMARK   11  A    between atoms: C9_16  and  O6_17 
REMARK   12  A    between atoms: C9_16  and  C10_19 
REMARK   13  A    between atoms: C10_19  and  C11_20 
REMARK   14  A    between atoms: C10_19  and  N1_23 
REMARK   15  A    between atoms: C11_20  and  O7_21 
REMARK   16  A    between atoms: C12_25  and  C13_26 
REMARK   17  A    between atoms: C13_26  and  O9_27 
REMARK   18  A    between atoms: C13_26  and  O10_29 
REMARK   19  A    between atoms: C17_35  and  N2_36 
REMARK   20  A    between atoms: N2_36  and  O12_38 
REMARK   21  A    between atoms: C20_45  and  N4_46 
REMARK   22  A    between atoms: C23_55  and  O14_56 
ROOT
HETATM    1  C4  UNL     1       9.896  43.470   4.305  1.00  0.00     0.094 A 
HETATM    2  C5  UNL     1       9.902  44.103   5.456  1.00  0.00     0.086 A 
HETATM    3  C16 UNL     1       8.899  43.483   6.341  1.00  0.00     0.068 A 
HETATM    4  C17 UNL     1       8.292  42.484   5.732  1.00  0.00     0.077 A 
HETATM    5  C18 UNL     1       8.887  42.395   4.370  1.00  0.00     0.179 A 
HETATM    6  O13 UNL     1       7.902  42.686   3.404  1.00  0.00    -0.294 OA
HETATM    7  C19 UNL     1       6.985  41.680   3.058  1.00  0.00     0.258 A 
HETATM    8  N3  UNL     1       5.677  41.654   2.750  1.00  0.00    -0.152 N 
ATOM      9  H3  UNL     1       5.041  42.449   2.705  1.00  0.00     0.188 HD
HETATM   10  C20 UNL     1       5.378  40.366   2.513  1.00  0.00     0.693 A 
HETATM   11  N5  UNL     1       6.492  39.637   2.677  1.00  0.00    -0.126 N 
ATOM     12  H5  UNL     1       6.562  38.626   2.561  1.00  0.00     0.206 HD
HETATM   13  N6  UNL     1       7.479  40.437   3.011  1.00  0.00    -0.220 N 
HETATM   14  C21 UNL     1       8.859  40.114   3.290  1.00  0.00     0.251 C 
HETATM   15  C22 UNL     1       8.961  38.761   3.876  1.00  0.00     0.089 C 
HETATM   16  N7  UNL     1       9.054  37.696   4.321  1.00  0.00    -0.195 NA
HETATM   17  C23 UNL     1       9.577  41.085   4.135  1.00  0.00     0.203 C 
ENDROOT
BRANCH  17  18
HETATM   18  O14 UNL     1       9.811  40.523   5.413  1.00  0.00    -0.389 OA
ATOM     19  H14 UNL     1      10.643  40.872   5.710  1.00  0.00     0.210 HD
ENDBRANCH  17  18
BRANCH  10  20
HETATM   20  N4  UNL     1       4.190  39.923   2.178  1.00  0.00    -0.233 N 
ATOM     21  H42 UNL     1       3.935  39.452   1.310  1.00  0.00     0.174 HD
ATOM     22  H41 UNL     1       3.356  39.997   2.760  1.00  0.00     0.174 HD
ENDBRANCH  10  20
BRANCH   1  23
HETATM   23  C3  UNL     1      10.729  43.761   3.161  1.00  0.00     0.295 C 
HETATM   24  O2  UNL     1      10.821  44.921   2.653  1.00  0.00    -0.259 OA
BRANCH  23  25
HETATM   25  O1  UNL     1      11.486  42.773   2.539  1.00  0.00    -0.318 OA
BRANCH  25  26
HETATM   26  C2  UNL     1      12.634  42.221   3.184  1.00  0.00     0.174 C 
HETATM   27  C1  UNL     1      13.452  41.472   2.179  1.00  0.00     0.034 C 
ENDBRANCH  25  26
ENDBRANCH  23  25
ENDBRANCH   1  23
BRANCH   4  28
HETATM   28  N2  UNL     1       7.272  41.665   6.289  1.00  0.00    -0.270 N 
ATOM     29  H2  UNL     1       7.531  40.947   6.966  1.00  0.00     0.194 HD
BRANCH  28  30
HETATM   30  O12 UNL     1       5.958  41.807   5.948  1.00  0.00    -0.290 OA
ATOM     31  H12 UNL     1       5.292  41.190   6.230  1.00  0.00     0.244 HD
ENDBRANCH  28  30
ENDBRANCH   4  28
BRANCH   2  32
HETATM   32  O3  UNL     1      10.725  45.184   5.779  1.00  0.00    -0.348 OA
BRANCH  32  33
HETATM   33  C6  UNL     1      10.142  46.343   6.396  1.00  0.00     0.210 C 
BRANCH  33  34
HETATM   34  C7  UNL     1       9.450  47.133   5.308  1.00  0.00     0.173 C 
BRANCH  34  35
HETATM   35  O4  UNL     1       8.424  47.888   5.816  1.00  0.00    -0.391 OA
ATOM     36  H4  UNL     1       7.587  47.621   5.455  1.00  0.00     0.210 HD
ENDBRANCH  34  35
BRANCH  34  37
HETATM   37  C8  UNL     1      10.407  47.894   4.452  1.00  0.00     0.179 C 
BRANCH  37  38
HETATM   38  O5  UNL     1      11.601  47.227   4.337  1.00  0.00    -0.390 OA
ATOM     39  H5  UNL     1      11.646  46.747   3.519  1.00  0.00     0.210 HD
ENDBRANCH  37  38
BRANCH  37  40
HETATM   40  C9  UNL     1       9.797  48.325   3.140  1.00  0.00     0.177 C 
BRANCH  40  41
HETATM   41  O6  UNL     1       8.801  47.411   2.811  1.00  0.00    -0.391 OA
ATOM     42  H6  UNL     1       8.249  47.293   3.575  1.00  0.00     0.210 HD
ENDBRANCH  40  41
BRANCH  40  43
HETATM   43  C10 UNL     1      10.782  48.430   2.019  1.00  0.00     0.173 C 
BRANCH  43  44
HETATM   44  C11 UNL     1      11.712  49.607   2.214  1.00  0.00     0.194 C 
BRANCH  44  45
HETATM   45  O7  UNL     1      11.124  50.750   2.675  1.00  0.00    -0.399 OA
ATOM     46  H7  UNL     1      10.187  50.699   2.821  1.00  0.00     0.209 HD
ENDBRANCH  44  45
ENDBRANCH  43  44
BRANCH  43  47
HETATM   47  N1  UNL     1      10.223  48.318   0.718  1.00  0.00    -0.207 N 
HETATM   48  O8  UNL     1      10.226  47.177   0.042  1.00  0.00    -0.231 OA
HETATM   49  C12 UNL     1       9.681  47.332  -1.115  1.00  0.00     0.136 A 
HETATM   50  C14 UNL     1       9.284  48.644  -1.238  1.00  0.00     0.116 A 
HETATM   51  C15 UNL     1       9.651  49.249  -0.037  1.00  0.00     0.270 A 
HETATM   52  O11 UNL     1       9.457  50.436   0.231  1.00  0.00    -0.266 OA
BRANCH  49  53
HETATM   53  C13 UNL     1       9.527  46.236  -2.121  1.00  0.00     0.315 C 
BRANCH  53  54
HETATM   54  O9  UNL     1       9.693  46.837  -3.376  1.00  0.00    -0.365 OA
ATOM     55  H9  UNL     1       9.836  46.126  -3.990  1.00  0.00     0.213 HD
ENDBRANCH  53  54
BRANCH  53  56
HETATM   56  O10 UNL     1       8.317  45.588  -1.997  1.00  0.00    -0.365 OA
ATOM     57  H10 UNL     1       8.307  44.994  -1.256  1.00  0.00     0.213 HD
ENDBRANCH  53  56
ENDBRANCH  49  53
ENDBRANCH  43  47
ENDBRANCH  40  43
ENDBRANCH  37  40
ENDBRANCH  34  37
ENDBRANCH  33  34
ENDBRANCH  32  33
ENDBRANCH   2  32
TORSDOF 22
ENDMDL
