MODEL 1
REMARK VINA RESULT: -8.894829361      0.000      0.000
REMARK  20 active torsions:
REMARK  status: ('A' for Active; 'I' for Inactive)
REMARK    1  A    between atoms: N4_7  and  C2_8 
REMARK    2  A    between atoms: C2_8  and  C3_9 
REMARK    3  A    between atoms: C3_9  and  N5_10 
REMARK    4  A    between atoms: N5_10  and  C4_13 
REMARK    5  A    between atoms: C4_13  and  C5_14 
REMARK    6  A    between atoms: C6_16  and  C7_17 
REMARK    7  A    between atoms: C7_17  and  O2_18 
REMARK    8  A    between atoms: N6_22  and  O3_24 
REMARK    9  A    between atoms: O3_24  and  C10_25 
REMARK   10  A    between atoms: C11_28  and  C12_29 
REMARK   11  A    between atoms: C12_29  and  O6_30 
REMARK   12  A    between atoms: C13_32  and  N7_33 
REMARK   13  A    between atoms: C14_35  and  C15_36 
REMARK   14  A    between atoms: C14_35  and  C16_39 
REMARK   15  A    between atoms: C17_40  and  O9_41 
REMARK   16  A    between atoms: C18_43  and  O10_44 
REMARK   17  A    between atoms: C19_46  and  N8_47 
REMARK   18  A    between atoms: N8_47  and  O11_48 
REMARK   19  A    between atoms: N8_47  and  O12_50 
REMARK   20  A    between atoms: C22_56  and  O14_57 
ROOT
HETATM    1  C1  UNL     1       7.889  45.215  -5.447  1.00  0.00     0.199 C 
HETATM    2  N1  UNL     1       8.294  45.711  -4.138  1.00  0.00    -0.111 N 
HETATM    3  N2  UNL     1       7.407  46.322  -3.287  1.00  0.00    -0.211 N 
ATOM      4  H2  UNL     1       6.400  46.396  -3.432  1.00  0.00     0.210 HD
HETATM    5  N3  UNL     1       8.069  46.794  -2.255  1.00  0.00    -0.211 N 
ATOM      6  H3  UNL     1       7.644  47.291  -1.473  1.00  0.00     0.210 HD
HETATM    7  N4  UNL     1       9.331  46.544  -2.367  1.00  0.00    -0.105 N 
HETATM    8  C13 UNL     1       9.492  45.831  -3.571  1.00  0.00     0.718 A 
ENDROOT
BRANCH   8   9
HETATM    9  N7  UNL     1      10.551  45.206  -3.718  1.00  0.00    -0.181 N 
HETATM   10  C14 UNL     1      11.243  44.080  -3.872  1.00  0.00     0.141 C 
ATOM     11  H7  UNL     1      11.265  45.935  -3.726  1.00  0.00     0.184 HD
BRANCH  10  12
HETATM   12  C15 UNL     1      10.428  42.817  -3.551  1.00  0.00     0.228 C 
HETATM   13  O7  UNL     1       9.601  42.352  -4.366  1.00  0.00    -0.643 OA
HETATM   14  O8  UNL     1      10.656  42.212  -2.337  1.00  0.00    -0.643 OA
ENDBRANCH  10  12
BRANCH  10  15
HETATM   15  C16 UNL     1      12.240  43.683  -4.825  1.00  0.00     0.069 C 
HETATM   16  C17 UNL     1      12.093  43.849  -6.199  1.00  0.00     0.116 C 
HETATM   17  C18 UNL     1      12.744  43.124  -7.176  1.00  0.00     0.130 C 
HETATM   18  C19 UNL     1      13.858  42.300  -7.124  1.00  0.00     0.153 C 
HETATM   19  C20 UNL     1      14.217  41.587  -5.971  1.00  0.00     0.227 C 
HETATM   20  O13 UNL     1      14.652  40.434  -6.105  1.00  0.00    -0.284 OA
HETATM   21  C21 UNL     1      14.141  42.036  -4.647  1.00  0.00     0.132 C 
HETATM   22  N9  UNL     1      14.857  41.314  -3.679  1.00  0.00    -0.095 NA
HETATM   23  C22 UNL     1      13.384  43.119  -4.210  1.00  0.00     0.109 C 
BRANCH  16  24
HETATM   24  O9  UNL     1      11.219  44.830  -6.527  1.00  0.00    -0.357 OA
ATOM     25  H9  UNL     1      11.088  44.916  -7.464  1.00  0.00     0.217 HD
ENDBRANCH  16  24
BRANCH  17  26
HETATM   26  O10 UNL     1      12.214  43.202  -8.460  1.00  0.00    -0.356 OA
ATOM     27  H10 UNL     1      11.399  42.736  -8.609  1.00  0.00     0.218 HD
ENDBRANCH  17  26
BRANCH  18  28
HETATM   28  N8  UNL     1      14.710  42.162  -8.237  1.00  0.00    -0.029 NA
BRANCH  28  29
HETATM   29  O11 UNL     1      14.869  43.318  -8.899  1.00  0.00    -0.284 OA
ATOM     30  H11 UNL     1      14.690  43.226  -9.829  1.00  0.00     0.240 HD
ENDBRANCH  28  29
BRANCH  28  31
HETATM   31  O12 UNL     1      14.268  41.222  -9.071  1.00  0.00    -0.284 OA
ATOM     32  H12 UNL     1      14.980  40.676  -9.384  1.00  0.00     0.240 HD
ENDBRANCH  28  31
ENDBRANCH  18  28
BRANCH  23  33
HETATM   33  O14 UNL     1      13.860  43.679  -3.040  1.00  0.00    -0.358 OA
ATOM     34  H14 UNL     1      14.681  44.156  -3.059  1.00  0.00     0.217 HD
ENDBRANCH  23  33
ENDBRANCH  10  15
ENDBRANCH   8   9
BRANCH   7  35
HETATM   35  C2  UNL     1      10.463  47.235  -1.707  1.00  0.00     0.197 C 
BRANCH  35  36
HETATM   36  C3  UNL     1      10.048  47.606  -0.333  1.00  0.00     0.255 C 
BRANCH  36  37
HETATM   37  N5  UNL     1      10.430  49.038   0.008  1.00  0.00    -0.068 N 
ATOM     38  H52 UNL     1      10.835  49.588  -0.750  1.00  0.00     0.277 HD
ATOM     39  H51 UNL     1       9.657  49.684   0.165  1.00  0.00     0.277 HD
BRANCH  37  40
HETATM   40  C4  UNL     1      11.305  48.779   1.163  1.00  0.00     0.297 C 
BRANCH  40  41
HETATM   41  C5  UNL     1      10.694  48.278   2.405  1.00  0.00     0.089 A 
HETATM   42  O1  UNL     1      10.454  47.113   2.880  1.00  0.00    -0.315 OA
HETATM   43  C6  UNL     1       9.888  46.910   4.072  1.00  0.00     0.079 A 
HETATM   44  C8  UNL     1       9.533  48.000   4.886  1.00  0.00     0.067 A 
HETATM   45  C9  UNL     1       9.749  49.280   4.473  1.00  0.00     0.068 A 
HETATM   46  N6  UNL     1       9.794  50.353   5.108  1.00  0.00    -0.255 N 
HETATM   47  C11 UNL     1      10.317  49.415   3.213  1.00  0.00     0.025 A 
ATOM     48  H6  UNL     1      10.003  51.126   4.476  1.00  0.00     0.195 HD
BRANCH  43  49
HETATM   49  C7  UNL     1       9.551  45.589   4.641  1.00  0.00     0.229 C 
BRANCH  49  50
HETATM   50  O2  UNL     1       9.562  44.579   3.732  1.00  0.00    -0.394 OA
ATOM     51  H2  UNL     1      10.323  44.014   3.793  1.00  0.00     0.209 HD
ENDBRANCH  49  50
ENDBRANCH  43  49
BRANCH  46  52
HETATM   52  O3  UNL     1       9.659  50.791   6.321  1.00  0.00    -0.172 OA
BRANCH  52  53
HETATM   53  C10 UNL     1       8.971  50.779   7.436  1.00  0.00     0.355 C 
HETATM   54  O4  UNL     1       8.599  51.912   7.902  1.00  0.00    -0.622 OA
HETATM   55  O5  UNL     1       8.630  49.572   8.119  1.00  0.00    -0.622 OA
ENDBRANCH  52  53
ENDBRANCH  46  52
BRANCH  47  56
HETATM   56  C12 UNL     1      10.364  50.752   2.574  1.00  0.00     0.207 C 
BRANCH  56  57
HETATM   57  O6  UNL     1      11.447  51.469   3.139  1.00  0.00    -0.396 OA
ATOM     58  H6  UNL     1      12.161  51.463   2.513  1.00  0.00     0.209 HD
ENDBRANCH  56  57
ENDBRANCH  47  56
ENDBRANCH  40  41
ENDBRANCH  37  40
ENDBRANCH  36  37
ENDBRANCH  35  36
ENDBRANCH   7  35
TORSDOF 20
ENDMDL
MODEL 2
REMARK VINA RESULT: -8.499526707      1.475      2.478
REMARK  20 active torsions:
REMARK  status: ('A' for Active; 'I' for Inactive)
REMARK    1  A    between atoms: N4_7  and  C2_8 
REMARK    2  A    between atoms: C2_8  and  C3_9 
REMARK    3  A    between atoms: C3_9  and  N5_10 
REMARK    4  A    between atoms: N5_10  and  C4_13 
REMARK    5  A    between atoms: C4_13  and  C5_14 
REMARK    6  A    between atoms: C6_16  and  C7_17 
REMARK    7  A    between atoms: C7_17  and  O2_18 
REMARK    8  A    between atoms: N6_22  and  O3_24 
REMARK    9  A    between atoms: O3_24  and  C10_25 
REMARK   10  A    between atoms: C11_28  and  C12_29 
REMARK   11  A    between atoms: C12_29  and  O6_30 
REMARK   12  A    between atoms: C13_32  and  N7_33 
REMARK   13  A    between atoms: C14_35  and  C15_36 
REMARK   14  A    between atoms: C14_35  and  C16_39 
REMARK   15  A    between atoms: C17_40  and  O9_41 
REMARK   16  A    between atoms: C18_43  and  O10_44 
REMARK   17  A    between atoms: C19_46  and  N8_47 
REMARK   18  A    between atoms: N8_47  and  O11_48 
REMARK   19  A    between atoms: N8_47  and  O12_50 
REMARK   20  A    between atoms: C22_56  and  O14_57 
ROOT
HETATM    1  C1  UNL     1       8.854  48.382  -5.229  1.00  0.00     0.199 C 
HETATM    2  N1  UNL     1       8.802  48.011  -3.821  1.00  0.00    -0.111 N 
HETATM    3  N2  UNL     1       7.916  48.593  -2.949  1.00  0.00    -0.211 N 
ATOM      4  H2  UNL     1       7.170  49.240  -3.204  1.00  0.00     0.210 HD
HETATM    5  N3  UNL     1       8.188  48.180  -1.732  1.00  0.00    -0.211 N 
ATOM      6  H3  UNL     1       7.675  48.460  -0.897  1.00  0.00     0.210 HD
HETATM    7  N4  UNL     1       9.194  47.370  -1.737  1.00  0.00    -0.105 N 
HETATM    8  C13 UNL     1       9.594  47.237  -3.082  1.00  0.00     0.718 A 
ENDROOT
BRANCH   8   9
HETATM    9  N7  UNL     1      10.313  46.270  -3.363  1.00  0.00    -0.181 N 
HETATM   10  C14 UNL     1      10.518  44.968  -3.550  1.00  0.00     0.141 C 
ATOM     11  H7  UNL     1      11.225  46.689  -3.547  1.00  0.00     0.184 HD
BRANCH  10  12
HETATM   12  C15 UNL     1       9.383  44.090  -3.001  1.00  0.00     0.228 C 
HETATM   13  O7  UNL     1       8.216  44.527  -2.890  1.00  0.00    -0.643 OA
HETATM   14  O8  UNL     1       9.700  42.797  -2.651  1.00  0.00    -0.643 OA
ENDBRANCH  10  12
BRANCH  10  15
HETATM   15  C16 UNL     1      11.111  44.230  -4.628  1.00  0.00     0.069 C 
HETATM   16  C17 UNL     1      12.342  43.589  -4.531  1.00  0.00     0.116 C 
HETATM   17  C18 UNL     1      13.171  43.264  -5.585  1.00  0.00     0.130 C 
HETATM   18  C19 UNL     1      12.942  43.196  -6.951  1.00  0.00     0.153 C 
HETATM   19  C20 UNL     1      11.979  43.985  -7.596  1.00  0.00     0.227 C 
HETATM   20  O13 UNL     1      12.252  44.453  -8.710  1.00  0.00    -0.284 OA
HETATM   21  C21 UNL     1      10.706  44.316  -7.116  1.00  0.00     0.132 C 
HETATM   22  N9  UNL     1       9.778  44.820  -8.042  1.00  0.00    -0.095 NA
HETATM   23  C22 UNL     1      10.299  44.218  -5.788  1.00  0.00     0.109 C 
BRANCH  16  24
HETATM   24  O9  UNL     1      12.688  43.288  -3.257  1.00  0.00    -0.357 OA
ATOM     25  H9  UNL     1      13.624  43.173  -3.140  1.00  0.00     0.217 HD
ENDBRANCH  16  24
BRANCH  17  26
HETATM   26  O10 UNL     1      14.487  42.948  -5.262  1.00  0.00    -0.356 OA
ATOM     27  H10 UNL     1      15.112  42.959  -5.977  1.00  0.00     0.218 HD
ENDBRANCH  17  26
BRANCH  18  28
HETATM   28  N8  UNL     1      13.659  42.295  -7.763  1.00  0.00    -0.029 NA
BRANCH  28  29
HETATM   29  O11 UNL     1      13.886  41.127  -7.143  1.00  0.00    -0.284 OA
ATOM     30  H11 UNL     1      14.514  41.212  -6.435  1.00  0.00     0.240 HD
ENDBRANCH  28  29
BRANCH  28  31
HETATM   31  O12 UNL     1      14.814  42.823  -8.166  1.00  0.00    -0.284 OA
ATOM     32  H12 UNL     1      15.384  42.159  -8.539  1.00  0.00     0.240 HD
ENDBRANCH  28  31
ENDBRANCH  18  28
BRANCH  23  33
HETATM   33  O14 UNL     1       8.931  44.083  -5.646  1.00  0.00    -0.358 OA
ATOM     34  H14 UNL     1       8.453  43.553  -6.273  1.00  0.00     0.217 HD
ENDBRANCH  23  33
ENDBRANCH  10  15
ENDBRANCH   8   9
BRANCH   7  35
HETATM   35  C2  UNL     1      10.094  47.020  -0.614  1.00  0.00     0.197 C 
BRANCH  35  36
HETATM   36  C3  UNL     1      10.540  48.275   0.037  1.00  0.00     0.255 C 
BRANCH  36  37
HETATM   37  N5  UNL     1      11.882  48.108   0.732  1.00  0.00    -0.068 N 
ATOM     38  H52 UNL     1      12.170  47.149   0.930  1.00  0.00     0.277 HD
ATOM     39  H51 UNL     1      12.708  48.321   0.174  1.00  0.00     0.277 HD
BRANCH  37  40
HETATM   40  C4  UNL     1      11.650  48.971   1.903  1.00  0.00     0.297 C 
BRANCH  40  41
HETATM   41  C5  UNL     1      10.886  48.421   3.035  1.00  0.00     0.089 A 
HETATM   42  O1  UNL     1      10.579  47.239   3.421  1.00  0.00    -0.315 OA
HETATM   43  C6  UNL     1       9.870  46.989   4.524  1.00  0.00     0.079 A 
HETATM   44  C8  UNL     1       9.429  48.045   5.341  1.00  0.00     0.067 A 
HETATM   45  C9  UNL     1       9.706  49.339   5.020  1.00  0.00     0.068 A 
HETATM   46  N6  UNL     1       9.684  50.381   5.707  1.00  0.00    -0.255 N 
HETATM   47  C11 UNL     1      10.425  49.525   3.845  1.00  0.00     0.025 A 
ATOM     48  H6  UNL     1       9.976  51.179   5.143  1.00  0.00     0.195 HD
BRANCH  43  49
HETATM   49  C7  UNL     1       9.454  45.648   4.983  1.00  0.00     0.229 C 
BRANCH  49  50
HETATM   50  O2  UNL     1       9.392  44.721   3.991  1.00  0.00    -0.394 OA
ATOM     51  H2  UNL     1       8.813  43.993   4.181  1.00  0.00     0.209 HD
ENDBRANCH  49  50
ENDBRANCH  43  49
BRANCH  46  52
HETATM   52  O3  UNL     1       9.406  50.763   6.915  1.00  0.00    -0.172 OA
BRANCH  52  53
HETATM   53  C10 UNL     1       8.493  50.978   7.828  1.00  0.00     0.355 C 
HETATM   54  O4  UNL     1       8.242  52.198   8.123  1.00  0.00    -0.622 OA
HETATM   55  O5  UNL     1       7.788  49.920   8.479  1.00  0.00    -0.622 OA
ENDBRANCH  52  53
ENDBRANCH  46  52
BRANCH  47  56
HETATM   56  C12 UNL     1      10.563  50.889   3.283  1.00  0.00     0.207 C 
BRANCH  56  57
HETATM   57  O6  UNL     1      11.528  51.584   4.052  1.00  0.00    -0.396 OA
ATOM     58  H6  UNL     1      11.472  51.269   4.946  1.00  0.00     0.209 HD
ENDBRANCH  56  57
ENDBRANCH  47  56
ENDBRANCH  40  41
ENDBRANCH  37  40
ENDBRANCH  36  37
ENDBRANCH  35  36
ENDBRANCH   7  35
TORSDOF 20
ENDMDL
MODEL 3
REMARK VINA RESULT: -8.357255666      2.395     11.354
REMARK  20 active torsions:
REMARK  status: ('A' for Active; 'I' for Inactive)
REMARK    1  A    between atoms: N4_7  and  C2_8 
REMARK    2  A    between atoms: C2_8  and  C3_9 
REMARK    3  A    between atoms: C3_9  and  N5_10 
REMARK    4  A    between atoms: N5_10  and  C4_13 
REMARK    5  A    between atoms: C4_13  and  C5_14 
REMARK    6  A    between atoms: C6_16  and  C7_17 
REMARK    7  A    between atoms: C7_17  and  O2_18 
REMARK    8  A    between atoms: N6_22  and  O3_24 
REMARK    9  A    between atoms: O3_24  and  C10_25 
REMARK   10  A    between atoms: C11_28  and  C12_29 
REMARK   11  A    between atoms: C12_29  and  O6_30 
REMARK   12  A    between atoms: C13_32  and  N7_33 
REMARK   13  A    between atoms: C14_35  and  C15_36 
REMARK   14  A    between atoms: C14_35  and  C16_39 
REMARK   15  A    between atoms: C17_40  and  O9_41 
REMARK   16  A    between atoms: C18_43  and  O10_44 
REMARK   17  A    between atoms: C19_46  and  N8_47 
REMARK   18  A    between atoms: N8_47  and  O11_48 
REMARK   19  A    between atoms: N8_47  and  O12_50 
REMARK   20  A    between atoms: C22_56  and  O14_57 
ROOT
HETATM    1  C1  UNL     1       9.389  50.604   0.450  1.00  0.00     0.199 C 
HETATM    2  N1  UNL     1       9.463  49.499  -0.498  1.00  0.00    -0.111 N 
HETATM    3  N2  UNL     1       9.404  49.700  -1.854  1.00  0.00    -0.211 N 
ATOM      4  H2  UNL     1       9.406  50.607  -2.320  1.00  0.00     0.210 HD
HETATM    5  N3  UNL     1       9.346  48.531  -2.452  1.00  0.00    -0.211 N 
ATOM      6  H3  UNL     1       9.298  48.400  -3.462  1.00  0.00     0.210 HD
HETATM    7  N4  UNL     1       9.356  47.573  -1.586  1.00  0.00    -0.105 N 
HETATM    8  C13 UNL     1       9.448  48.179  -0.318  1.00  0.00     0.718 A 
ENDROOT
BRANCH   8   9
HETATM    9  N7  UNL     1       9.803  47.462   0.625  1.00  0.00    -0.181 N 
HETATM   10  C14 UNL     1      10.575  47.191   1.675  1.00  0.00     0.141 C 
ATOM     11  H7  UNL     1       9.177  46.658   0.569  1.00  0.00     0.184 HD
BRANCH  10  12
HETATM   12  C15 UNL     1      11.820  48.088   1.760  1.00  0.00     0.228 C 
HETATM   13  O7  UNL     1      12.769  47.963   0.954  1.00  0.00    -0.643 OA
HETATM   14  O8  UNL     1      11.842  49.044   2.750  1.00  0.00    -0.643 OA
ENDBRANCH  10  12
BRANCH  10  15
HETATM   15  C16 UNL     1      10.270  46.800   3.022  1.00  0.00     0.069 C 
HETATM   16  C17 UNL     1       9.657  47.645   3.943  1.00  0.00     0.116 C 
HETATM   17  C18 UNL     1       9.735  47.537   5.317  1.00  0.00     0.130 C 
HETATM   18  C19 UNL     1      10.144  46.497   6.138  1.00  0.00     0.153 C 
HETATM   19  C20 UNL     1      11.091  45.544   5.736  1.00  0.00     0.227 C 
HETATM   20  O13 UNL     1      11.923  45.155   6.568  1.00  0.00    -0.284 OA
HETATM   21  C21 UNL     1      11.211  44.962   4.468  1.00  0.00     0.132 C 
HETATM   22  N9  UNL     1      11.990  43.798   4.364  1.00  0.00    -0.095 NA
HETATM   23  C22 UNL     1      10.649  45.465   3.298  1.00  0.00     0.109 C 
BRANCH  16  24
HETATM   24  O9  UNL     1       8.937  48.634   3.363  1.00  0.00    -0.357 OA
ATOM     25  H9  UNL     1       9.430  49.438   3.249  1.00  0.00     0.217 HD
ENDBRANCH  16  24
BRANCH  17  26
HETATM   26  O10 UNL     1       9.349  48.657   6.047  1.00  0.00    -0.356 OA
ATOM     27  H10 UNL     1       8.624  48.539   6.650  1.00  0.00     0.218 HD
ENDBRANCH  17  26
BRANCH  18  28
HETATM   28  N8  UNL     1       9.595  46.331   7.424  1.00  0.00    -0.029 NA
BRANCH  28  29
HETATM   29  O11 UNL     1       8.261  46.474   7.428  1.00  0.00    -0.284 OA
ATOM     30  H11 UNL     1       7.883  46.338   6.566  1.00  0.00     0.240 HD
ENDBRANCH  28  29
BRANCH  28  31
HETATM   31  O12 UNL     1      10.141  47.178   8.295  1.00  0.00    -0.284 OA
ATOM     32  H12 UNL     1       9.979  46.903   9.191  1.00  0.00     0.240 HD
ENDBRANCH  28  31
ENDBRANCH  18  28
BRANCH  23  33
HETATM   33  O14 UNL     1      10.449  44.498   2.331  1.00  0.00    -0.358 OA
ATOM     34  H14 UNL     1      10.955  43.695   2.371  1.00  0.00     0.217 HD
ENDBRANCH  23  33
ENDBRANCH  10  15
ENDBRANCH   8   9
BRANCH   7  35
HETATM   35  C2  UNL     1       8.881  46.180  -1.757  1.00  0.00     0.197 C 
BRANCH  35  36
HETATM   36  C3  UNL     1       7.674  46.200  -2.616  1.00  0.00     0.255 C 
BRANCH  36  37
HETATM   37  N5  UNL     1       7.987  45.785  -4.045  1.00  0.00    -0.068 N 
ATOM     38  H52 UNL     1       7.189  45.513  -4.620  1.00  0.00     0.277 HD
ATOM     39  H51 UNL     1       8.283  46.530  -4.675  1.00  0.00     0.277 HD
BRANCH  37  40
HETATM   40  C4  UNL     1       8.980  44.732  -3.773  1.00  0.00     0.297 C 
BRANCH  40  41
HETATM   41  C5  UNL     1       9.307  43.785  -4.852  1.00  0.00     0.089 A 
HETATM   42  O1  UNL     1       8.621  43.004  -5.599  1.00  0.00    -0.315 OA
HETATM   43  C6  UNL     1       9.161  42.232  -6.544  1.00  0.00     0.079 A 
HETATM   44  C8  UNL     1      10.547  42.256  -6.776  1.00  0.00     0.067 A 
HETATM   45  C9  UNL     1      11.365  43.055  -6.037  1.00  0.00     0.068 A 
HETATM   46  N6  UNL     1      12.529  43.456  -6.242  1.00  0.00    -0.255 N 
HETATM   47  C11 UNL     1      10.738  43.810  -5.054  1.00  0.00     0.025 A 
ATOM     48  H6  UNL     1      12.829  44.067  -5.482  1.00  0.00     0.195 HD
BRANCH  43  49
HETATM   49  C7  UNL     1       8.416  41.283  -7.398  1.00  0.00     0.229 C 
BRANCH  49  50
HETATM   50  O2  UNL     1       7.791  40.294  -6.707  1.00  0.00    -0.394 OA
ATOM     51  H2  UNL     1       8.361  39.575  -6.465  1.00  0.00     0.209 HD
ENDBRANCH  49  50
ENDBRANCH  43  49
BRANCH  46  52
HETATM   52  O3  UNL     1      13.476  43.338  -7.120  1.00  0.00    -0.172 OA
BRANCH  52  53
HETATM   53  C10 UNL     1      13.834  42.959  -8.322  1.00  0.00     0.355 C 
HETATM   54  O4  UNL     1      15.084  43.003  -8.596  1.00  0.00    -0.622 OA
HETATM   55  O5  UNL     1      12.897  42.509  -9.301  1.00  0.00    -0.622 OA
ENDBRANCH  52  53
ENDBRANCH  46  52
BRANCH  47  56
HETATM   56  C12 UNL     1      11.558  44.518  -4.042  1.00  0.00     0.207 C 
BRANCH  56  57
HETATM   57  O6  UNL     1      12.304  43.548  -3.329  1.00  0.00    -0.396 OA
ATOM     58  H6  UNL     1      12.835  44.002  -2.685  1.00  0.00     0.209 HD
ENDBRANCH  56  57
ENDBRANCH  47  56
ENDBRANCH  40  41
ENDBRANCH  37  40
ENDBRANCH  36  37
ENDBRANCH  35  36
ENDBRANCH   7  35
TORSDOF 20
ENDMDL
MODEL 4
REMARK VINA RESULT: -8.277940586      6.783     12.365
REMARK  20 active torsions:
REMARK  status: ('A' for Active; 'I' for Inactive)
REMARK    1  A    between atoms: N4_7  and  C2_8 
REMARK    2  A    between atoms: C2_8  and  C3_9 
REMARK    3  A    between atoms: C3_9  and  N5_10 
REMARK    4  A    between atoms: N5_10  and  C4_13 
REMARK    5  A    between atoms: C4_13  and  C5_14 
REMARK    6  A    between atoms: C6_16  and  C7_17 
REMARK    7  A    between atoms: C7_17  and  O2_18 
REMARK    8  A    between atoms: N6_22  and  O3_24 
REMARK    9  A    between atoms: O3_24  and  C10_25 
REMARK   10  A    between atoms: C11_28  and  C12_29 
REMARK   11  A    between atoms: C12_29  and  O6_30 
REMARK   12  A    between atoms: C13_32  and  N7_33 
REMARK   13  A    between atoms: C14_35  and  C15_36 
REMARK   14  A    between atoms: C14_35  and  C16_39 
REMARK   15  A    between atoms: C17_40  and  O9_41 
REMARK   16  A    between atoms: C18_43  and  O10_44 
REMARK   17  A    between atoms: C19_46  and  N8_47 
REMARK   18  A    between atoms: N8_47  and  O11_48 
REMARK   19  A    between atoms: N8_47  and  O12_50 
REMARK   20  A    between atoms: C22_56  and  O14_57 
ROOT
HETATM    1  C1  UNL     1      10.654  43.333   3.444  1.00  0.00     0.199 C 
HETATM    2  N1  UNL     1      10.001  42.825   4.645  1.00  0.00    -0.111 N 
HETATM    3  N2  UNL     1      10.139  41.521   5.049  1.00  0.00    -0.211 N 
ATOM      4  H2  UNL     1      10.763  40.832   4.630  1.00  0.00     0.210 HD
HETATM    5  N3  UNL     1       9.333  41.307   6.065  1.00  0.00    -0.211 N 
ATOM      6  H3  UNL     1       9.244  40.418   6.556  1.00  0.00     0.210 HD
HETATM    7  N4  UNL     1       8.670  42.376   6.357  1.00  0.00    -0.105 N 
HETATM    8  C13 UNL     1       9.100  43.372   5.459  1.00  0.00     0.718 A 
ENDROOT
BRANCH   8   9
HETATM    9  N7  UNL     1       8.851  44.546   5.758  1.00  0.00    -0.181 N 
HETATM   10  C14 UNL     1       9.144  45.698   6.359  1.00  0.00     0.141 C 
ATOM     11  H7  UNL     1       7.952  44.727   5.310  1.00  0.00     0.184 HD
BRANCH  10  12
HETATM   12  C15 UNL     1      10.283  45.575   7.383  1.00  0.00     0.228 C 
HETATM   13  O7  UNL     1      10.083  45.753   8.605  1.00  0.00    -0.643 OA
HETATM   14  O8  UNL     1      11.530  45.247   6.902  1.00  0.00    -0.643 OA
ENDBRANCH  10  12
BRANCH  10  15
HETATM   15  C16 UNL     1       9.173  47.052   5.887  1.00  0.00     0.069 C 
HETATM   16  C17 UNL     1       9.903  47.459   4.775  1.00  0.00     0.116 C 
HETATM   17  C18 UNL     1      10.349  48.741   4.523  1.00  0.00     0.130 C 
HETATM   18  C19 UNL     1       9.994  49.964   5.072  1.00  0.00     0.153 C 
HETATM   19  C20 UNL     1       9.519  50.093   6.385  1.00  0.00     0.227 C 
HETATM   20  O13 UNL     1       9.892  51.070   7.051  1.00  0.00    -0.284 OA
HETATM   21  C21 UNL     1       8.646  49.226   7.052  1.00  0.00     0.132 C 
HETATM   22  N9  UNL     1       8.030  49.703   8.220  1.00  0.00    -0.095 NA
HETATM   23  C22 UNL     1       8.369  47.916   6.669  1.00  0.00     0.109 C 
BRANCH  16  24
HETATM   24  O9  UNL     1      10.159  46.451   3.907  1.00  0.00    -0.357 OA
ATOM     25  H9  UNL     1       9.659  46.516   3.101  1.00  0.00     0.217 HD
ENDBRANCH  16  24
BRANCH  17  26
HETATM   26  O10 UNL     1      11.339  48.872   3.554  1.00  0.00    -0.356 OA
ATOM     27  H10 UNL     1      11.484  48.118   2.994  1.00  0.00     0.218 HD
ENDBRANCH  17  26
BRANCH  18  28
HETATM   28  N8  UNL     1      10.070  51.148   4.313  1.00  0.00    -0.029 NA
BRANCH  28  29
HETATM   29  O11 UNL     1       9.857  50.927   3.007  1.00  0.00    -0.284 OA
ATOM     30  H11 UNL     1      10.383  51.495   2.456  1.00  0.00     0.240 HD
ENDBRANCH  28  29
BRANCH  28  31
HETATM   31  O12 UNL     1      11.244  51.755   4.481  1.00  0.00    -0.284 OA
ATOM     32  H12 UNL     1      11.954  51.125   4.528  1.00  0.00     0.240 HD
ENDBRANCH  28  31
ENDBRANCH  18  28
BRANCH  23  33
HETATM   33  O14 UNL     1       7.145  47.464   7.124  1.00  0.00    -0.358 OA
ATOM     34  H14 UNL     1       7.094  47.057   7.980  1.00  0.00     0.217 HD
ENDBRANCH  23  33
ENDBRANCH  10  15
ENDBRANCH   8   9
BRANCH   7  35
HETATM   35  C2  UNL     1       7.390  42.486   7.096  1.00  0.00     0.197 C 
BRANCH  35  36
HETATM   36  C3  UNL     1       6.506  41.376   6.669  1.00  0.00     0.255 C 
BRANCH  36  37
HETATM   37  N5  UNL     1       5.984  41.577   5.255  1.00  0.00    -0.068 N 
ATOM     38  H52 UNL     1       5.032  41.933   5.174  1.00  0.00     0.277 HD
ATOM     39  H51 UNL     1       6.398  42.345   4.728  1.00  0.00     0.277 HD
BRANCH  37  40
HETATM   40  C4  UNL     1       6.219  40.224   4.723  1.00  0.00     0.297 C 
BRANCH  40  41
HETATM   41  C5  UNL     1       7.006  40.087   3.486  1.00  0.00     0.089 A 
HETATM   42  O1  UNL     1       8.216  40.348   3.158  1.00  0.00    -0.315 OA
HETATM   43  C6  UNL     1       8.714  40.112   1.943  1.00  0.00     0.079 A 
HETATM   44  C8  UNL     1       7.909  39.537   0.944  1.00  0.00     0.067 A 
HETATM   45  C9  UNL     1       6.608  39.220   1.192  1.00  0.00     0.068 A 
HETATM   46  N6  UNL     1       5.817  38.463   0.592  1.00  0.00    -0.255 N 
HETATM   47  C11 UNL     1       6.151  39.517   2.470  1.00  0.00     0.025 A 
ATOM     48  H6  UNL     1       4.917  38.443   1.074  1.00  0.00     0.195 HD
BRANCH  43  49
HETATM   49  C7  UNL     1      10.087  40.438   1.506  1.00  0.00     0.229 C 
BRANCH  49  50
HETATM   50  O2  UNL     1      11.049  40.058   2.388  1.00  0.00    -0.394 OA
ATOM     51  H2  UNL     1      11.075  39.122   2.550  1.00  0.00     0.209 HD
ENDBRANCH  49  50
ENDBRANCH  43  49
BRANCH  46  52
HETATM   52  O3  UNL     1       5.781  37.695  -0.452  1.00  0.00    -0.172 OA
BRANCH  52  53
HETATM   53  C10 UNL     1       5.902  37.582  -1.751  1.00  0.00     0.355 C 
HETATM   54  O4  UNL     1       4.834  37.338  -2.414  1.00  0.00    -0.622 OA
HETATM   55  O5  UNL     1       7.152  37.724  -2.426  1.00  0.00    -0.622 OA
ENDBRANCH  52  53
ENDBRANCH  46  52
BRANCH  47  56
HETATM   56  C12 UNL     1       4.700  39.440   2.762  1.00  0.00     0.207 C 
BRANCH  56  57
HETATM   57  O6  UNL     1       4.044  40.425   1.983  1.00  0.00    -0.396 OA
ATOM     58  H6  UNL     1       3.276  40.712   2.461  1.00  0.00     0.209 HD
ENDBRANCH  56  57
ENDBRANCH  47  56
ENDBRANCH  40  41
ENDBRANCH  37  40
ENDBRANCH  36  37
ENDBRANCH  35  36
ENDBRANCH   7  35
TORSDOF 20
ENDMDL
MODEL 5
REMARK VINA RESULT: -8.011216484      2.312     11.754
REMARK  20 active torsions:
REMARK  status: ('A' for Active; 'I' for Inactive)
REMARK    1  A    between atoms: N4_7  and  C2_8 
REMARK    2  A    between atoms: C2_8  and  C3_9 
REMARK    3  A    between atoms: C3_9  and  N5_10 
REMARK    4  A    between atoms: N5_10  and  C4_13 
REMARK    5  A    between atoms: C4_13  and  C5_14 
REMARK    6  A    between atoms: C6_16  and  C7_17 
REMARK    7  A    between atoms: C7_17  and  O2_18 
REMARK    8  A    between atoms: N6_22  and  O3_24 
REMARK    9  A    between atoms: O3_24  and  C10_25 
REMARK   10  A    between atoms: C11_28  and  C12_29 
REMARK   11  A    between atoms: C12_29  and  O6_30 
REMARK   12  A    between atoms: C13_32  and  N7_33 
REMARK   13  A    between atoms: C14_35  and  C15_36 
REMARK   14  A    between atoms: C14_35  and  C16_39 
REMARK   15  A    between atoms: C17_40  and  O9_41 
REMARK   16  A    between atoms: C18_43  and  O10_44 
REMARK   17  A    between atoms: C19_46  and  N8_47 
REMARK   18  A    between atoms: N8_47  and  O11_48 
REMARK   19  A    between atoms: N8_47  and  O12_50 
REMARK   20  A    between atoms: C22_56  and  O14_57 
ROOT
HETATM    1  C1  UNL     1       9.382  50.589   0.441  1.00  0.00     0.199 C 
HETATM    2  N1  UNL     1       9.474  49.473  -0.492  1.00  0.00    -0.111 N 
HETATM    3  N2  UNL     1       9.434  49.657  -1.851  1.00  0.00    -0.211 N 
ATOM      4  H2  UNL     1       9.439  50.558  -2.329  1.00  0.00     0.210 HD
HETATM    5  N3  UNL     1       9.389  48.481  -2.436  1.00  0.00    -0.211 N 
ATOM      6  H3  UNL     1       9.356  48.337  -3.444  1.00  0.00     0.210 HD
HETATM    7  N4  UNL     1       9.390  47.533  -1.558  1.00  0.00    -0.105 N 
HETATM    8  C13 UNL     1       9.461  48.156  -0.297  1.00  0.00     0.718 A 
ENDROOT
BRANCH   8   9
HETATM    9  N7  UNL     1       9.805  47.451   0.661  1.00  0.00    -0.181 N 
HETATM   10  C14 UNL     1      10.569  47.193   1.720  1.00  0.00     0.141 C 
ATOM     11  H7  UNL     1       9.175  46.651   0.614  1.00  0.00     0.184 HD
BRANCH  10  12
HETATM   12  C15 UNL     1      11.820  48.082   1.798  1.00  0.00     0.228 C 
HETATM   13  O7  UNL     1      12.755  47.965   0.976  1.00  0.00    -0.643 OA
HETATM   14  O8  UNL     1      11.862  49.023   2.801  1.00  0.00    -0.643 OA
ENDBRANCH  10  12
BRANCH  10  15
HETATM   15  C16 UNL     1      10.253  46.826   3.070  1.00  0.00     0.069 C 
HETATM   16  C17 UNL     1       9.663  47.697   3.982  1.00  0.00     0.116 C 
HETATM   17  C18 UNL     1       9.737  47.603   5.356  1.00  0.00     0.130 C 
HETATM   18  C19 UNL     1      10.116  46.562   6.190  1.00  0.00     0.153 C 
HETATM   19  C20 UNL     1      11.037  45.580   5.800  1.00  0.00     0.227 C 
HETATM   20  O13 UNL     1      11.858  45.177   6.637  1.00  0.00    -0.284 OA
HETATM   21  C21 UNL     1      11.142  44.979   4.539  1.00  0.00     0.132 C 
HETATM   22  N9  UNL     1      11.889  43.793   4.449  1.00  0.00    -0.095 NA
HETATM   23  C22 UNL     1      10.595  45.484   3.363  1.00  0.00     0.109 C 
BRANCH  16  24
HETATM   24  O9  UNL     1       8.970  48.699   3.390  1.00  0.00    -0.357 OA
ATOM     25  H9  UNL     1       8.226  48.994   3.902  1.00  0.00     0.217 HD
ENDBRANCH  16  24
BRANCH  17  26
HETATM   26  O10 UNL     1       9.381  48.742   6.074  1.00  0.00    -0.356 OA
ATOM     27  H10 UNL     1       9.756  49.562   5.776  1.00  0.00     0.218 HD
ENDBRANCH  17  26
BRANCH  18  28
HETATM   28  N8  UNL     1       9.563  46.426   7.478  1.00  0.00    -0.029 NA
BRANCH  28  29
HETATM   29  O11 UNL     1       8.232  46.596   7.477  1.00  0.00    -0.284 OA
ATOM     30  H11 UNL     1       7.910  46.914   8.313  1.00  0.00     0.240 HD
ENDBRANCH  28  29
BRANCH  28  31
HETATM   31  O12 UNL     1      10.124  47.276   8.337  1.00  0.00    -0.284 OA
ATOM     32  H12 UNL     1      10.867  46.879   8.779  1.00  0.00     0.240 HD
ENDBRANCH  28  31
ENDBRANCH  18  28
BRANCH  23  33
HETATM   33  O14 UNL     1      10.369  44.512   2.407  1.00  0.00    -0.358 OA
ATOM     34  H14 UNL     1       9.475  44.280   2.188  1.00  0.00     0.217 HD
ENDBRANCH  23  33
ENDBRANCH  10  15
ENDBRANCH   8   9
BRANCH   7  35
HETATM   35  C2  UNL     1       8.923  46.137  -1.719  1.00  0.00     0.197 C 
BRANCH  35  36
HETATM   36  C3  UNL     1       9.518  45.583  -2.958  1.00  0.00     0.255 C 
BRANCH  36  37
HETATM   37  N5  UNL     1       8.464  45.297  -4.016  1.00  0.00    -0.068 N 
ATOM     38  H52 UNL     1       7.507  45.191  -3.680  1.00  0.00     0.277 HD
ATOM     39  H51 UNL     1       8.238  46.067  -4.645  1.00  0.00     0.277 HD
BRANCH  37  40
HETATM   40  C4  UNL     1       9.071  44.108  -4.637  1.00  0.00     0.297 C 
BRANCH  40  41
HETATM   41  C5  UNL     1       9.831  44.283  -5.886  1.00  0.00     0.089 A 
HETATM   42  O1  UNL     1       9.795  45.128  -6.847  1.00  0.00    -0.315 OA
HETATM   43  C6  UNL     1      10.625  45.086  -7.892  1.00  0.00     0.079 A 
HETATM   44  C8  UNL     1      11.611  44.088  -7.977  1.00  0.00     0.067 A 
HETATM   45  C9  UNL     1      11.734  43.143  -7.005  1.00  0.00     0.068 A 
HETATM   46  N6  UNL     1      12.675  42.374  -6.718  1.00  0.00    -0.255 N 
HETATM   47  C11 UNL     1      10.821  43.234  -5.961  1.00  0.00     0.025 A 
ATOM     48  H6  UNL     1      12.430  41.808  -5.905  1.00  0.00     0.195 HD
BRANCH  43  49
HETATM   49  C7  UNL     1      10.592  46.010  -9.044  1.00  0.00     0.229 C 
BRANCH  49  50
HETATM   50  O2  UNL     1      10.891  47.298  -8.726  1.00  0.00    -0.394 OA
ATOM     51  H2  UNL     1      11.584  47.674  -9.255  1.00  0.00     0.209 HD
ENDBRANCH  49  50
ENDBRANCH  43  49
BRANCH  46  52
HETATM   52  O3  UNL     1      13.865  42.070  -7.132  1.00  0.00    -0.172 OA
BRANCH  52  53
HETATM   53  C10 UNL     1      14.734  42.073  -8.112  1.00  0.00     0.355 C 
HETATM   54  O4  UNL     1      15.003  43.205  -8.646  1.00  0.00    -0.622 OA
HETATM   55  O5  UNL     1      15.372  40.886  -8.582  1.00  0.00    -0.622 OA
ENDBRANCH  52  53
ENDBRANCH  46  52
BRANCH  47  56
HETATM   56  C12 UNL     1      10.711  42.120  -4.989  1.00  0.00     0.207 C 
BRANCH  56  57
HETATM   57  O6  UNL     1      10.436  40.934  -5.712  1.00  0.00    -0.396 OA
ATOM     58  H6  UNL     1       9.573  40.630  -5.460  1.00  0.00     0.209 HD
ENDBRANCH  56  57
ENDBRANCH  47  56
ENDBRANCH  40  41
ENDBRANCH  37  40
ENDBRANCH  36  37
ENDBRANCH  35  36
ENDBRANCH   7  35
TORSDOF 20
ENDMDL
