MODEL 1
REMARK VINA RESULT: -9.644411664      0.000      0.000
REMARK  16 active torsions:
REMARK  status: ('A' for Active; 'I' for Inactive)
REMARK    1  A    between atoms: C2_2  and  O2_4 
REMARK    2  A    between atoms: O2_4  and  C3_5 
REMARK    3  A    between atoms: C3_5  and  C4_6 
REMARK    4  A    between atoms: N1_8  and  C6_9 
REMARK    5  A    between atoms: C6_9  and  N2_10 
REMARK    6  A    between atoms: N2_10  and  C7_13 
REMARK    7  A    between atoms: C7_13  and  C8_14 
REMARK    8  A    between atoms: C8_14  and  C9_15 
REMARK    9  A    between atoms: C9_15  and  C10_16 
REMARK   10  A    between atoms: C10_16  and  N3_17 
REMARK   11  A    between atoms: C10_16  and  C20_52 
REMARK   12  A    between atoms: N3_17  and  C11_19 
REMARK   13  A    between atoms: N10_33  and  N11_34 
REMARK   14  A    between atoms: N11_34  and  C15_36 
REMARK   15  A    between atoms: N14_45  and  N15_46 
REMARK   16  A    between atoms: C19_49  and  O4_50 
ROOT
HETATM    1  C11 UNL     1       9.526  46.050  -4.617  1.00  0.00     0.680 A 
HETATM    2  N4  UNL     1       9.192  45.537  -5.762  1.00  0.00    -0.176 N 
ATOM      3  H4  UNL     1       8.500  46.023  -6.332  1.00  0.00     0.182 HD
HETATM    4  C12 UNL     1       9.751  44.325  -6.257  1.00  0.00     0.249 A 
HETATM    5  N5  UNL     1      10.706  43.697  -5.368  1.00  0.00    -0.316 N 
ATOM      6  H5  UNL     1      11.127  42.816  -5.664  1.00  0.00     0.166 HD
HETATM    7  C13 UNL     1      11.047  44.167  -4.262  1.00  0.00     0.206 A 
HETATM    8  N6  UNL     1      11.994  43.520  -3.417  1.00  0.00    -0.063 NA
HETATM    9  N7  UNL     1      10.475  45.403  -3.789  1.00  0.00    -0.164 N 
ATOM     10  H7  UNL     1      10.744  45.797  -2.888  1.00  0.00     0.187 HD
HETATM   11  N8  UNL     1       8.800  43.341  -6.706  1.00  0.00    -0.315 N 
ATOM     12  H8  UNL     1       7.937  43.114  -6.211  1.00  0.00     0.166 HD
HETATM   13  C14 UNL     1       9.167  42.782  -7.805  1.00  0.00     0.211 C 
HETATM   14  N9  UNL     1       8.375  41.762  -8.447  1.00  0.00    -0.062 NA
HETATM   15  N10 UNL     1      10.401  43.314  -8.265  1.00  0.00    -0.227 N 
HETATM   16  C19 UNL     1      10.518  44.610  -7.578  1.00  0.00     0.316 C 
ENDROOT
BRANCH   1  17
HETATM   17  N3  UNL     1       8.938  47.263  -4.178  1.00  0.00    -0.212 N 
ATOM     18  H3  UNL     1       8.945  48.019  -4.862  1.00  0.00     0.178 HD
BRANCH  17  19
HETATM   19  C10 UNL     1       8.347  47.584  -2.938  1.00  0.00     0.200 C 
BRANCH  19  20
HETATM   20  C9  UNL     1       9.244  47.849  -1.777  1.00  0.00     0.038 C 
BRANCH  20  21
HETATM   21  C8  UNL     1       9.409  49.304  -1.465  1.00  0.00     0.030 C 
BRANCH  21  22
HETATM   22  C7  UNL     1      10.416  49.633  -0.421  1.00  0.00     0.234 C 
BRANCH  22  23
HETATM   23  N2  UNL     1      10.962  48.536   0.300  1.00  0.00    -0.058 N 
ATOM     24  H22 UNL     1      11.255  47.794  -0.335  1.00  0.00     0.279 HD
ATOM     25  H21 UNL     1      10.233  48.039   0.812  1.00  0.00     0.279 HD
BRANCH  23  26
HETATM   26  C6  UNL     1      12.047  48.919   1.185  1.00  0.00     0.377 C 
BRANCH  26  27
HETATM   27  N1  UNL     1      11.564  49.551   2.377  1.00  0.00    -0.259 N 
HETATM   28  C5  UNL     1      10.567  49.080   3.156  1.00  0.00     0.138 A 
HETATM   29  C4  UNL     1      10.390  49.946   4.210  1.00  0.00     0.065 A 
HETATM   30  N17 UNL     1      11.298  50.927   4.033  1.00  0.00    -0.285 N 
HETATM   31  N16 UNL     1      11.988  50.674   2.936  1.00  0.00    -0.019 NA
ATOM     32  H17 UNL     1      11.429  51.732   4.645  1.00  0.00     0.184 HD
BRANCH  29  33
HETATM   33  C3  UNL     1       9.395  49.795   5.296  1.00  0.00     0.238 C 
BRANCH  33  34
HETATM   34  O2  UNL     1       9.508  50.792   6.278  1.00  0.00    -0.316 OA
BRANCH  34  35
HETATM   35  C2  UNL     1       8.817  50.820   7.457  1.00  0.00     0.255 C 
HETATM   36  C1  UNL     1       8.282  49.582   8.109  1.00  0.00     0.126 C 
HETATM   37  O1  UNL     1       8.609  51.911   8.032  1.00  0.00    -0.266 OA
ENDBRANCH  34  35
ENDBRANCH  33  34
ENDBRANCH  29  33
ENDBRANCH  26  27
ENDBRANCH  23  26
ENDBRANCH  22  23
ENDBRANCH  21  22
ENDBRANCH  20  21
ENDBRANCH  19  20
BRANCH  19  38
HETATM   38  C20 UNL     1       7.390  46.504  -2.505  1.00  0.00     0.197 C 
HETATM   39  O5  UNL     1       7.788  45.449  -1.965  1.00  0.00    -0.646 OA
HETATM   40  O6  UNL     1       6.040  46.688  -2.712  1.00  0.00    -0.646 OA
ENDBRANCH  19  38
ENDBRANCH  17  19
ENDBRANCH   1  17
BRANCH  16  41
HETATM   41  O4  UNL     1      11.820  44.869  -7.204  1.00  0.00    -0.369 OA
ATOM     42  H4  UNL     1      11.777  45.154  -6.299  1.00  0.00     0.212 HD
ENDBRANCH  16  41
BRANCH  15  43
HETATM   43  N11 UNL     1      11.308  42.766  -9.161  1.00  0.00    -0.275 N 
ATOM     44  H11 UNL     1      11.345  43.200 -10.084  1.00  0.00     0.189 HD
BRANCH  43  45
HETATM   45  C15 UNL     1      12.176  41.691  -8.951  1.00  0.00     0.174 A 
HETATM   46  C16 UNL     1      13.456  41.967  -8.458  1.00  0.00     0.161 A 
HETATM   47  N12 UNL     1      13.906  43.289  -8.193  1.00  0.00    -0.092 NA
HETATM   48  C17 UNL     1      14.345  40.945  -8.209  1.00  0.00     0.275 A 
HETATM   49  O3  UNL     1      15.503  41.180  -7.766  1.00  0.00    -0.266 OA
HETATM   50  N13 UNL     1      13.931  39.670  -8.461  1.00  0.00    -0.297 N 
HETATM   51  C18 UNL     1      12.696  39.433  -8.935  1.00  0.00     0.201 A 
ATOM     52  H13 UNL     1      14.564  38.889  -8.288  1.00  0.00     0.171 HD
HETATM   53  S1  UNL     1      12.256  37.879  -9.216  1.00  0.00    -0.038 SA
HETATM   54  N14 UNL     1      11.802  40.416  -9.189  1.00  0.00    -0.216 N 
BRANCH  54  55
HETATM   55  N15 UNL     1      10.533  40.091  -9.678  1.00  0.00    -0.335 N 
ATOM     56 2H15 UNL     1      10.228  40.458 -10.579  1.00  0.00     0.177 HD
ATOM     57 1H15 UNL     1       9.890  39.490  -9.163  1.00  0.00     0.177 HD
ENDBRANCH  54  55
ENDBRANCH  43  45
ENDBRANCH  15  43
TORSDOF 16
ENDMDL
MODEL 2
REMARK VINA RESULT: -9.581938157      2.801      3.682
REMARK  16 active torsions:
REMARK  status: ('A' for Active; 'I' for Inactive)
REMARK    1  A    between atoms: C2_2  and  O2_4 
REMARK    2  A    between atoms: O2_4  and  C3_5 
REMARK    3  A    between atoms: C3_5  and  C4_6 
REMARK    4  A    between atoms: N1_8  and  C6_9 
REMARK    5  A    between atoms: C6_9  and  N2_10 
REMARK    6  A    between atoms: N2_10  and  C7_13 
REMARK    7  A    between atoms: C7_13  and  C8_14 
REMARK    8  A    between atoms: C8_14  and  C9_15 
REMARK    9  A    between atoms: C9_15  and  C10_16 
REMARK   10  A    between atoms: C10_16  and  N3_17 
REMARK   11  A    between atoms: C10_16  and  C20_52 
REMARK   12  A    between atoms: N3_17  and  C11_19 
REMARK   13  A    between atoms: N10_33  and  N11_34 
REMARK   14  A    between atoms: N11_34  and  C15_36 
REMARK   15  A    between atoms: N14_45  and  N15_46 
REMARK   16  A    between atoms: C19_49  and  O4_50 
ROOT
HETATM    1  C11 UNL     1       9.773  44.837  -4.300  1.00  0.00     0.680 A 
HETATM    2  N4  UNL     1       9.235  44.504  -5.435  1.00  0.00    -0.176 N 
ATOM      3  H4  UNL     1       8.234  44.651  -5.562  1.00  0.00     0.182 HD
HETATM    4  C12 UNL     1       9.982  43.944  -6.508  1.00  0.00     0.249 A 
HETATM    5  N5  UNL     1      11.389  43.752  -6.224  1.00  0.00    -0.316 N 
ATOM      6  H5  UNL     1      11.972  43.338  -6.952  1.00  0.00     0.166 HD
HETATM    7  C13 UNL     1      11.934  44.063  -5.143  1.00  0.00     0.206 A 
HETATM    8  N6  UNL     1      13.324  43.861  -4.904  1.00  0.00    -0.063 NA
HETATM    9  N7  UNL     1      11.157  44.640  -4.076  1.00  0.00    -0.164 N 
ATOM     10  H7  UNL     1      11.589  44.898  -3.189  1.00  0.00     0.187 HD
HETATM   11  N8  UNL     1       9.442  42.735  -7.076  1.00  0.00    -0.315 N 
ATOM     12  H8  UNL     1       9.055  41.970  -6.525  1.00  0.00     0.166 HD
HETATM   13  C14 UNL     1       9.506  42.736  -8.361  1.00  0.00     0.211 C 
HETATM   14  N9  UNL     1       9.027  41.629  -9.152  1.00  0.00    -0.062 NA
HETATM   15  N10 UNL     1      10.078  43.942  -8.846  1.00  0.00    -0.227 N 
HETATM   16  C19 UNL     1       9.919  44.894  -7.736  1.00  0.00     0.316 C 
ENDROOT
BRANCH   1  17
HETATM   17  N3  UNL     1       8.977  45.396  -3.268  1.00  0.00    -0.212 N 
ATOM     18  H3  UNL     1       8.400  44.729  -2.758  1.00  0.00     0.178 HD
BRANCH  17  19
HETATM   19  C10 UNL     1       8.864  46.735  -2.840  1.00  0.00     0.200 C 
BRANCH  19  20
HETATM   20  C9  UNL     1       8.955  47.018  -1.379  1.00  0.00     0.038 C 
BRANCH  20  21
HETATM   21  C8  UNL     1       9.949  48.083  -1.033  1.00  0.00     0.030 C 
BRANCH  21  22
HETATM   22  C7  UNL     1       9.460  49.484  -1.130  1.00  0.00     0.234 C 
BRANCH  22  23
HETATM   23  N2  UNL     1      10.024  50.416  -0.216  1.00  0.00    -0.058 N 
ATOM     24  H22 UNL     1       9.373  50.622   0.541  1.00  0.00     0.279 HD
ATOM     25  H21 UNL     1      10.091  51.343  -0.637  1.00  0.00     0.279 HD
BRANCH  23  26
HETATM   26  C6  UNL     1      11.310  49.992   0.308  1.00  0.00     0.377 C 
BRANCH  26  27
HETATM   27  N1  UNL     1      11.276  49.825   1.732  1.00  0.00    -0.259 N 
HETATM   28  C5  UNL     1      10.159  49.631   2.464  1.00  0.00     0.138 A 
HETATM   29  C4  UNL     1      10.519  49.506   3.785  1.00  0.00     0.065 A 
HETATM   30  N17 UNL     1      11.862  49.630   3.811  1.00  0.00    -0.285 N 
HETATM   31  N16 UNL     1      12.294  49.820   2.578  1.00  0.00    -0.019 NA
ATOM     32  H17 UNL     1      12.446  49.586   4.645  1.00  0.00     0.184 HD
BRANCH  29  33
HETATM   33  C3  UNL     1       9.592  49.280   4.917  1.00  0.00     0.238 C 
BRANCH  33  34
HETATM   34  O2  UNL     1       9.312  50.455   5.632  1.00  0.00    -0.316 OA
BRANCH  34  35
HETATM   35  C2  UNL     1       9.277  50.560   6.994  1.00  0.00     0.255 C 
HETATM   36  C1  UNL     1       8.328  49.768   7.841  1.00  0.00     0.126 C 
HETATM   37  O1  UNL     1      10.057  51.343   7.579  1.00  0.00    -0.266 OA
ENDBRANCH  34  35
ENDBRANCH  33  34
ENDBRANCH  29  33
ENDBRANCH  26  27
ENDBRANCH  23  26
ENDBRANCH  22  23
ENDBRANCH  21  22
ENDBRANCH  20  21
ENDBRANCH  19  20
BRANCH  19  38
HETATM   38  C20 UNL     1       7.571  47.343  -3.316  1.00  0.00     0.197 C 
HETATM   39  O5  UNL     1       7.548  48.368  -4.031  1.00  0.00    -0.646 OA
HETATM   40  O6  UNL     1       6.382  46.751  -2.949  1.00  0.00    -0.646 OA
ENDBRANCH  19  38
ENDBRANCH  17  19
ENDBRANCH   1  17
BRANCH  16  41
HETATM   41  O4  UNL     1      11.014  45.725  -7.621  1.00  0.00    -0.369 OA
ATOM     42  H4  UNL     1      10.876  46.421  -8.252  1.00  0.00     0.212 HD
ENDBRANCH  16  41
BRANCH  15  43
HETATM   43  N11 UNL     1      10.656  44.199 -10.081  1.00  0.00    -0.275 N 
ATOM     44  H11 UNL     1      11.610  43.859 -10.210  1.00  0.00     0.189 HD
BRANCH  43  45
HETATM   45  C15 UNL     1      10.090  44.867 -11.170  1.00  0.00     0.174 A 
HETATM   46  C16 UNL     1      10.352  46.234 -11.311  1.00  0.00     0.161 A 
HETATM   47  N12 UNL     1      11.142  46.962 -10.382  1.00  0.00    -0.092 NA
HETATM   48  C17 UNL     1       9.839  46.938 -12.379  1.00  0.00     0.275 A 
HETATM   49  O3  UNL     1      10.068  48.171 -12.517  1.00  0.00    -0.266 OA
HETATM   50  N13 UNL     1       9.076  46.255 -13.280  1.00  0.00    -0.297 N 
HETATM   51  C18 UNL     1       8.839  44.942 -13.119  1.00  0.00     0.201 A 
ATOM     52  H13 UNL     1       8.681  46.745 -14.082  1.00  0.00     0.171 HD
HETATM   53  S1  UNL     1       7.916  44.177 -14.237  1.00  0.00    -0.038 SA
HETATM   54  N14 UNL     1       9.328  44.225 -12.082  1.00  0.00    -0.216 N 
BRANCH  54  55
HETATM   55  N15 UNL     1       9.042  42.860 -11.985  1.00  0.00    -0.335 N 
ATOM     56 2H15 UNL     1       9.075  42.398 -11.076  1.00  0.00     0.177 HD
ATOM     57 1H15 UNL     1       8.795  42.298 -12.799  1.00  0.00     0.177 HD
ENDBRANCH  54  55
ENDBRANCH  43  45
ENDBRANCH  15  43
TORSDOF 16
ENDMDL
MODEL 3
REMARK VINA RESULT: -9.485196517      2.611      3.397
REMARK  16 active torsions:
REMARK  status: ('A' for Active; 'I' for Inactive)
REMARK    1  A    between atoms: C2_2  and  O2_4 
REMARK    2  A    between atoms: O2_4  and  C3_5 
REMARK    3  A    between atoms: C3_5  and  C4_6 
REMARK    4  A    between atoms: N1_8  and  C6_9 
REMARK    5  A    between atoms: C6_9  and  N2_10 
REMARK    6  A    between atoms: N2_10  and  C7_13 
REMARK    7  A    between atoms: C7_13  and  C8_14 
REMARK    8  A    between atoms: C8_14  and  C9_15 
REMARK    9  A    between atoms: C9_15  and  C10_16 
REMARK   10  A    between atoms: C10_16  and  N3_17 
REMARK   11  A    between atoms: C10_16  and  C20_52 
REMARK   12  A    between atoms: N3_17  and  C11_19 
REMARK   13  A    between atoms: N10_33  and  N11_34 
REMARK   14  A    between atoms: N11_34  and  C15_36 
REMARK   15  A    between atoms: N14_45  and  N15_46 
REMARK   16  A    between atoms: C19_49  and  O4_50 
ROOT
HETATM    1  C11 UNL     1       9.699  45.352  -2.873  1.00  0.00     0.680 A 
HETATM    2  N4  UNL     1      10.559  45.479  -3.839  1.00  0.00    -0.176 N 
ATOM      3  H4  UNL     1      10.909  46.410  -4.061  1.00  0.00     0.182 HD
HETATM    4  C12 UNL     1      11.031  44.374  -4.600  1.00  0.00     0.249 A 
HETATM    5  N5  UNL     1      10.459  43.098  -4.227  1.00  0.00    -0.316 N 
ATOM      6  H5  UNL     1      10.749  42.272  -4.750  1.00  0.00     0.166 HD
HETATM    7  C13 UNL     1       9.632  42.946  -3.302  1.00  0.00     0.206 A 
HETATM    8  N6  UNL     1       9.095  41.671  -2.962  1.00  0.00    -0.063 NA
HETATM    9  N7  UNL     1       9.178  44.080  -2.538  1.00  0.00    -0.164 N 
ATOM     10  H7  UNL     1       8.503  43.969  -1.781  1.00  0.00     0.187 HD
HETATM   11  N8  UNL     1      10.957  44.529  -6.030  1.00  0.00    -0.315 N 
ATOM     12  H8  UNL     1      10.159  44.933  -6.520  1.00  0.00     0.166 HD
HETATM   13  C14 UNL     1      12.017  44.097  -6.618  1.00  0.00     0.211 C 
HETATM   14  N9  UNL     1      12.171  44.145  -8.051  1.00  0.00    -0.062 NA
HETATM   15  N10 UNL     1      12.962  43.607  -5.678  1.00  0.00    -0.227 N 
HETATM   16  C19 UNL     1      12.566  44.229  -4.404  1.00  0.00     0.316 C 
ENDROOT
BRANCH   1  17
HETATM   17  N3  UNL     1       9.268  46.491  -2.146  1.00  0.00    -0.212 N 
ATOM     18  H3  UNL     1       8.851  46.291  -1.237  1.00  0.00     0.178 HD
BRANCH  17  19
HETATM   19  C10 UNL     1       9.327  47.857  -2.489  1.00  0.00     0.200 C 
BRANCH  19  20
HETATM   20  C9  UNL     1       9.187  48.864  -1.398  1.00  0.00     0.038 C 
BRANCH  20  21
HETATM   21  C8  UNL     1      10.224  48.737  -0.325  1.00  0.00     0.030 C 
BRANCH  21  22
HETATM   22  C7  UNL     1      10.921  49.993   0.057  1.00  0.00     0.234 C 
BRANCH  22  23
HETATM   23  N2  UNL     1      11.487  50.032   1.361  1.00  0.00    -0.058 N 
ATOM     24  H22 UNL     1      12.454  50.357   1.328  1.00  0.00     0.279 HD
ATOM     25  H21 UNL     1      11.640  49.088   1.719  1.00  0.00     0.279 HD
BRANCH  23  26
HETATM   26  C6  UNL     1      10.708  50.820   2.298  1.00  0.00     0.377 C 
BRANCH  26  27
HETATM   27  N1  UNL     1      10.243  50.031   3.401  1.00  0.00    -0.259 N 
HETATM   28  C5  UNL     1      10.041  48.697   3.370  1.00  0.00     0.138 A 
HETATM   29  C4  UNL     1       9.604  48.292   4.610  1.00  0.00     0.065 A 
HETATM   30  N17 UNL     1       9.555  49.410   5.362  1.00  0.00    -0.285 N 
HETATM   31  N16 UNL     1       9.940  50.436   4.624  1.00  0.00    -0.019 NA
ATOM     32  H17 UNL     1       9.268  49.456   6.340  1.00  0.00     0.184 HD
BRANCH  29  33
HETATM   33  C3  UNL     1       9.268  46.903   4.998  1.00  0.00     0.238 C 
BRANCH  33  34
HETATM   34  O2  UNL     1       9.412  45.994   3.938  1.00  0.00    -0.316 OA
BRANCH  34  35
HETATM   35  C2  UNL     1      10.464  45.137   3.772  1.00  0.00     0.255 C 
HETATM   36  C1  UNL     1      11.206  44.536   4.926  1.00  0.00     0.126 C 
HETATM   37  O1  UNL     1      10.841  44.829   2.619  1.00  0.00    -0.266 OA
ENDBRANCH  34  35
ENDBRANCH  33  34
ENDBRANCH  29  33
ENDBRANCH  26  27
ENDBRANCH  23  26
ENDBRANCH  22  23
ENDBRANCH  21  22
ENDBRANCH  20  21
ENDBRANCH  19  20
BRANCH  19  38
HETATM   38  C20 UNL     1       8.287  48.197  -3.523  1.00  0.00     0.197 C 
HETATM   39  O5  UNL     1       7.105  47.802  -3.424  1.00  0.00    -0.646 OA
HETATM   40  O6  UNL     1       8.652  48.964  -4.608  1.00  0.00    -0.646 OA
ENDBRANCH  19  38
ENDBRANCH  17  19
ENDBRANCH   1  17
BRANCH  16  41
HETATM   41  O4  UNL     1      12.727  43.360  -3.345  1.00  0.00    -0.369 OA
ATOM     42  H4  UNL     1      13.497  42.844  -3.550  1.00  0.00     0.212 HD
ENDBRANCH  16  41
BRANCH  15  43
HETATM   43  N11 UNL     1      14.029  42.744  -5.882  1.00  0.00    -0.275 N 
ATOM     44  H11 UNL     1      14.942  43.075  -5.566  1.00  0.00     0.189 HD
BRANCH  43  45
HETATM   45  C15 UNL     1      14.005  41.476  -6.468  1.00  0.00     0.174 A 
HETATM   46  C16 UNL     1      14.612  41.319  -7.719  1.00  0.00     0.161 A 
HETATM   47  N12 UNL     1      15.218  42.397  -8.417  1.00  0.00    -0.092 NA
HETATM   48  C17 UNL     1      14.639  40.085  -8.333  1.00  0.00     0.275 A 
HETATM   49  O3  UNL     1      15.182  39.931  -9.462  1.00  0.00    -0.266 OA
HETATM   50  N13 UNL     1      14.058  39.039  -7.679  1.00  0.00    -0.297 N 
HETATM   51  C18 UNL     1      13.482  39.219  -6.478  1.00  0.00     0.201 A 
ATOM     52  H13 UNL     1      14.061  38.113  -8.105  1.00  0.00     0.171 HD
HETATM   53  S1  UNL     1      12.803  37.921  -5.741  1.00  0.00    -0.038 SA
HETATM   54  N14 UNL     1      13.440  40.416  -5.851  1.00  0.00    -0.216 N 
BRANCH  54  55
HETATM   55  N15 UNL     1      12.826  40.523  -4.599  1.00  0.00    -0.335 N 
ATOM     56 2H15 UNL     1      12.134  41.255  -4.435  1.00  0.00     0.177 HD
ATOM     57 1H15 UNL     1      13.043  39.888  -3.832  1.00  0.00     0.177 HD
ENDBRANCH  54  55
ENDBRANCH  43  45
ENDBRANCH  15  43
TORSDOF 16
ENDMDL
MODEL 4
REMARK VINA RESULT: -9.463359591      1.819      2.438
REMARK  16 active torsions:
REMARK  status: ('A' for Active; 'I' for Inactive)
REMARK    1  A    between atoms: C2_2  and  O2_4 
REMARK    2  A    between atoms: O2_4  and  C3_5 
REMARK    3  A    between atoms: C3_5  and  C4_6 
REMARK    4  A    between atoms: N1_8  and  C6_9 
REMARK    5  A    between atoms: C6_9  and  N2_10 
REMARK    6  A    between atoms: N2_10  and  C7_13 
REMARK    7  A    between atoms: C7_13  and  C8_14 
REMARK    8  A    between atoms: C8_14  and  C9_15 
REMARK    9  A    between atoms: C9_15  and  C10_16 
REMARK   10  A    between atoms: C10_16  and  N3_17 
REMARK   11  A    between atoms: C10_16  and  C20_52 
REMARK   12  A    between atoms: N3_17  and  C11_19 
REMARK   13  A    between atoms: N10_33  and  N11_34 
REMARK   14  A    between atoms: N11_34  and  C15_36 
REMARK   15  A    between atoms: N14_45  and  N15_46 
REMARK   16  A    between atoms: C19_49  and  O4_50 
ROOT
HETATM    1  C11 UNL     1       9.707  46.058  -4.556  1.00  0.00     0.680 A 
HETATM    2  N4  UNL     1       9.335  45.544  -5.689  1.00  0.00    -0.176 N 
ATOM      3  H4  UNL     1       8.674  46.062  -6.267  1.00  0.00     0.182 HD
HETATM    4  C12 UNL     1       9.811  44.288  -6.159  1.00  0.00     0.249 A 
HETATM    5  N5  UNL     1      10.727  43.618  -5.260  1.00  0.00    -0.316 N 
ATOM      6  H5  UNL     1      11.088  42.705  -5.538  1.00  0.00     0.166 HD
HETATM    7  C13 UNL     1      11.102  44.088  -4.165  1.00  0.00     0.206 A 
HETATM    8  N6  UNL     1      12.008  43.398  -3.309  1.00  0.00    -0.063 NA
HETATM    9  N7  UNL     1      10.614  45.368  -3.716  1.00  0.00    -0.164 N 
ATOM     10  H7  UNL     1      10.913  45.763  -2.825  1.00  0.00     0.187 HD
HETATM   11  N8  UNL     1       8.795  43.360  -6.584  1.00  0.00    -0.315 N 
ATOM     12  H8  UNL     1       7.922  43.200  -6.083  1.00  0.00     0.166 HD
HETATM   13  C14 UNL     1       9.120  42.755  -7.673  1.00  0.00     0.211 C 
HETATM   14  N9  UNL     1       8.260  41.775  -8.290  1.00  0.00    -0.062 NA
HETATM   15  N10 UNL     1      10.385  43.195  -8.147  1.00  0.00    -0.227 N 
HETATM   16  C19 UNL     1      10.590  44.494  -7.488  1.00  0.00     0.316 C 
ENDROOT
BRANCH   1  17
HETATM   17  N3  UNL     1       9.202  47.317  -4.141  1.00  0.00    -0.212 N 
ATOM     18  H3  UNL     1       9.347  48.080  -4.801  1.00  0.00     0.178 HD
BRANCH  17  19
HETATM   19  C10 UNL     1       8.528  47.673  -2.954  1.00  0.00     0.200 C 
BRANCH  19  20
HETATM   20  C9  UNL     1       9.342  47.919  -1.729  1.00  0.00     0.038 C 
BRANCH  20  21
HETATM   21  C8  UNL     1       9.374  49.356  -1.308  1.00  0.00     0.030 C 
BRANCH  21  22
HETATM   22  C7  UNL     1      10.366  49.701  -0.255  1.00  0.00     0.234 C 
BRANCH  22  23
HETATM   23  N2  UNL     1       9.878  50.445   0.854  1.00  0.00    -0.058 N 
ATOM     24  H22 UNL     1       8.982  50.077   1.173  1.00  0.00     0.279 HD
ATOM     25  H21 UNL     1       9.582  51.378   0.565  1.00  0.00     0.279 HD
BRANCH  23  26
HETATM   26  C6  UNL     1      10.826  50.521   1.951  1.00  0.00     0.377 C 
BRANCH  26  27
HETATM   27  N1  UNL     1      10.354  49.826   3.112  1.00  0.00    -0.259 N 
HETATM   28  C5  UNL     1      10.100  48.502   3.175  1.00  0.00     0.138 A 
HETATM   29  C4  UNL     1       9.673  48.199   4.446  1.00  0.00     0.065 A 
HETATM   30  N17 UNL     1       9.682  49.365   5.123  1.00  0.00    -0.285 N 
HETATM   31  N16 UNL     1      10.091  50.323   4.311  1.00  0.00    -0.019 NA
ATOM     32  H17 UNL     1       9.416  49.487   6.100  1.00  0.00     0.184 HD
BRANCH  29  33
HETATM   33  C3  UNL     1       9.292  46.853   4.933  1.00  0.00     0.238 C 
BRANCH  33  34
HETATM   34  O2  UNL     1       9.382  45.870   3.935  1.00  0.00    -0.316 OA
BRANCH  34  35
HETATM   35  C2  UNL     1      10.450  45.039   3.739  1.00  0.00     0.255 C 
HETATM   36  C1  UNL     1      11.175  44.376   4.871  1.00  0.00     0.126 C 
HETATM   37  O1  UNL     1      10.857  44.810   2.579  1.00  0.00    -0.266 OA
ENDBRANCH  34  35
ENDBRANCH  33  34
ENDBRANCH  29  33
ENDBRANCH  26  27
ENDBRANCH  23  26
ENDBRANCH  22  23
ENDBRANCH  21  22
ENDBRANCH  20  21
ENDBRANCH  19  20
BRANCH  19  38
HETATM   38  C20 UNL     1       7.502  46.633  -2.586  1.00  0.00     0.197 C 
HETATM   39  O5  UNL     1       6.303  46.743  -2.920  1.00  0.00    -0.646 OA
HETATM   40  O6  UNL     1       7.901  45.532  -1.859  1.00  0.00    -0.646 OA
ENDBRANCH  19  38
ENDBRANCH  17  19
ENDBRANCH   1  17
BRANCH  16  41
HETATM   41  O4  UNL     1      11.908  44.675  -7.124  1.00  0.00    -0.369 OA
ATOM     42  H4  UNL     1      12.346  45.005  -7.899  1.00  0.00     0.212 HD
ENDBRANCH  16  41
BRANCH  15  43
HETATM   43  N11 UNL     1      11.250  42.570  -9.034  1.00  0.00    -0.275 N 
ATOM     44  H11 UNL     1      11.199  42.879 -10.005  1.00  0.00     0.189 HD
BRANCH  43  45
HETATM   45  C15 UNL     1      12.183  41.567  -8.757  1.00  0.00     0.174 A 
HETATM   46  C16 UNL     1      13.516  41.946  -8.562  1.00  0.00     0.161 A 
HETATM   47  N12 UNL     1      13.952  43.294  -8.663  1.00  0.00    -0.092 NA
HETATM   48  C17 UNL     1      14.474  41.002  -8.262  1.00  0.00     0.275 A 
HETATM   49  O3  UNL     1      15.680  41.330  -8.085  1.00  0.00    -0.266 OA
HETATM   50  N13 UNL     1      14.074  39.701  -8.165  1.00  0.00    -0.297 N 
HETATM   51  C18 UNL     1      12.787  39.366  -8.357  1.00  0.00     0.201 A 
ATOM     52  H13 UNL     1      14.758  38.978  -7.944  1.00  0.00     0.171 HD
HETATM   53  S1  UNL     1      12.368  37.787  -8.224  1.00  0.00    -0.038 SA
HETATM   54  N14 UNL     1      11.825  40.269  -8.653  1.00  0.00    -0.216 N 
BRANCH  54  55
HETATM   55  N15 UNL     1      10.506  39.844  -8.835  1.00  0.00    -0.335 N 
ATOM     56 2H15 UNL     1       9.861  40.413  -9.384  1.00  0.00     0.177 HD
ATOM     57 1H15 UNL     1      10.156  38.972  -8.437  1.00  0.00     0.177 HD
ENDBRANCH  54  55
ENDBRANCH  43  45
ENDBRANCH  15  43
TORSDOF 16
ENDMDL
MODEL 5
REMARK VINA RESULT: -9.308214328      2.222      2.871
REMARK  16 active torsions:
REMARK  status: ('A' for Active; 'I' for Inactive)
REMARK    1  A    between atoms: C2_2  and  O2_4 
REMARK    2  A    between atoms: O2_4  and  C3_5 
REMARK    3  A    between atoms: C3_5  and  C4_6 
REMARK    4  A    between atoms: N1_8  and  C6_9 
REMARK    5  A    between atoms: C6_9  and  N2_10 
REMARK    6  A    between atoms: N2_10  and  C7_13 
REMARK    7  A    between atoms: C7_13  and  C8_14 
REMARK    8  A    between atoms: C8_14  and  C9_15 
REMARK    9  A    between atoms: C9_15  and  C10_16 
REMARK   10  A    between atoms: C10_16  and  N3_17 
REMARK   11  A    between atoms: C10_16  and  C20_52 
REMARK   12  A    between atoms: N3_17  and  C11_19 
REMARK   13  A    between atoms: N10_33  and  N11_34 
REMARK   14  A    between atoms: N11_34  and  C15_36 
REMARK   15  A    between atoms: N14_45  and  N15_46 
REMARK   16  A    between atoms: C19_49  and  O4_50 
ROOT
HETATM    1  C11 UNL     1       9.638  45.192  -2.827  1.00  0.00     0.680 A 
HETATM    2  N4  UNL     1      10.501  45.362  -3.783  1.00  0.00    -0.176 N 
ATOM      3  H4  UNL     1      10.834  46.306  -3.979  1.00  0.00     0.182 HD
HETATM    4  C12 UNL     1      11.002  44.288  -4.570  1.00  0.00     0.249 A 
HETATM    5  N5  UNL     1      10.454  42.990  -4.234  1.00  0.00    -0.316 N 
ATOM      6  H5  UNL     1      10.764  42.185  -4.776  1.00  0.00     0.166 HD
HETATM    7  C13 UNL     1       9.624  42.797  -3.320  1.00  0.00     0.206 A 
HETATM    8  N6  UNL     1       9.111  41.503  -3.017  1.00  0.00    -0.063 NA
HETATM    9  N7  UNL     1       9.141  43.901  -2.529  1.00  0.00    -0.164 N 
ATOM     10  H7  UNL     1       8.464  43.756  -1.781  1.00  0.00     0.187 HD
HETATM   11  N8  UNL     1      10.934  44.478  -5.996  1.00  0.00    -0.315 N 
ATOM     12  H8  UNL     1      10.130  44.878  -6.480  1.00  0.00     0.166 HD
HETATM   13  C14 UNL     1      12.007  44.084  -6.587  1.00  0.00     0.211 C 
HETATM   14  N9  UNL     1      12.169  44.173  -8.018  1.00  0.00    -0.062 NA
HETATM   15  N10 UNL     1      12.955  43.589  -5.653  1.00  0.00    -0.227 N 
HETATM   16  C19 UNL     1      12.538  44.169  -4.367  1.00  0.00     0.316 C 
ENDROOT
BRANCH   1  17
HETATM   17  N3  UNL     1       9.178  46.302  -2.074  1.00  0.00    -0.212 N 
ATOM     18  H3  UNL     1       8.705  46.066  -1.202  1.00  0.00     0.178 HD
BRANCH  17  19
HETATM   19  C10 UNL     1       9.276  47.682  -2.347  1.00  0.00     0.200 C 
BRANCH  19  20
HETATM   20  C9  UNL     1       8.979  48.641  -1.245  1.00  0.00     0.038 C 
BRANCH  20  21
HETATM   21  C8  UNL     1      10.121  49.552  -0.915  1.00  0.00     0.030 C 
BRANCH  21  22
HETATM   22  C7  UNL     1      10.096  50.159   0.442  1.00  0.00     0.234 C 
BRANCH  22  23
HETATM   23  N2  UNL     1      11.276  50.010   1.223  1.00  0.00    -0.058 N 
ATOM     24  H22 UNL     1      11.099  50.253   2.198  1.00  0.00     0.279 HD
ATOM     25  H21 UNL     1      11.959  50.732   0.992  1.00  0.00     0.279 HD
BRANCH  23  26
HETATM   26  C6  UNL     1      11.865  48.688   1.118  1.00  0.00     0.377 C 
BRANCH  26  27
HETATM   27  N1  UNL     1      11.268  47.763   2.036  1.00  0.00    -0.259 N 
HETATM   28  C5  UNL     1      10.884  48.059   3.296  1.00  0.00     0.138 A 
HETATM   29  C4  UNL     1      10.349  46.929   3.867  1.00  0.00     0.065 A 
HETATM   30  N17 UNL     1      10.426  45.971   2.922  1.00  0.00    -0.285 N 
HETATM   31  N16 UNL     1      10.976  46.487   1.838  1.00  0.00    -0.019 NA
ATOM     32  H17 UNL     1      10.112  45.006   3.026  1.00  0.00     0.184 HD
BRANCH  29  33
HETATM   33  C3  UNL     1       9.808  46.827   5.242  1.00  0.00     0.238 C 
BRANCH  33  34
HETATM   34  O2  UNL     1      10.059  47.975   6.010  1.00  0.00    -0.316 OA
BRANCH  34  35
HETATM   35  C2  UNL     1       9.214  48.495   6.951  1.00  0.00     0.255 C 
HETATM   36  C1  UNL     1       7.955  47.803   7.377  1.00  0.00     0.126 C 
HETATM   37  O1  UNL     1       9.482  49.590   7.491  1.00  0.00    -0.266 OA
ENDBRANCH  34  35
ENDBRANCH  33  34
ENDBRANCH  29  33
ENDBRANCH  26  27
ENDBRANCH  23  26
ENDBRANCH  22  23
ENDBRANCH  21  22
ENDBRANCH  20  21
ENDBRANCH  19  20
BRANCH  19  38
HETATM   38  C20 UNL     1       8.387  48.065  -3.501  1.00  0.00     0.197 C 
HETATM   39  O5  UNL     1       7.167  47.794  -3.512  1.00  0.00    -0.646 OA
HETATM   40  O6  UNL     1       8.939  48.732  -4.573  1.00  0.00    -0.646 OA
ENDBRANCH  19  38
ENDBRANCH  17  19
ENDBRANCH   1  17
BRANCH  16  41
HETATM   41  O4  UNL     1      12.709  43.276  -3.330  1.00  0.00    -0.369 OA
ATOM     42  H4  UNL     1      13.318  42.622  -3.651  1.00  0.00     0.212 HD
ENDBRANCH  16  41
BRANCH  15  43
HETATM   43  N11 UNL     1      14.042  42.754  -5.872  1.00  0.00    -0.275 N 
ATOM     44  H11 UNL     1      14.948  43.107  -5.565  1.00  0.00     0.189 HD
BRANCH  43  45
HETATM   45  C15 UNL     1      14.043  41.487  -6.462  1.00  0.00     0.174 A 
HETATM   46  C16 UNL     1      14.640  41.350  -7.720  1.00  0.00     0.161 A 
HETATM   47  N12 UNL     1      15.212  42.445  -8.421  1.00  0.00    -0.092 NA
HETATM   48  C17 UNL     1      14.691  40.119  -8.339  1.00  0.00     0.275 A 
HETATM   49  O3  UNL     1      15.226  39.982  -9.474  1.00  0.00    -0.266 OA
HETATM   50  N13 UNL     1      14.144  39.057  -7.682  1.00  0.00    -0.297 N 
HETATM   51  C18 UNL     1      13.577  39.218  -6.475  1.00  0.00     0.201 A 
ATOM     52  H13 UNL     1      14.166  38.132  -8.111  1.00  0.00     0.171 HD
HETATM   53  S1  UNL     1      12.938  37.902  -5.735  1.00  0.00    -0.038 SA
HETATM   54  N14 UNL     1      13.511  40.412  -5.843  1.00  0.00    -0.216 N 
BRANCH  54  55
HETATM   55  N15 UNL     1      12.908  40.500  -4.585  1.00  0.00    -0.335 N 
ATOM     56 2H15 UNL     1      13.361  41.032  -3.841  1.00  0.00     0.177 HD
ATOM     57 1H15 UNL     1      12.017  40.049  -4.377  1.00  0.00     0.177 HD
ENDBRANCH  54  55
ENDBRANCH  43  45
ENDBRANCH  15  43
TORSDOF 16
ENDMDL
