MODEL 1
REMARK VINA RESULT: -10.961003153      0.000      0.000
REMARK  14 active torsions:
REMARK  status: ('A' for Active; 'I' for Inactive)
REMARK    1  A    between atoms: N1_1  and  C1_4 
REMARK    2  A    between atoms: N4_13  and  C6_14 
REMARK    3  A    between atoms: C6_14  and  C7_15 
REMARK    4  A    between atoms: C7_15  and  O1_16 
REMARK    5  A    between atoms: C7_15  and  C8_18 
REMARK    6  A    between atoms: C8_18  and  N5_19 
REMARK    7  A    between atoms: C10_21  and  C11_22 
REMARK    8  A    between atoms: C12_27  and  C13_28 
REMARK    9  A    between atoms: C13_28  and  O2_29 
REMARK   10  A    between atoms: C13_28  and  N8_31 
REMARK       I    between atoms: N8_31  and  C14_33 
REMARK       I    between atoms: C14_33  and  N9_34 
REMARK       I    between atoms: C14_33  and  N10_38 
REMARK   11  A    between atoms: N10_38  and  C15_40 
REMARK   12  A    between atoms: C16_43  and  O3_44 
REMARK   13  A    between atoms: C17_46  and  C18_47 
REMARK   14  A    between atoms: C18_47  and  C19_48 
ROOT
HETATM    1  C11 UNL     1       9.439  47.357  -1.886  1.00  0.00     0.194 A 
HETATM    2  N6  UNL     1       8.207  47.000  -2.272  1.00  0.00    -0.276 N 
ATOM      3  H6  UNL     1       7.348  47.462  -1.974  1.00  0.00     0.189 HD
HETATM    4  N7  UNL     1       8.258  45.968  -3.089  1.00  0.00    -0.278 N 
ATOM      5  H7  UNL     1       7.466  45.498  -3.527  1.00  0.00     0.189 HD
HETATM    6  C12 UNL     1       9.558  45.653  -3.234  1.00  0.00     0.189 A 
HETATM    7  O5  UNL     1      10.227  46.509  -2.497  1.00  0.00    -0.271 OA
ENDROOT
BRANCH   6   8
HETATM    8  C13 UNL     1      10.120  44.553  -4.066  1.00  0.00     0.294 C 
BRANCH   8   9
HETATM    9  O2  UNL     1      11.375  44.161  -3.539  1.00  0.00    -0.369 OA
ATOM     10  H2  UNL     1      11.837  43.639  -4.183  1.00  0.00     0.212 HD
ENDBRANCH   8   9
BRANCH   8  11
HETATM   11  N8  UNL     1      10.328  44.865  -5.430  1.00  0.00    -0.347 N 
HETATM   12  C14 UNL     1      11.309  44.107  -6.135  1.00  0.00     0.399 C 
HETATM   13  N9  UNL     1      11.030  42.700  -6.265  1.00  0.00    -0.040 N 
HETATM   14  N10 UNL     1      11.687  44.743  -7.346  1.00  0.00    -0.180 N 
ATOM     15  H93 UNL     1      10.867  42.291  -5.345  1.00  0.00     0.279 HD
ATOM     16  H92 UNL     1      10.112  42.564  -6.688  1.00  0.00     0.279 HD
ATOM     17  H91 UNL     1      11.731  42.157  -6.770  1.00  0.00     0.279 HD
ATOM     18  H10 UNL     1      12.667  45.022  -7.386  1.00  0.00     0.181 HD
ATOM     19  H8  UNL     1       9.798  45.604  -5.891  1.00  0.00     0.160 HD
BRANCH  14  20
HETATM   20  C15 UNL     1      11.027  45.021  -8.378  1.00  0.00     0.686 A 
HETATM   21  N11 UNL     1      10.749  46.331  -8.657  1.00  0.00    -0.170 N 
HETATM   22  C16 UNL     1      10.045  46.641  -9.759  1.00  0.00     0.167 A 
ATOM     23  H11 UNL     1      11.076  47.069  -8.033  1.00  0.00     0.186 HD
HETATM   24  C17 UNL     1       9.586  45.645 -10.631  1.00  0.00     0.069 A 
HETATM   25  C20 UNL     1       9.876  44.351 -10.327  1.00  0.00     0.270 A 
HETATM   26  O4  UNL     1       9.488  43.423 -11.078  1.00  0.00    -0.267 OA
HETATM   27  N16 UNL     1      10.593  44.066  -9.205  1.00  0.00    -0.155 N 
ATOM     28  H16 UNL     1      10.805  43.092  -8.989  1.00  0.00     0.187 HD
BRANCH  22  29
HETATM   29  O3  UNL     1       9.741  47.952 -10.082  1.00  0.00    -0.345 OA
ATOM     30  H3  UNL     1       9.253  48.172 -10.866  1.00  0.00     0.219 HD
ENDBRANCH  22  29
BRANCH  24  31
HETATM   31  C18 UNL     1       8.814  45.963 -11.839  1.00  0.00     0.127 C 
BRANCH  31  32
HETATM   32  C19 UNL     1       9.629  46.425 -12.960  1.00  0.00     0.111 A 
HETATM   33  N12 UNL     1      10.335  47.559 -13.018  1.00  0.00    -0.274 N 
HETATM   34  N13 UNL     1      10.932  47.601 -14.209  1.00  0.00    -0.007 NA
ATOM     35  H12 UNL     1      10.404  48.265 -12.284  1.00  0.00     0.185 HD
HETATM   36  N14 UNL     1      10.619  46.514 -14.905  1.00  0.00    -0.007 NA
HETATM   37  N15 UNL     1       9.814  45.793 -14.127  1.00  0.00    -0.274 N 
ATOM     38  H15 UNL     1       9.400  44.896 -14.381  1.00  0.00     0.185 HD
ENDBRANCH  31  32
ENDBRANCH  24  31
ENDBRANCH  14  20
ENDBRANCH   8  11
ENDBRANCH   6   8
BRANCH   1  39
HETATM   39  C10 UNL     1       9.807  48.442  -0.993  1.00  0.00     0.119 A 
HETATM   40  C9  UNL     1      10.720  48.386   0.061  1.00  0.00     0.147 A 
HETATM   41  N5  UNL     1      10.787  49.590   0.649  1.00  0.00    -0.284 N 
HETATM   42  N18 UNL     1       9.969  50.374   0.014  1.00  0.00    -0.240 N 
HETATM   43  N17 UNL     1       9.363  49.708  -0.982  1.00  0.00    -0.281 N 
ATOM     44  H18 UNL     1       9.809  51.356   0.240  1.00  0.00     0.208 HD
ATOM     45  H17 UNL     1       8.677  50.101  -1.627  1.00  0.00     0.188 HD
BRANCH  41  46
HETATM   46  C8  UNL     1      11.610  49.980   1.788  1.00  0.00     0.183 C 
BRANCH  46  47
HETATM   47  C7  UNL     1      10.763  50.362   2.955  1.00  0.00     0.156 C 
BRANCH  47  48
HETATM   48  C6  UNL     1      10.016  49.160   3.460  1.00  0.00     0.163 C 
BRANCH  48  49
HETATM   49  N4  UNL     1       9.596  49.251   4.827  1.00  0.00    -0.336 N 
HETATM   50  C3  UNL     1       9.334  48.186   5.611  1.00  0.00     0.096 A 
HETATM   51  C2  UNL     1       9.378  46.821   5.385  1.00  0.00     0.139 A 
HETATM   52  C4  UNL     1       8.962  48.617   6.861  1.00  0.00     0.150 A 
HETATM   53  N2  UNL     1       9.055  45.997   6.396  1.00  0.00    -0.200 N 
HETATM   54  C1  UNL     1       8.693  46.442   7.609  1.00  0.00     0.677 A 
ATOM     55  H2  UNL     1       9.087  44.990   6.235  1.00  0.00     0.183 HD
HETATM   56  N19 UNL     1       8.638  47.758   7.872  1.00  0.00    -0.175 N 
ATOM     57  H19 UNL     1       8.365  48.103   8.792  1.00  0.00     0.186 HD
HETATM   58  N3  UNL     1       9.003  49.969   6.821  1.00  0.00    -0.336 N 
HETATM   59  C5  UNL     1       9.386  50.338   5.594  1.00  0.00     0.185 A 
ATOM     60  H3  UNL     1       8.782  50.598   7.593  1.00  0.00     0.168 HD
BRANCH  54  61
HETATM   61  N1  UNL     1       8.392  45.584   8.550  1.00  0.00    -0.234 N 
ATOM     62  H12 UNL     1       7.413  45.434   8.798  1.00  0.00     0.174 HD
ATOM     63  H11 UNL     1       9.137  45.076   9.027  1.00  0.00     0.174 HD
ENDBRANCH  54  61
ENDBRANCH  48  49
ENDBRANCH  47  48
BRANCH  47  64
HETATM   64  O1  UNL     1      11.619  50.851   3.950  1.00  0.00    -0.392 OA
ATOM     65  H1  UNL     1      11.365  51.732   4.196  1.00  0.00     0.210 HD
ENDBRANCH  47  64
ENDBRANCH  46  47
ENDBRANCH  41  46
ENDBRANCH   1  39
TORSDOF 14
ENDMDL
MODEL 2
REMARK VINA RESULT: -10.673240757      1.404      2.043
REMARK  14 active torsions:
REMARK  status: ('A' for Active; 'I' for Inactive)
REMARK    1  A    between atoms: N1_1  and  C1_4 
REMARK    2  A    between atoms: N4_13  and  C6_14 
REMARK    3  A    between atoms: C6_14  and  C7_15 
REMARK    4  A    between atoms: C7_15  and  O1_16 
REMARK    5  A    between atoms: C7_15  and  C8_18 
REMARK    6  A    between atoms: C8_18  and  N5_19 
REMARK    7  A    between atoms: C10_21  and  C11_22 
REMARK    8  A    between atoms: C12_27  and  C13_28 
REMARK    9  A    between atoms: C13_28  and  O2_29 
REMARK   10  A    between atoms: C13_28  and  N8_31 
REMARK       I    between atoms: N8_31  and  C14_33 
REMARK       I    between atoms: C14_33  and  N9_34 
REMARK       I    between atoms: C14_33  and  N10_38 
REMARK   11  A    between atoms: N10_38  and  C15_40 
REMARK   12  A    between atoms: C16_43  and  O3_44 
REMARK   13  A    between atoms: C17_46  and  C18_47 
REMARK   14  A    between atoms: C18_47  and  C19_48 
ROOT
HETATM    1  C11 UNL     1       9.788  46.121  -2.562  1.00  0.00     0.194 A 
HETATM    2  N6  UNL     1       8.987  45.050  -2.636  1.00  0.00    -0.276 N 
ATOM      3  H6  UNL     1       8.076  44.974  -2.183  1.00  0.00     0.189 HD
HETATM    4  N7  UNL     1       9.537  44.109  -3.376  1.00  0.00    -0.278 N 
ATOM      5  H7  UNL     1       9.140  43.195  -3.593  1.00  0.00     0.189 HD
HETATM    6  C12 UNL     1      10.724  44.587  -3.789  1.00  0.00     0.189 A 
HETATM    7  O5  UNL     1      10.833  45.792  -3.278  1.00  0.00    -0.271 OA
ENDROOT
BRANCH   6   8
HETATM    8  C13 UNL     1      11.714  43.887  -4.655  1.00  0.00     0.294 C 
BRANCH   8   9
HETATM    9  O2  UNL     1      13.024  44.196  -4.213  1.00  0.00    -0.369 OA
ATOM     10  H2  UNL     1      13.090  44.021  -3.281  1.00  0.00     0.212 HD
ENDBRANCH   8   9
BRANCH   8  11
HETATM   11  N8  UNL     1      11.659  44.211  -6.030  1.00  0.00    -0.347 N 
HETATM   12  C14 UNL     1      12.207  43.269  -6.950  1.00  0.00     0.399 C 
HETATM   13  N9  UNL     1      11.549  41.989  -6.993  1.00  0.00    -0.040 N 
HETATM   14  N10 UNL     1      12.433  43.854  -8.223  1.00  0.00    -0.180 N 
ATOM     15  H93 UNL     1      11.514  41.584  -6.057  1.00  0.00     0.279 HD
ATOM     16  H92 UNL     1      10.553  42.115  -7.173  1.00  0.00     0.279 HD
ATOM     17  H91 UNL     1      11.941  41.314  -7.651  1.00  0.00     0.279 HD
ATOM     18  H10 UNL     1      13.411  43.877  -8.508  1.00  0.00     0.181 HD
ATOM     19  H8  UNL     1      11.245  45.085  -6.352  1.00  0.00     0.160 HD
BRANCH  14  20
HETATM   20  C15 UNL     1      11.638  44.349  -9.060  1.00  0.00     0.686 A 
HETATM   21  N11 UNL     1      11.530  45.709  -9.153  1.00  0.00    -0.170 N 
HETATM   22  C16 UNL     1      10.683  46.249 -10.047  1.00  0.00     0.167 A 
ATOM     23  H11 UNL     1      12.088  46.310  -8.548  1.00  0.00     0.186 HD
HETATM   24  C17 UNL     1       9.905  45.444 -10.889  1.00  0.00     0.069 A 
HETATM   25  C20 UNL     1      10.033  44.094 -10.774  1.00  0.00     0.270 A 
HETATM   26  O4  UNL     1       9.358  43.330 -11.507  1.00  0.00    -0.267 OA
HETATM   27  N16 UNL     1      10.899  43.574  -9.861  1.00  0.00    -0.155 N 
ATOM     28  H16 UNL     1      10.987  42.561  -9.785  1.00  0.00     0.187 HD
BRANCH  22  29
HETATM   29  O3  UNL     1      10.541  47.619 -10.177  1.00  0.00    -0.345 OA
ATOM     30  H3  UNL     1      11.275  48.178 -10.402  1.00  0.00     0.219 HD
ENDBRANCH  22  29
BRANCH  24  31
HETATM   31  C18 UNL     1       8.975  46.014 -11.871  1.00  0.00     0.127 C 
BRANCH  31  32
HETATM   32  C19 UNL     1       9.613  46.448 -13.112  1.00  0.00     0.111 A 
HETATM   33  N12 UNL     1      10.285  47.588 -13.306  1.00  0.00    -0.274 N 
HETATM   34  N13 UNL     1      10.703  47.597 -14.572  1.00  0.00    -0.007 NA
ATOM     35  H12 UNL     1      10.447  48.318 -12.612  1.00  0.00     0.185 HD
HETATM   36  N14 UNL     1      10.311  46.485 -15.181  1.00  0.00    -0.007 NA
HETATM   37  N15 UNL     1       9.638  45.780 -14.273  1.00  0.00    -0.274 N 
ATOM     38  H15 UNL     1       9.206  44.870 -14.437  1.00  0.00     0.185 HD
ENDBRANCH  31  32
ENDBRANCH  24  31
ENDBRANCH  14  20
ENDBRANCH   8  11
ENDBRANCH   6   8
BRANCH   1  39
HETATM   39  C10 UNL     1       9.544  47.362  -1.847  1.00  0.00     0.119 A 
HETATM   40  C9  UNL     1       9.651  47.570  -0.471  1.00  0.00     0.147 A 
HETATM   41  N5  UNL     1       9.345  48.847  -0.195  1.00  0.00    -0.284 N 
HETATM   42  N18 UNL     1       9.060  49.427  -1.322  1.00  0.00    -0.240 N 
HETATM   43  N17 UNL     1       9.171  48.554  -2.336  1.00  0.00    -0.281 N 
ATOM     44  H18 UNL     1       8.789  50.405  -1.423  1.00  0.00     0.208 HD
ATOM     45  H17 UNL     1       8.999  48.763  -3.320  1.00  0.00     0.188 HD
BRANCH  41  46
HETATM   46  C8  UNL     1       9.326  49.496   1.111  1.00  0.00     0.183 C 
BRANCH  46  47
HETATM   47  C7  UNL     1      10.626  50.174   1.391  1.00  0.00     0.156 C 
BRANCH  47  48
HETATM   48  C6  UNL     1      11.495  49.284   2.234  1.00  0.00     0.163 C 
BRANCH  48  49
HETATM   49  N4  UNL     1      10.778  48.439   3.142  1.00  0.00    -0.336 N 
HETATM   50  C3  UNL     1      10.174  48.876   4.266  1.00  0.00     0.096 A 
HETATM   51  C2  UNL     1      10.060  50.128   4.845  1.00  0.00     0.139 A 
HETATM   52  C4  UNL     1       9.574  47.818   4.906  1.00  0.00     0.150 A 
HETATM   53  N2  UNL     1       9.373  50.239   5.994  1.00  0.00    -0.200 N 
HETATM   54  C1  UNL     1       8.797  49.190   6.601  1.00  0.00     0.677 A 
ATOM     55  H2  UNL     1       9.286  51.161   6.424  1.00  0.00     0.183 HD
HETATM   56  N19 UNL     1       8.882  47.958   6.073  1.00  0.00    -0.175 N 
ATOM     57  H19 UNL     1       8.445  47.156   6.529  1.00  0.00     0.186 HD
HETATM   58  N3  UNL     1       9.827  46.727   4.145  1.00  0.00    -0.336 N 
HETATM   59  C5  UNL     1      10.550  47.114   3.089  1.00  0.00     0.185 A 
ATOM     60  H3  UNL     1       9.518  45.775   4.343  1.00  0.00     0.168 HD
BRANCH  54  61
HETATM   61  N1  UNL     1       8.142  49.369   7.719  1.00  0.00    -0.234 N 
ATOM     62  H12 UNL     1       7.628  50.238   7.866  1.00  0.00     0.174 HD
ATOM     63  H11 UNL     1       8.153  48.640   8.432  1.00  0.00     0.174 HD
ENDBRANCH  54  61
ENDBRANCH  48  49
ENDBRANCH  47  48
BRANCH  47  64
HETATM   64  O1  UNL     1      11.241  50.420   0.158  1.00  0.00    -0.392 OA
ATOM     65  H1  UNL     1      10.588  50.457  -0.532  1.00  0.00     0.210 HD
ENDBRANCH  47  64
ENDBRANCH  46  47
ENDBRANCH  41  46
ENDBRANCH   1  39
TORSDOF 14
ENDMDL
MODEL 3
REMARK VINA RESULT: -10.630826045      0.130      1.224
REMARK  14 active torsions:
REMARK  status: ('A' for Active; 'I' for Inactive)
REMARK    1  A    between atoms: N1_1  and  C1_4 
REMARK    2  A    between atoms: N4_13  and  C6_14 
REMARK    3  A    between atoms: C6_14  and  C7_15 
REMARK    4  A    between atoms: C7_15  and  O1_16 
REMARK    5  A    between atoms: C7_15  and  C8_18 
REMARK    6  A    between atoms: C8_18  and  N5_19 
REMARK    7  A    between atoms: C10_21  and  C11_22 
REMARK    8  A    between atoms: C12_27  and  C13_28 
REMARK    9  A    between atoms: C13_28  and  O2_29 
REMARK   10  A    between atoms: C13_28  and  N8_31 
REMARK       I    between atoms: N8_31  and  C14_33 
REMARK       I    between atoms: C14_33  and  N9_34 
REMARK       I    between atoms: C14_33  and  N10_38 
REMARK   11  A    between atoms: N10_38  and  C15_40 
REMARK   12  A    between atoms: C16_43  and  O3_44 
REMARK   13  A    between atoms: C17_46  and  C18_47 
REMARK   14  A    between atoms: C18_47  and  C19_48 
ROOT
HETATM    1  C11 UNL     1       9.466  47.309  -1.856  1.00  0.00     0.194 A 
HETATM    2  N6  UNL     1       8.238  46.883  -2.180  1.00  0.00    -0.276 N 
ATOM      3  H6  UNL     1       7.371  47.310  -1.854  1.00  0.00     0.189 HD
HETATM    4  N7  UNL     1       8.306  45.837  -2.979  1.00  0.00    -0.278 N 
ATOM      5  H7  UNL     1       7.520  45.320  -3.373  1.00  0.00     0.189 HD
HETATM    6  C12 UNL     1       9.612  45.583  -3.174  1.00  0.00     0.189 A 
HETATM    7  O5  UNL     1      10.269  46.487  -2.484  1.00  0.00    -0.271 OA
ENDROOT
BRANCH   6   8
HETATM    8  C13 UNL     1      10.192  44.494  -4.009  1.00  0.00     0.294 C 
BRANCH   8   9
HETATM    9  O2  UNL     1      11.456  44.126  -3.485  1.00  0.00    -0.369 OA
ATOM     10  H2  UNL     1      11.518  44.417  -2.583  1.00  0.00     0.212 HD
ENDBRANCH   8   9
BRANCH   8  11
HETATM   11  N8  UNL     1      10.390  44.810  -5.373  1.00  0.00    -0.347 N 
HETATM   12  C14 UNL     1      11.355  44.045  -6.092  1.00  0.00     0.399 C 
HETATM   13  N9  UNL     1      11.060  42.642  -6.225  1.00  0.00    -0.040 N 
HETATM   14  N10 UNL     1      11.728  44.683  -7.303  1.00  0.00    -0.180 N 
ATOM     15  H93 UNL     1      10.902  42.230  -5.305  1.00  0.00     0.279 HD
ATOM     16  H92 UNL     1      10.136  42.518  -6.640  1.00  0.00     0.279 HD
ATOM     17  H91 UNL     1      11.750  42.094  -6.739  1.00  0.00     0.279 HD
ATOM     18  H10 UNL     1      12.711  44.951  -7.351  1.00  0.00     0.181 HD
ATOM     19  H8  UNL     1       9.864  45.558  -5.825  1.00  0.00     0.160 HD
BRANCH  14  20
HETATM   20  C15 UNL     1      11.061  44.973  -8.327  1.00  0.00     0.686 A 
HETATM   21  N11 UNL     1      10.641  43.970  -9.155  1.00  0.00    -0.170 N 
HETATM   22  C16 UNL     1       9.925  44.269 -10.253  1.00  0.00     0.167 A 
ATOM     23  H11 UNL     1      10.870  42.999  -8.941  1.00  0.00     0.186 HD
HETATM   24  C17 UNL     1       9.599  45.594 -10.567  1.00  0.00     0.069 A 
HETATM   25  C20 UNL     1      10.031  46.573  -9.726  1.00  0.00     0.270 A 
HETATM   26  O4  UNL     1       9.764  47.776  -9.964  1.00  0.00    -0.267 OA
HETATM   27  N16 UNL     1      10.753  46.240  -8.620  1.00  0.00    -0.155 N 
ATOM     28  H16 UNL     1      11.070  46.982  -7.996  1.00  0.00     0.187 HD
BRANCH  22  29
HETATM   29  O3  UNL     1       9.479  43.287 -11.120  1.00  0.00    -0.345 OA
ATOM     30  H3  UNL     1       8.564  43.037 -11.161  1.00  0.00     0.219 HD
ENDBRANCH  22  29
BRANCH  24  31
HETATM   31  C18 UNL     1       8.819  45.943 -11.761  1.00  0.00     0.127 C 
BRANCH  31  32
HETATM   32  C19 UNL     1       9.627  46.417 -12.883  1.00  0.00     0.111 A 
HETATM   33  N12 UNL     1      10.381  47.521 -12.910  1.00  0.00    -0.274 N 
HETATM   34  N13 UNL     1      10.952  47.588 -14.114  1.00  0.00    -0.007 NA
ATOM     35  H12 UNL     1      10.498  48.191 -12.150  1.00  0.00     0.185 HD
HETATM   36  N14 UNL     1      10.575  46.546 -14.846  1.00  0.00    -0.007 NA
HETATM   37  N15 UNL     1       9.757  45.828 -14.079  1.00  0.00    -0.274 N 
ATOM     38  H15 UNL     1       9.298  44.961 -14.359  1.00  0.00     0.185 HD
ENDBRANCH  31  32
ENDBRANCH  24  31
ENDBRANCH  14  20
ENDBRANCH   8  11
ENDBRANCH   6   8
BRANCH   1  39
HETATM   39  C10 UNL     1       9.818  48.430  -1.002  1.00  0.00     0.119 A 
HETATM   40  C9  UNL     1      10.738  48.426   0.048  1.00  0.00     0.147 A 
HETATM   41  N5  UNL     1      10.784  49.650   0.596  1.00  0.00    -0.284 N 
HETATM   42  N18 UNL     1       9.947  50.397  -0.060  1.00  0.00    -0.240 N 
HETATM   43  N17 UNL     1       9.349  49.686  -1.029  1.00  0.00    -0.281 N 
ATOM     44  H18 UNL     1       9.769  51.383   0.135  1.00  0.00     0.208 HD
ATOM     45  H17 UNL     1       8.651  50.044  -1.682  1.00  0.00     0.188 HD
BRANCH  41  46
HETATM   46  C8  UNL     1      11.607  50.094   1.716  1.00  0.00     0.183 C 
BRANCH  46  47
HETATM   47  C7  UNL     1      10.771  50.346   2.926  1.00  0.00     0.156 C 
BRANCH  47  48
HETATM   48  C6  UNL     1      10.312  49.041   3.511  1.00  0.00     0.163 C 
BRANCH  48  49
HETATM   49  N4  UNL     1       9.748  49.143   4.824  1.00  0.00    -0.336 N 
HETATM   50  C3  UNL     1       9.420  48.084   5.593  1.00  0.00     0.096 A 
HETATM   51  C2  UNL     1       9.508  46.717   5.393  1.00  0.00     0.139 A 
HETATM   52  C4  UNL     1       8.910  48.525   6.789  1.00  0.00     0.150 A 
HETATM   53  N2  UNL     1       9.092  45.902   6.376  1.00  0.00    -0.200 N 
HETATM   54  C1  UNL     1       8.597  46.357   7.537  1.00  0.00     0.677 A 
ATOM     55  H2  UNL     1       9.156  44.893   6.234  1.00  0.00     0.183 HD
HETATM   56  N19 UNL     1       8.494  47.675   7.773  1.00  0.00    -0.175 N 
ATOM     57  H19 UNL     1       8.120  48.027   8.654  1.00  0.00     0.186 HD
HETATM   58  N3  UNL     1       8.935  49.877   6.733  1.00  0.00    -0.336 N 
HETATM   59  C5  UNL     1       9.440  50.236   5.548  1.00  0.00     0.185 A 
ATOM     60  H3  UNL     1       8.623  50.513   7.468  1.00  0.00     0.168 HD
BRANCH  54  61
HETATM   61  N1  UNL     1       8.210  45.507   8.453  1.00  0.00    -0.234 N 
ATOM     62  H12 UNL     1       7.867  44.587   8.173  1.00  0.00     0.174 HD
ATOM     63  H11 UNL     1       8.252  45.771   9.437  1.00  0.00     0.174 HD
ENDBRANCH  54  61
ENDBRANCH  48  49
ENDBRANCH  47  48
BRANCH  47  64
HETATM   64  O1  UNL     1      11.570  51.034   3.848  1.00  0.00    -0.392 OA
ATOM     65  H1  UNL     1      11.893  51.840   3.463  1.00  0.00     0.210 HD
ENDBRANCH  47  64
ENDBRANCH  46  47
ENDBRANCH  41  46
ENDBRANCH   1  39
TORSDOF 14
ENDMDL
MODEL 4
REMARK VINA RESULT: -10.435941259      1.460      2.173
REMARK  14 active torsions:
REMARK  status: ('A' for Active; 'I' for Inactive)
REMARK    1  A    between atoms: N1_1  and  C1_4 
REMARK    2  A    between atoms: N4_13  and  C6_14 
REMARK    3  A    between atoms: C6_14  and  C7_15 
REMARK    4  A    between atoms: C7_15  and  O1_16 
REMARK    5  A    between atoms: C7_15  and  C8_18 
REMARK    6  A    between atoms: C8_18  and  N5_19 
REMARK    7  A    between atoms: C10_21  and  C11_22 
REMARK    8  A    between atoms: C12_27  and  C13_28 
REMARK    9  A    between atoms: C13_28  and  O2_29 
REMARK   10  A    between atoms: C13_28  and  N8_31 
REMARK       I    between atoms: N8_31  and  C14_33 
REMARK       I    between atoms: C14_33  and  N9_34 
REMARK       I    between atoms: C14_33  and  N10_38 
REMARK   11  A    between atoms: N10_38  and  C15_40 
REMARK   12  A    between atoms: C16_43  and  O3_44 
REMARK   13  A    between atoms: C17_46  and  C18_47 
REMARK   14  A    between atoms: C18_47  and  C19_48 
ROOT
HETATM    1  C11 UNL     1       9.791  46.039  -2.598  1.00  0.00     0.194 A 
HETATM    2  N6  UNL     1       9.044  44.932  -2.506  1.00  0.00    -0.276 N 
ATOM      3  H6  UNL     1       8.180  44.857  -1.969  1.00  0.00     0.189 HD
HETATM    4  N7  UNL     1       9.578  43.953  -3.207  1.00  0.00    -0.278 N 
ATOM      5  H7  UNL     1       9.213  43.006  -3.308  1.00  0.00     0.189 HD
HETATM    6  C12 UNL     1      10.699  44.443  -3.765  1.00  0.00     0.189 A 
HETATM    7  O5  UNL     1      10.787  45.694  -3.373  1.00  0.00    -0.271 OA
ENDROOT
BRANCH   6   8
HETATM    8  C13 UNL     1      11.647  43.711  -4.651  1.00  0.00     0.294 C 
BRANCH   8   9
HETATM    9  O2  UNL     1      12.973  43.936  -4.205  1.00  0.00    -0.369 OA
ATOM     10  H2  UNL     1      13.501  44.242  -4.932  1.00  0.00     0.212 HD
ENDBRANCH   8   9
BRANCH   8  11
HETATM   11  N8  UNL     1      11.609  44.072  -6.018  1.00  0.00    -0.347 N 
HETATM   12  C14 UNL     1      12.179  43.161  -6.955  1.00  0.00     0.399 C 
HETATM   13  N9  UNL     1      11.535  41.877  -7.042  1.00  0.00    -0.040 N 
HETATM   14  N10 UNL     1      12.417  43.784  -8.208  1.00  0.00    -0.180 N 
ATOM     15  H93 UNL     1      11.490  41.446  -6.119  1.00  0.00     0.279 HD
ATOM     16  H92 UNL     1      10.540  41.998  -7.233  1.00  0.00     0.279 HD
ATOM     17  H91 UNL     1      11.943  41.225  -7.713  1.00  0.00     0.279 HD
ATOM     18  H10 UNL     1      13.399  43.824  -8.478  1.00  0.00     0.181 HD
ATOM     19  H8  UNL     1      11.190  44.951  -6.321  1.00  0.00     0.160 HD
BRANCH  14  20
HETATM   20  C15 UNL     1      11.629  44.293  -9.043  1.00  0.00     0.686 A 
HETATM   21  N11 UNL     1      10.940  43.475  -9.895  1.00  0.00    -0.170 N 
HETATM   22  C16 UNL     1      10.093  44.009 -10.792  1.00  0.00     0.167 A 
ATOM     23  H11 UNL     1      11.068  42.464  -9.850  1.00  0.00     0.186 HD
HETATM   24  C17 UNL     1       9.902  45.394 -10.873  1.00  0.00     0.069 A 
HETATM   25  C20 UNL     1      10.600  46.184 -10.013  1.00  0.00     0.270 A 
HETATM   26  O4  UNL     1      10.462  47.432 -10.046  1.00  0.00    -0.267 OA
HETATM   27  N16 UNL     1      11.450  45.616  -9.114  1.00  0.00    -0.155 N 
ATOM     28  H16 UNL     1      11.967  46.219  -8.474  1.00  0.00     0.187 HD
BRANCH  22  29
HETATM   29  O3  UNL     1       9.376  43.220 -11.673  1.00  0.00    -0.345 OA
ATOM     30  H3  UNL     1       9.771  42.476 -12.111  1.00  0.00     0.219 HD
ENDBRANCH  22  29
BRANCH  24  31
HETATM   31  C18 UNL     1       8.982  45.998 -11.845  1.00  0.00     0.127 C 
BRANCH  31  32
HETATM   32  C19 UNL     1       9.632  46.459 -13.070  1.00  0.00     0.111 A 
HETATM   33  N12 UNL     1      10.286  47.614 -13.238  1.00  0.00    -0.274 N 
HETATM   34  N13 UNL     1      10.724  47.647 -14.497  1.00  0.00    -0.007 NA
ATOM     35  H12 UNL     1      10.424  48.337 -12.533  1.00  0.00     0.185 HD
HETATM   36  N14 UNL     1      10.362  46.536 -15.127  1.00  0.00    -0.007 NA
HETATM   37  N15 UNL     1       9.687  45.808 -14.239  1.00  0.00    -0.274 N 
ATOM     38  H15 UNL     1       9.275  44.893 -14.421  1.00  0.00     0.185 HD
ENDBRANCH  31  32
ENDBRANCH  24  31
ENDBRANCH  14  20
ENDBRANCH   8  11
ENDBRANCH   6   8
BRANCH   1  39
HETATM   39  C10 UNL     1       9.545  47.329  -1.975  1.00  0.00     0.119 A 
HETATM   40  C9  UNL     1       9.702  47.652  -0.627  1.00  0.00     0.147 A 
HETATM   41  N5  UNL     1       9.375  48.939  -0.442  1.00  0.00    -0.284 N 
HETATM   42  N18 UNL     1       9.027  49.418  -1.599  1.00  0.00    -0.240 N 
HETATM   43  N17 UNL     1       9.119  48.468  -2.543  1.00  0.00    -0.281 N 
ATOM     44  H18 UNL     1       8.727  50.378  -1.766  1.00  0.00     0.208 HD
ATOM     45  H17 UNL     1       8.902  48.592  -3.532  1.00  0.00     0.188 HD
BRANCH  41  46
HETATM   46  C8  UNL     1       9.392  49.692   0.808  1.00  0.00     0.183 C 
BRANCH  46  47
HETATM   47  C7  UNL     1      10.710  50.363   1.009  1.00  0.00     0.156 C 
BRANCH  47  48
HETATM   48  C6  UNL     1      11.484  49.657   2.085  1.00  0.00     0.163 C 
BRANCH  48  49
HETATM   49  N4  UNL     1      10.735  49.386   3.277  1.00  0.00    -0.336 N 
HETATM   50  C3  UNL     1      10.412  48.148   3.703  1.00  0.00     0.096 A 
HETATM   51  C2  UNL     1      10.664  46.885   3.195  1.00  0.00     0.139 A 
HETATM   52  C4  UNL     1       9.699  48.237   4.874  1.00  0.00     0.150 A 
HETATM   53  N2  UNL     1      10.199  45.822   3.873  1.00  0.00    -0.200 N 
HETATM   54  C1  UNL     1       9.504  45.935   5.015  1.00  0.00     0.677 A 
ATOM     55  H2  UNL     1      10.383  44.889   3.503  1.00  0.00     0.183 HD
HETATM   56  N19 UNL     1       9.238  47.141   5.543  1.00  0.00    -0.175 N 
ATOM     57  H19 UNL     1       8.711  47.233   6.412  1.00  0.00     0.186 HD
HETATM   58  N3  UNL     1       9.596  49.558   5.151  1.00  0.00    -0.336 N 
HETATM   59  C5  UNL     1      10.222  50.238   4.185  1.00  0.00     0.185 A 
ATOM     60  H3  UNL     1       9.123  49.965   5.958  1.00  0.00     0.168 HD
BRANCH  54  61
HETATM   61  N1  UNL     1       9.081  44.857   5.624  1.00  0.00    -0.234 N 
ATOM     62  H12 UNL     1       9.753  44.246   6.088  1.00  0.00     0.174 HD
ATOM     63  H11 UNL     1       8.085  44.638   5.627  1.00  0.00     0.174 HD
ENDBRANCH  54  61
ENDBRANCH  48  49
ENDBRANCH  47  48
BRANCH  47  64
HETATM   64  O1  UNL     1      11.402  50.295  -0.206  1.00  0.00    -0.392 OA
ATOM     65  H1  UNL     1      11.009  50.885  -0.840  1.00  0.00     0.210 HD
ENDBRANCH  47  64
ENDBRANCH  46  47
ENDBRANCH  41  46
ENDBRANCH   1  39
TORSDOF 14
ENDMDL
MODEL 5
REMARK VINA RESULT: -10.391640314      3.449      5.948
REMARK  14 active torsions:
REMARK  status: ('A' for Active; 'I' for Inactive)
REMARK    1  A    between atoms: N1_1  and  C1_4 
REMARK    2  A    between atoms: N4_13  and  C6_14 
REMARK    3  A    between atoms: C6_14  and  C7_15 
REMARK    4  A    between atoms: C7_15  and  O1_16 
REMARK    5  A    between atoms: C7_15  and  C8_18 
REMARK    6  A    between atoms: C8_18  and  N5_19 
REMARK    7  A    between atoms: C10_21  and  C11_22 
REMARK    8  A    between atoms: C12_27  and  C13_28 
REMARK    9  A    between atoms: C13_28  and  O2_29 
REMARK   10  A    between atoms: C13_28  and  N8_31 
REMARK       I    between atoms: N8_31  and  C14_33 
REMARK       I    between atoms: C14_33  and  N9_34 
REMARK       I    between atoms: C14_33  and  N10_38 
REMARK   11  A    between atoms: N10_38  and  C15_40 
REMARK   12  A    between atoms: C16_43  and  O3_44 
REMARK   13  A    between atoms: C17_46  and  C18_47 
REMARK   14  A    between atoms: C18_47  and  C19_48 
ROOT
HETATM    1  C11 UNL     1      10.392  49.060   2.440  1.00  0.00     0.194 A 
HETATM    2  N6  UNL     1      11.463  48.364   2.039  1.00  0.00    -0.276 N 
ATOM      3  H6  UNL     1      12.176  47.985   2.662  1.00  0.00     0.189 HD
HETATM    4  N7  UNL     1      11.468  48.234   0.728  1.00  0.00    -0.278 N 
ATOM      5  H7  UNL     1      12.168  47.749   0.167  1.00  0.00     0.189 HD
HETATM    6  C12 UNL     1      10.370  48.864   0.273  1.00  0.00     0.189 A 
HETATM    7  O5  UNL     1       9.757  49.343   1.331  1.00  0.00    -0.271 OA
ENDROOT
BRANCH   6   8
HETATM    8  C13 UNL     1       9.940  48.988  -1.148  1.00  0.00     0.294 C 
BRANCH   8   9
HETATM    9  O2  UNL     1       8.761  49.772  -1.213  1.00  0.00    -0.369 OA
ATOM     10  H2  UNL     1       8.920  50.611  -0.796  1.00  0.00     0.212 HD
ENDBRANCH   8   9
BRANCH   8  11
HETATM   11  N8  UNL     1       9.658  47.770  -1.809  1.00  0.00    -0.347 N 
HETATM   12  C14 UNL     1       8.492  47.722  -2.628  1.00  0.00     0.399 C 
HETATM   13  N9  UNL     1       8.497  48.602  -3.768  1.00  0.00    -0.040 N 
HETATM   14  N10 UNL     1       8.117  46.385  -2.923  1.00  0.00    -0.180 N 
ATOM     15  H93 UNL     1       8.673  49.560  -3.467  1.00  0.00     0.279 HD
ATOM     16  H92 UNL     1       9.329  48.434  -4.334  1.00  0.00     0.279 HD
ATOM     17  H91 UNL     1       7.663  48.567  -4.355  1.00  0.00     0.279 HD
ATOM     18  H10 UNL     1       7.205  46.114  -2.557  1.00  0.00     0.181 HD
ATOM     19  H8  UNL     1      10.265  46.957  -1.703  1.00  0.00     0.160 HD
BRANCH  14  20
HETATM   20  C15 UNL     1       8.712  45.478  -3.556  1.00  0.00     0.686 A 
HETATM   21  N11 UNL     1       9.825  44.903  -3.007  1.00  0.00    -0.170 N 
HETATM   22  C16 UNL     1      10.469  43.930  -3.675  1.00  0.00     0.167 A 
ATOM     23  H11 UNL     1      10.165  45.211  -2.096  1.00  0.00     0.186 HD
HETATM   24  C17 UNL     1      10.021  43.491  -4.927  1.00  0.00     0.069 A 
HETATM   25  C20 UNL     1       8.911  44.081  -5.449  1.00  0.00     0.270 A 
HETATM   26  O4  UNL     1       8.470  43.721  -6.568  1.00  0.00    -0.267 OA
HETATM   27  N16 UNL     1       8.278  45.063  -4.750  1.00  0.00    -0.155 N 
ATOM     28  H16 UNL     1       7.446  45.497  -5.151  1.00  0.00     0.187 HD
BRANCH  22  29
HETATM   29  O3  UNL     1      11.599  43.320  -3.160  1.00  0.00    -0.345 OA
ATOM     30  H3  UNL     1      11.927  42.500  -3.510  1.00  0.00     0.219 HD
ENDBRANCH  22  29
BRANCH  24  31
HETATM   31  C18 UNL     1      10.709  42.430  -5.673  1.00  0.00     0.127 C 
BRANCH  31  32
HETATM   32  C19 UNL     1      11.704  42.922  -6.625  1.00  0.00     0.111 A 
HETATM   33  N12 UNL     1      11.458  43.496  -7.808  1.00  0.00    -0.274 N 
HETATM   34  N13 UNL     1      12.634  43.796  -8.361  1.00  0.00    -0.007 NA
ATOM     35  H12 UNL     1      10.539  43.672  -8.214  1.00  0.00     0.185 HD
HETATM   36  N14 UNL     1      13.617  43.425  -7.550  1.00  0.00    -0.007 NA
HETATM   37  N15 UNL     1      13.034  42.885  -6.480  1.00  0.00    -0.274 N 
ATOM     38  H15 UNL     1      13.527  42.502  -5.673  1.00  0.00     0.185 HD
ENDBRANCH  31  32
ENDBRANCH  24  31
ENDBRANCH  14  20
ENDBRANCH   8  11
ENDBRANCH   6   8
BRANCH   1  39
HETATM   39  C10 UNL     1      10.024  49.417   3.799  1.00  0.00     0.119 A 
HETATM   40  C9  UNL     1       9.508  48.566   4.778  1.00  0.00     0.147 A 
HETATM   41  N5  UNL     1       9.296  49.267   5.903  1.00  0.00    -0.284 N 
HETATM   42  N18 UNL     1       9.653  50.493   5.664  1.00  0.00    -0.240 N 
HETATM   43  N17 UNL     1      10.096  50.613   4.402  1.00  0.00    -0.281 N 
ATOM     44  H18 UNL     1       9.604  51.256   6.340  1.00  0.00     0.208 HD
ATOM     45  H17 UNL     1      10.433  51.475   3.972  1.00  0.00     0.188 HD
BRANCH  41  46
HETATM   46  C8  UNL     1       8.766  48.778   7.171  1.00  0.00     0.183 C 
BRANCH  46  47
HETATM   47  C7  UNL     1       8.165  47.421   7.012  1.00  0.00     0.156 C 
BRANCH  47  48
HETATM   48  C6  UNL     1       8.995  46.406   7.744  1.00  0.00     0.163 C 
BRANCH  48  49
HETATM   49  N4  UNL     1       8.998  45.101   7.152  1.00  0.00    -0.336 N 
HETATM   50  C3  UNL     1       9.854  44.709   6.186  1.00  0.00     0.096 A 
HETATM   51  C2  UNL     1      10.885  45.357   5.528  1.00  0.00     0.139 A 
HETATM   52  C4  UNL     1       9.594  43.405   5.844  1.00  0.00     0.150 A 
HETATM   53  N2  UNL     1      11.571  44.677   4.594  1.00  0.00    -0.200 N 
HETATM   54  C1  UNL     1      11.297  43.402   4.276  1.00  0.00     0.677 A 
ATOM     55  H2  UNL     1      12.333  45.149   4.106  1.00  0.00     0.183 HD
HETATM   56  N19 UNL     1      10.306  42.736   4.891  1.00  0.00    -0.175 N 
ATOM     57  H19 UNL     1      10.094  41.767   4.654  1.00  0.00     0.186 HD
HETATM   58  N3  UNL     1       8.560  43.010   6.623  1.00  0.00    -0.336 N 
HETATM   59  C5  UNL     1       8.211  44.038   7.405  1.00  0.00     0.185 A 
ATOM     60  H3  UNL     1       8.123  42.089   6.616  1.00  0.00     0.168 HD
BRANCH  54  61
HETATM   61  N1  UNL     1      12.006  42.799   3.356  1.00  0.00    -0.234 N 
ATOM     62  H12 UNL     1      12.247  43.298   2.500  1.00  0.00     0.174 HD
ATOM     63  H11 UNL     1      12.307  41.835   3.504  1.00  0.00     0.174 HD
ENDBRANCH  54  61
ENDBRANCH  48  49
ENDBRANCH  47  48
BRANCH  47  64
HETATM   64  O1  UNL     1       6.875  47.472   7.553  1.00  0.00    -0.392 OA
ATOM     65  H1  UNL     1       6.811  48.183   8.180  1.00  0.00     0.210 HD
ENDBRANCH  47  64
ENDBRANCH  46  47
ENDBRANCH  41  46
ENDBRANCH   1  39
TORSDOF 14
ENDMDL
