MODEL 1
REMARK VINA RESULT: -9.901056297      0.000      0.000
REMARK  17 active torsions:
REMARK  status: ('A' for Active; 'I' for Inactive)
REMARK    1  A    between atoms: C2_2  and  C3_3 
REMARK    2  A    between atoms: C2_2  and  C16_40 
REMARK    3  A    between atoms: C3_3  and  O2_5 
REMARK    4  A    between atoms: O2_5  and  C4_6 
REMARK    5  A    between atoms: C4_6  and  C5_7 
REMARK    6  A    between atoms: C5_7  and  O3_8 
REMARK    7  A    between atoms: C5_7  and  C6_10 
REMARK    8  A    between atoms: C6_10  and  O4_11 
REMARK    9  A    between atoms: C6_10  and  O5_13 
REMARK   10  A    between atoms: O5_13  and  C7_14 
REMARK   11  A    between atoms: C7_14  and  N1_15 
REMARK   12  A    between atoms: C9_17  and  C10_18 
REMARK   13  A    between atoms: C10_18  and  O6_19 
REMARK   14  A    between atoms: C10_18  and  N2_21 
REMARK   15  A    between atoms: C13_31  and  N7_32 
REMARK   16  A    between atoms: C20_51  and  O8_52 
REMARK   17  A    between atoms: C20_51  and  O9_54 
ROOT
HETATM    1  C6  UNL     1      10.103  47.115  -0.905  1.00  0.00     0.294 C 
ENDROOT
BRANCH   1   2
HETATM    2  C5  UNL     1       8.948  48.098  -0.834  1.00  0.00     0.197 C 
BRANCH   2   3
HETATM    3  C4  UNL     1       9.375  49.514  -0.959  1.00  0.00     0.215 C 
BRANCH   3   4
HETATM    4  O2  UNL     1       9.498  50.090   0.306  1.00  0.00    -0.318 OA
BRANCH   4   5
HETATM    5  C3  UNL     1      10.582  50.125   1.143  1.00  0.00     0.268 C 
HETATM    6  O1  UNL     1      11.701  49.797   0.615  1.00  0.00    -0.264 OA
BRANCH   5   7
HETATM    7  C2  UNL     1      10.499  50.514   2.583  1.00  0.00     0.135 C 
HETATM    8  C1  UNL     1      11.911  51.009   2.944  1.00  0.00     0.027 C 
BRANCH   7   9
HETATM    9  C16 UNL     1      10.209  49.396   3.489  1.00  0.00     0.066 A 
HETATM   10  N9  UNL     1      10.353  48.096   3.084  1.00  0.00    -0.339 N 
HETATM   11  C17 UNL     1      10.079  47.064   3.895  1.00  0.00     0.147 A 
ATOM     12  H9  UNL     1      10.679  47.907   2.136  1.00  0.00     0.167 HD
HETATM   13  C18 UNL     1       9.636  47.263   5.187  1.00  0.00     0.166 A 
HETATM   14  N14 UNL     1      10.234  45.719   3.465  1.00  0.00    -0.371 N 
HETATM   15  N10 UNL     1       9.487  48.513   5.609  1.00  0.00    -0.325 N 
HETATM   16  N12 UNL     1       9.350  46.135   6.028  1.00  0.00    -0.259 N 
HETATM   17  C19 UNL     1       9.768  49.562   4.780  1.00  0.00     0.141 A 
ATOM     18  H10 UNL     1       9.162  48.691   6.559  1.00  0.00     0.169 HD
HETATM   19  N11 UNL     1       9.598  50.873   5.312  1.00  0.00    -0.081 NA
HETATM   20  N13 UNL     1       9.208  45.645   7.316  1.00  0.00    -0.067 NA
HETATM   21  C21 UNL     1       9.061  44.881   5.365  1.00  0.00     0.206 C 
HETATM   22  C20 UNL     1       9.250  44.297   6.747  1.00  0.00     0.282 C 
HETATM   23  C22 UNL     1      10.182  44.602   4.398  1.00  0.00     0.155 C 
ATOM     24  H14 UNL     1      10.387  45.530   2.475  1.00  0.00     0.161 HD
BRANCH  22  25
HETATM   25  O8  UNL     1       8.178  43.528   7.156  1.00  0.00    -0.349 OA
ATOM     26  H8  UNL     1       8.354  43.078   7.974  1.00  0.00     0.214 HD
ENDBRANCH  22  25
BRANCH  22  27
HETATM   27  O9  UNL     1      10.501  43.694   6.852  1.00  0.00    -0.349 OA
ATOM     28  H9  UNL     1      10.459  42.789   7.135  1.00  0.00     0.214 HD
ENDBRANCH  22  27
ENDBRANCH   7   9
ENDBRANCH   5   7
ENDBRANCH   4   5
ENDBRANCH   3   4
ENDBRANCH   2   3
BRANCH   2  29
HETATM   29  O3  UNL     1       8.422  47.923   0.467  1.00  0.00    -0.388 OA
ATOM     30  H3  UNL     1       8.859  47.173   0.854  1.00  0.00     0.210 HD
ENDBRANCH   2  29
ENDBRANCH   1   2
BRANCH   1  31
HETATM   31  O4  UNL     1      10.462  46.893   0.450  1.00  0.00    -0.368 OA
ATOM     32  H4  UNL     1       9.984  46.109   0.697  1.00  0.00     0.212 HD
ENDBRANCH   1  31
BRANCH   1  33
HETATM   33  O5  UNL     1       9.798  45.937  -1.497  1.00  0.00    -0.313 OA
BRANCH  33  34
HETATM   34  C7  UNL     1       8.815  45.909  -2.438  1.00  0.00     0.237 C 
BRANCH  34  35
HETATM   35  N1  UNL     1       9.068  45.088  -3.601  1.00  0.00    -0.305 N 
HETATM   36  C8  UNL     1       9.182  45.569  -4.843  1.00  0.00     0.113 A 
HETATM   37  C9  UNL     1       9.398  44.457  -5.664  1.00  0.00     0.037 A 
HETATM   38  C12 UNL     1       9.413  43.303  -4.912  1.00  0.00     0.094 A 
HETATM   39  N6  UNL     1       9.575  41.999  -5.201  1.00  0.00    -0.189 N 
HETATM   40  C15 UNL     1       9.199  43.741  -3.594  1.00  0.00     0.137 A 
HETATM   41  C13 UNL     1       9.530  41.108  -4.198  1.00  0.00     0.679 A 
ATOM     42  H6  UNL     1       9.729  41.694  -6.163  1.00  0.00     0.184 HD
HETATM   43  N8  UNL     1       9.331  41.478  -2.939  1.00  0.00    -0.154 N 
HETATM   44  C14 UNL     1       9.166  42.768  -2.625  1.00  0.00     0.289 A 
ATOM     45  H8  UNL     1       9.303  40.771  -2.204  1.00  0.00     0.187 HD
HETATM   46  O7  UNL     1       8.978  43.116  -1.426  1.00  0.00    -0.265 OA
BRANCH  37  47
HETATM   47  C10 UNL     1       9.596  44.579  -7.142  1.00  0.00     0.281 C 
BRANCH  47  48
HETATM   48  O6  UNL     1       8.757  43.671  -7.776  1.00  0.00    -0.370 OA
ATOM     49  H6  UNL     1       7.939  44.108  -7.982  1.00  0.00     0.212 HD
ENDBRANCH  47  48
BRANCH  47  50
HETATM   50  N2  UNL     1      10.989  44.239  -7.460  1.00  0.00    -0.240 N 
HETATM   51  C11 UNL     1      11.478  43.913  -8.662  1.00  0.00     0.219 A 
HETATM   52  N3  UNL     1      12.797  43.668  -8.561  1.00  0.00    -0.277 N 
HETATM   53  N4  UNL     1      13.087  43.852  -7.277  1.00  0.00    -0.006 NA
ATOM     54  H3  UNL     1      13.436  43.399  -9.309  1.00  0.00     0.185 HD
HETATM   55  N5  UNL     1      11.989  44.199  -6.607  1.00  0.00    -0.221 N 
ATOM     56  H5  UNL     1      11.934  44.399  -5.608  1.00  0.00     0.206 HD
ENDBRANCH  47  50
ENDBRANCH  37  47
BRANCH  41  57
HETATM   57  N7  UNL     1       9.683  39.851  -4.456  1.00  0.00    -0.234 N 
ATOM     58  H72 UNL     1      10.429  39.571  -5.093  1.00  0.00     0.174 HD
ATOM     59  H71 UNL     1       9.062  39.169  -4.020  1.00  0.00     0.174 HD
ENDBRANCH  41  57
ENDBRANCH  34  35
ENDBRANCH  33  34
ENDBRANCH   1  33
TORSDOF 17
ENDMDL
MODEL 2
REMARK VINA RESULT: -9.703107024      1.682      2.370
REMARK  17 active torsions:
REMARK  status: ('A' for Active; 'I' for Inactive)
REMARK    1  A    between atoms: C2_2  and  C3_3 
REMARK    2  A    between atoms: C2_2  and  C16_40 
REMARK    3  A    between atoms: C3_3  and  O2_5 
REMARK    4  A    between atoms: O2_5  and  C4_6 
REMARK    5  A    between atoms: C4_6  and  C5_7 
REMARK    6  A    between atoms: C5_7  and  O3_8 
REMARK    7  A    between atoms: C5_7  and  C6_10 
REMARK    8  A    between atoms: C6_10  and  O4_11 
REMARK    9  A    between atoms: C6_10  and  O5_13 
REMARK   10  A    between atoms: O5_13  and  C7_14 
REMARK   11  A    between atoms: C7_14  and  N1_15 
REMARK   12  A    between atoms: C9_17  and  C10_18 
REMARK   13  A    between atoms: C10_18  and  O6_19 
REMARK   14  A    between atoms: C10_18  and  N2_21 
REMARK   15  A    between atoms: C13_31  and  N7_32 
REMARK   16  A    between atoms: C20_51  and  O8_52 
REMARK   17  A    between atoms: C20_51  and  O9_54 
ROOT
HETATM    1  C6  UNL     1       9.208  46.994  -2.710  1.00  0.00     0.294 C 
ENDROOT
BRANCH   1   2
HETATM    2  C5  UNL     1       9.135  47.502  -1.281  1.00  0.00     0.197 C 
BRANCH   2   3
HETATM    3  C4  UNL     1       9.400  48.957  -1.162  1.00  0.00     0.215 C 
BRANCH   3   4
HETATM    4  O2  UNL     1       9.445  49.328   0.182  1.00  0.00    -0.318 OA
BRANCH   4   5
HETATM    5  C3  UNL     1      10.530  49.599   0.972  1.00  0.00     0.268 C 
HETATM    6  O1  UNL     1      11.671  49.323   0.462  1.00  0.00    -0.264 OA
BRANCH   5   7
HETATM    7  C2  UNL     1      10.427  50.179   2.345  1.00  0.00     0.135 C 
HETATM    8  C1  UNL     1      11.821  50.760   2.639  1.00  0.00     0.027 C 
BRANCH   7   9
HETATM    9  C16 UNL     1      10.162  49.187   3.395  1.00  0.00     0.066 A 
HETATM   10  N9  UNL     1      10.255  47.845   3.145  1.00  0.00    -0.339 N 
HETATM   11  C17 UNL     1      10.003  46.927   4.089  1.00  0.00     0.147 A 
ATOM     12  H9  UNL     1      10.524  47.533   2.212  1.00  0.00     0.167 HD
HETATM   13  C18 UNL     1       9.636  47.293   5.368  1.00  0.00     0.166 A 
HETATM   14  N14 UNL     1      10.105  45.535   3.819  1.00  0.00    -0.371 N 
HETATM   15  N10 UNL     1       9.538  48.588   5.642  1.00  0.00    -0.325 N 
HETATM   16  N12 UNL     1       9.372  46.283   6.354  1.00  0.00    -0.259 N 
HETATM   17  C19 UNL     1       9.796  49.520   4.677  1.00  0.00     0.141 A 
ATOM     18  H10 UNL     1       9.269  48.889   6.578  1.00  0.00     0.169 HD
HETATM   19  N11 UNL     1       9.684  50.891   5.053  1.00  0.00    -0.081 NA
HETATM   20  N13 UNL     1       9.290  45.957   7.699  1.00  0.00    -0.067 NA
HETATM   21  C21 UNL     1       9.020  44.967   5.865  1.00  0.00     0.206 C 
HETATM   22  C20 UNL     1       9.271  44.549   7.297  1.00  0.00     0.282 C 
HETATM   23  C22 UNL     1      10.080  44.541   4.884  1.00  0.00     0.155 C 
ATOM     24  H14 UNL     1      10.199  45.224   2.853  1.00  0.00     0.161 HD
BRANCH  22  25
HETATM   25  O8  UNL     1       8.208  43.866   7.852  1.00  0.00    -0.349 OA
ATOM     26  H8  UNL     1       7.676  43.436   7.193  1.00  0.00     0.214 HD
ENDBRANCH  22  25
BRANCH  22  27
HETATM   27  O9  UNL     1      10.513  43.928   7.410  1.00  0.00    -0.349 OA
ATOM     28  H9  UNL     1      10.453  42.990   7.546  1.00  0.00     0.214 HD
ENDBRANCH  22  27
ENDBRANCH   7   9
ENDBRANCH   5   7
ENDBRANCH   4   5
ENDBRANCH   3   4
ENDBRANCH   2   3
BRANCH   2  29
HETATM   29  O3  UNL     1      10.181  46.821  -0.617  1.00  0.00    -0.388 OA
ATOM     30  H3  UNL     1       9.786  46.160  -0.060  1.00  0.00     0.210 HD
ENDBRANCH   2  29
ENDBRANCH   1   2
BRANCH   1  31
HETATM   31  O4  UNL     1       9.385  48.165  -3.493  1.00  0.00    -0.368 OA
ATOM     32  H4  UNL     1      10.259  48.078  -3.857  1.00  0.00     0.212 HD
ENDBRANCH   1  31
BRANCH   1  33
HETATM   33  O5  UNL     1      10.224  46.130  -2.944  1.00  0.00    -0.313 OA
BRANCH  33  34
HETATM   34  C7  UNL     1       9.930  44.860  -3.336  1.00  0.00     0.237 C 
BRANCH  34  35
HETATM   35  N1  UNL     1      10.191  44.544  -4.723  1.00  0.00    -0.305 N 
HETATM   36  C8  UNL     1       9.321  44.764  -5.713  1.00  0.00     0.113 A 
HETATM   37  C9  UNL     1       9.946  44.302  -6.878  1.00  0.00     0.037 A 
HETATM   38  C12 UNL     1      11.196  43.803  -6.584  1.00  0.00     0.094 A 
HETATM   39  N6  UNL     1      12.179  43.250  -7.318  1.00  0.00    -0.189 N 
HETATM   40  C15 UNL     1      11.323  43.973  -5.195  1.00  0.00     0.137 A 
HETATM   41  C13 UNL     1      13.302  42.858  -6.695  1.00  0.00     0.679 A 
ATOM     42  H6  UNL     1      12.073  43.132  -8.325  1.00  0.00     0.184 HD
HETATM   43  N8  UNL     1      13.465  43.000  -5.386  1.00  0.00    -0.154 N 
HETATM   44  C14 UNL     1      12.502  43.546  -4.633  1.00  0.00     0.289 A 
ATOM     45  H8  UNL     1      14.333  42.690  -4.948  1.00  0.00     0.187 HD
HETATM   46  O7  UNL     1      12.661  43.680  -3.389  1.00  0.00    -0.265 OA
BRANCH  37  47
HETATM   47  C10 UNL     1       9.296  44.388  -8.223  1.00  0.00     0.281 C 
BRANCH  47  48
HETATM   48  O6  UNL     1       9.464  43.171  -8.872  1.00  0.00    -0.370 OA
ATOM     49  H6  UNL     1      10.354  43.124  -9.200  1.00  0.00     0.212 HD
ENDBRANCH  47  48
BRANCH  47  50
HETATM   50  N2  UNL     1       9.965  45.436  -9.003  1.00  0.00    -0.240 N 
HETATM   51  C11 UNL     1       9.925  45.593 -10.331  1.00  0.00     0.219 A 
HETATM   52  N3  UNL     1      10.660  46.665 -10.681  1.00  0.00    -0.277 N 
HETATM   53  N4  UNL     1      11.140  47.145  -9.539  1.00  0.00    -0.006 NA
ATOM     54  H3  UNL     1      10.815  47.029 -11.621  1.00  0.00     0.185 HD
HETATM   55  N5  UNL     1      10.719  46.399  -8.518  1.00  0.00    -0.221 N 
ATOM     56  H5  UNL     1      10.941  46.548  -7.534  1.00  0.00     0.206 HD
ENDBRANCH  47  50
ENDBRANCH  37  47
BRANCH  41  57
HETATM   57  N7  UNL     1      14.258  42.325  -7.382  1.00  0.00    -0.234 N 
ATOM     58  H72 UNL     1      14.476  42.715  -8.299  1.00  0.00     0.174 HD
ATOM     59  H71 UNL     1      14.773  41.533  -6.997  1.00  0.00     0.174 HD
ENDBRANCH  41  57
ENDBRANCH  34  35
ENDBRANCH  33  34
ENDBRANCH   1  33
TORSDOF 17
ENDMDL
MODEL 3
REMARK VINA RESULT: -9.617182410      2.159      2.766
REMARK  17 active torsions:
REMARK  status: ('A' for Active; 'I' for Inactive)
REMARK    1  A    between atoms: C2_2  and  C3_3 
REMARK    2  A    between atoms: C2_2  and  C16_40 
REMARK    3  A    between atoms: C3_3  and  O2_5 
REMARK    4  A    between atoms: O2_5  and  C4_6 
REMARK    5  A    between atoms: C4_6  and  C5_7 
REMARK    6  A    between atoms: C5_7  and  O3_8 
REMARK    7  A    between atoms: C5_7  and  C6_10 
REMARK    8  A    between atoms: C6_10  and  O4_11 
REMARK    9  A    between atoms: C6_10  and  O5_13 
REMARK   10  A    between atoms: O5_13  and  C7_14 
REMARK   11  A    between atoms: C7_14  and  N1_15 
REMARK   12  A    between atoms: C9_17  and  C10_18 
REMARK   13  A    between atoms: C10_18  and  O6_19 
REMARK   14  A    between atoms: C10_18  and  N2_21 
REMARK   15  A    between atoms: C13_31  and  N7_32 
REMARK   16  A    between atoms: C20_51  and  O8_52 
REMARK   17  A    between atoms: C20_51  and  O9_54 
ROOT
HETATM    1  C6  UNL     1       8.282  47.275  -3.665  1.00  0.00     0.294 C 
ENDROOT
BRANCH   1   2
HETATM    2  C5  UNL     1       8.162  47.228  -2.152  1.00  0.00     0.197 C 
BRANCH   2   3
HETATM    3  C4  UNL     1       9.475  47.172  -1.462  1.00  0.00     0.215 C 
BRANCH   3   4
HETATM    4  O2  UNL     1       9.378  47.763  -0.201  1.00  0.00    -0.318 OA
BRANCH   4   5
HETATM    5  C3  UNL     1       9.658  49.048   0.179  1.00  0.00     0.268 C 
HETATM    6  O1  UNL     1       8.982  49.961  -0.411  1.00  0.00    -0.264 OA
BRANCH   5   7
HETATM    7  C2  UNL     1      10.679  49.398   1.212  1.00  0.00     0.135 C 
HETATM    8  C1  UNL     1      11.980  48.730   0.731  1.00  0.00     0.027 C 
BRANCH   7   9
HETATM    9  C16 UNL     1      10.399  48.846   2.543  1.00  0.00     0.066 A 
HETATM   10  N9  UNL     1      10.290  47.496   2.744  1.00  0.00    -0.339 N 
HETATM   11  C17 UNL     1      10.020  46.978   3.951  1.00  0.00     0.147 A 
ATOM     12  H9  UNL     1      10.419  46.867   1.953  1.00  0.00     0.167 HD
HETATM   13  C18 UNL     1       9.838  47.784   5.056  1.00  0.00     0.166 A 
HETATM   14  N14 UNL     1       9.913  45.575   4.149  1.00  0.00    -0.371 N 
HETATM   15  N10 UNL     1       9.938  49.098   4.892  1.00  0.00    -0.325 N 
HETATM   16  N12 UNL     1       9.549  47.194   6.333  1.00  0.00    -0.259 N 
HETATM   17  C19 UNL     1      10.213  49.623   3.661  1.00  0.00     0.141 A 
ATOM     18  H10 UNL     1       9.808  49.719   5.690  1.00  0.00     0.169 HD
HETATM   19  N11 UNL     1      10.320  51.041   3.570  1.00  0.00    -0.081 NA
HETATM   20  N13 UNL     1       9.564  47.330   7.712  1.00  0.00    -0.067 NA
HETATM   21  C21 UNL     1       8.979  45.863   6.325  1.00  0.00     0.206 C 
HETATM   22  C20 UNL     1       9.322  45.888   7.799  1.00  0.00     0.282 C 
HETATM   23  C22 UNL     1       9.869  44.987   5.482  1.00  0.00     0.155 C 
ATOM     24  H14 UNL     1       9.864  44.962   3.336  1.00  0.00     0.161 HD
BRANCH  22  25
HETATM   25  O8  UNL     1       8.241  45.592   8.605  1.00  0.00    -0.349 OA
ATOM     26  H8  UNL     1       8.424  44.872   9.197  1.00  0.00     0.214 HD
ENDBRANCH  22  25
BRANCH  22  27
HETATM   27  O9  UNL     1      10.477  45.149   8.040  1.00  0.00    -0.349 OA
ATOM     28  H9  UNL     1      10.320  44.363   8.551  1.00  0.00     0.214 HD
ENDBRANCH  22  27
ENDBRANCH   7   9
ENDBRANCH   5   7
ENDBRANCH   4   5
ENDBRANCH   3   4
ENDBRANCH   2   3
BRANCH   2  29
HETATM   29  O3  UNL     1       7.492  46.009  -1.895  1.00  0.00    -0.388 OA
ATOM     30  H3  UNL     1       6.600  46.100  -2.210  1.00  0.00     0.210 HD
ENDBRANCH   2  29
ENDBRANCH   1   2
BRANCH   1  31
HETATM   31  O4  UNL     1       8.605  48.627  -3.953  1.00  0.00    -0.368 OA
ATOM     32  H4  UNL     1       7.944  48.900  -4.579  1.00  0.00     0.212 HD
ENDBRANCH   1  31
BRANCH   1  33
HETATM   33  O5  UNL     1       9.235  46.459  -4.174  1.00  0.00    -0.313 OA
BRANCH  33  34
HETATM   34  C7  UNL     1       8.851  45.378  -4.908  1.00  0.00     0.237 C 
BRANCH  34  35
HETATM   35  N1  UNL     1       9.870  44.774  -5.737  1.00  0.00    -0.305 N 
HETATM   36  C8  UNL     1       9.856  44.801  -7.073  1.00  0.00     0.113 A 
HETATM   37  C9  UNL     1      10.994  44.093  -7.479  1.00  0.00     0.037 A 
HETATM   38  C12 UNL     1      11.692  43.639  -6.383  1.00  0.00     0.094 A 
HETATM   39  N6  UNL     1      12.820  42.924  -6.221  1.00  0.00    -0.189 N 
HETATM   40  C15 UNL     1      10.947  44.092  -5.281  1.00  0.00     0.137 A 
HETATM   41  C13 UNL     1      13.232  42.647  -4.974  1.00  0.00     0.679 A 
ATOM     42  H6  UNL     1      13.352  42.601  -7.030  1.00  0.00     0.184 HD
HETATM   43  N8  UNL     1      12.559  43.055  -3.905  1.00  0.00    -0.154 N 
HETATM   44  C14 UNL     1      11.433  43.766  -4.038  1.00  0.00     0.289 A 
ATOM     45  H8  UNL     1      12.904  42.824  -2.973  1.00  0.00     0.187 HD
HETATM   46  O7  UNL     1      10.797  44.153  -3.020  1.00  0.00    -0.265 OA
BRANCH  37  47
HETATM   47  C10 UNL     1      11.350  43.911  -8.921  1.00  0.00     0.281 C 
BRANCH  47  48
HETATM   48  O6  UNL     1      12.730  43.784  -9.022  1.00  0.00    -0.370 OA
ATOM     49  H6  UNL     1      12.953  42.863  -8.956  1.00  0.00     0.212 HD
ENDBRANCH  47  48
BRANCH  47  50
HETATM   50  N2  UNL     1      10.928  45.105  -9.665  1.00  0.00    -0.240 N 
HETATM   51  C11 UNL     1       9.858  45.217 -10.459  1.00  0.00     0.219 A 
HETATM   52  N3  UNL     1       9.799  46.462 -10.965  1.00  0.00    -0.277 N 
HETATM   53  N4  UNL     1      10.854  47.092 -10.460  1.00  0.00    -0.006 NA
ATOM     54  H3  UNL     1       9.096  46.840 -11.600  1.00  0.00     0.185 HD
HETATM   55  N5  UNL     1      11.542  46.269  -9.669  1.00  0.00    -0.221 N 
ATOM     56  H5  UNL     1      12.394  46.500  -9.158  1.00  0.00     0.206 HD
ENDBRANCH  47  50
ENDBRANCH  37  47
BRANCH  41  57
HETATM   57  N7  UNL     1      14.314  41.961  -4.798  1.00  0.00    -0.234 N 
ATOM     58  H72 UNL     1      14.654  41.383  -5.566  1.00  0.00     0.174 HD
ATOM     59  H71 UNL     1      14.802  42.012  -3.904  1.00  0.00     0.174 HD
ENDBRANCH  41  57
ENDBRANCH  34  35
ENDBRANCH  33  34
ENDBRANCH   1  33
TORSDOF 17
ENDMDL
MODEL 4
REMARK VINA RESULT: -9.606931552      0.864      1.019
REMARK  17 active torsions:
REMARK  status: ('A' for Active; 'I' for Inactive)
REMARK    1  A    between atoms: C2_2  and  C3_3 
REMARK    2  A    between atoms: C2_2  and  C16_40 
REMARK    3  A    between atoms: C3_3  and  O2_5 
REMARK    4  A    between atoms: O2_5  and  C4_6 
REMARK    5  A    between atoms: C4_6  and  C5_7 
REMARK    6  A    between atoms: C5_7  and  O3_8 
REMARK    7  A    between atoms: C5_7  and  C6_10 
REMARK    8  A    between atoms: C6_10  and  O4_11 
REMARK    9  A    between atoms: C6_10  and  O5_13 
REMARK   10  A    between atoms: O5_13  and  C7_14 
REMARK   11  A    between atoms: C7_14  and  N1_15 
REMARK   12  A    between atoms: C9_17  and  C10_18 
REMARK   13  A    between atoms: C10_18  and  O6_19 
REMARK   14  A    between atoms: C10_18  and  N2_21 
REMARK   15  A    between atoms: C13_31  and  N7_32 
REMARK   16  A    between atoms: C20_51  and  O8_52 
REMARK   17  A    between atoms: C20_51  and  O9_54 
ROOT
HETATM    1  C6  UNL     1       9.862  47.308  -2.118  1.00  0.00     0.294 C 
ENDROOT
BRANCH   1   2
HETATM    2  C5  UNL     1       9.019  48.405  -1.492  1.00  0.00     0.197 C 
BRANCH   2   3
HETATM    3  C4  UNL     1       9.823  49.548  -0.991  1.00  0.00     0.215 C 
BRANCH   3   4
HETATM    4  O2  UNL     1       9.822  49.559   0.404  1.00  0.00    -0.318 OA
BRANCH   4   5
HETATM    5  C3  UNL     1      10.874  49.454   1.274  1.00  0.00     0.268 C 
HETATM    6  O1  UNL     1      11.918  48.874   0.813  1.00  0.00    -0.264 OA
BRANCH   5   7
HETATM    7  C2  UNL     1      10.839  49.969   2.676  1.00  0.00     0.135 C 
HETATM    8  C1  UNL     1      12.297  50.345   2.998  1.00  0.00     0.027 C 
BRANCH   7   9
HETATM    9  C16 UNL     1      10.441  48.966   3.672  1.00  0.00     0.066 A 
HETATM   10  N9  UNL     1      10.627  47.629   3.448  1.00  0.00    -0.339 N 
HETATM   11  C17 UNL     1      10.255  46.701   4.342  1.00  0.00     0.147 A 
ATOM     12  H9  UNL     1      11.062  47.329   2.577  1.00  0.00     0.167 HD
HETATM   13  C18 UNL     1       9.663  47.052   5.539  1.00  0.00     0.166 A 
HETATM   14  N14 UNL     1      10.456  45.315   4.102  1.00  0.00    -0.371 N 
HETATM   15  N10 UNL     1       9.470  48.342   5.784  1.00  0.00    -0.325 N 
HETATM   16  N12 UNL     1       9.277  46.031   6.473  1.00  0.00    -0.259 N 
HETATM   17  C19 UNL     1       9.850  49.284   4.872  1.00  0.00     0.141 A 
ATOM     18  H10 UNL     1       9.035  48.631   6.660  1.00  0.00     0.169 HD
HETATM   19  N11 UNL     1       9.623  50.649   5.215  1.00  0.00    -0.081 NA
HETATM   20  N13 UNL     1       8.982  45.701   7.786  1.00  0.00    -0.067 NA
HETATM   21  C21 UNL     1       9.064  44.703   5.939  1.00  0.00     0.206 C 
HETATM   22  C20 UNL     1       9.086  44.294   7.395  1.00  0.00     0.282 C 
HETATM   23  C22 UNL     1      10.291  44.320   5.153  1.00  0.00     0.155 C 
ATOM     24  H14 UNL     1      10.724  45.008   3.167  1.00  0.00     0.161 HD
BRANCH  22  25
HETATM   25  O8  UNL     1       7.971  43.569   7.767  1.00  0.00    -0.349 OA
ATOM     26  H8  UNL     1       8.202  42.769   8.224  1.00  0.00     0.214 HD
ENDBRANCH  22  25
BRANCH  22  27
HETATM   27  O9  UNL     1      10.315  43.722   7.719  1.00  0.00    -0.349 OA
ATOM     28  H9  UNL     1      10.269  42.782   7.846  1.00  0.00     0.214 HD
ENDBRANCH  22  27
ENDBRANCH   7   9
ENDBRANCH   5   7
ENDBRANCH   4   5
ENDBRANCH   3   4
ENDBRANCH   2   3
BRANCH   2  29
HETATM   29  O3  UNL     1       8.416  47.784  -0.374  1.00  0.00    -0.388 OA
ATOM     30  H3  UNL     1       7.612  48.252  -0.185  1.00  0.00     0.210 HD
ENDBRANCH   2  29
ENDBRANCH   1   2
BRANCH   1  31
HETATM   31  O4  UNL     1       9.748  46.217  -1.218  1.00  0.00    -0.368 OA
ATOM     32  H4  UNL     1       9.274  45.555  -1.707  1.00  0.00     0.212 HD
ENDBRANCH   1  31
BRANCH   1  33
HETATM   33  O5  UNL     1       9.457  46.928  -3.352  1.00  0.00    -0.313 OA
BRANCH  33  34
HETATM   34  C7  UNL     1       8.492  45.974  -3.462  1.00  0.00     0.237 C 
BRANCH  34  35
HETATM   35  N1  UNL     1       8.760  44.899  -4.392  1.00  0.00    -0.305 N 
HETATM   36  C8  UNL     1       8.682  45.027  -5.720  1.00  0.00     0.113 A 
HETATM   37  C9  UNL     1       8.990  43.765  -6.242  1.00  0.00     0.037 A 
HETATM   38  C12 UNL     1       9.253  42.877  -5.223  1.00  0.00     0.094 A 
HETATM   39  N6  UNL     1       9.588  41.575  -5.179  1.00  0.00    -0.189 N 
HETATM   40  C15 UNL     1       9.098  43.634  -4.050  1.00  0.00     0.137 A 
HETATM   41  C13 UNL     1       9.775  40.999  -3.981  1.00  0.00     0.679 A 
ATOM     42  H6  UNL     1       9.697  41.036  -6.039  1.00  0.00     0.184 HD
HETATM   43  N8  UNL     1       9.638  41.677  -2.848  1.00  0.00    -0.154 N 
HETATM   44  C14 UNL     1       9.306  42.973  -2.864  1.00  0.00     0.289 A 
ATOM     45  H8  UNL     1       9.789  41.205  -1.956  1.00  0.00     0.187 HD
HETATM   46  O7  UNL     1       9.178  43.614  -1.784  1.00  0.00    -0.265 OA
BRANCH  37  47
HETATM   47  C10 UNL     1       9.029  43.496  -7.714  1.00  0.00     0.281 C 
BRANCH  47  48
HETATM   48  O6  UNL     1       8.790  42.143  -7.921  1.00  0.00    -0.370 OA
ATOM     49  H6  UNL     1       7.918  41.939  -7.602  1.00  0.00     0.212 HD
ENDBRANCH  47  48
BRANCH  47  50
HETATM   50  N2  UNL     1      10.370  43.821  -8.217  1.00  0.00    -0.240 N 
HETATM   51  C11 UNL     1      11.524  43.265  -7.834  1.00  0.00     0.219 A 
HETATM   52  N3  UNL     1      12.541  43.820  -8.518  1.00  0.00    -0.277 N 
HETATM   53  N4  UNL     1      11.973  44.718  -9.316  1.00  0.00    -0.006 NA
ATOM     54  H3  UNL     1      13.534  43.599  -8.440  1.00  0.00     0.185 HD
HETATM   55  N5  UNL     1      10.654  44.720  -9.135  1.00  0.00    -0.221 N 
ATOM     56  H5  UNL     1       9.982  45.314  -9.621  1.00  0.00     0.206 HD
ENDBRANCH  47  50
ENDBRANCH  37  47
BRANCH  41  57
HETATM   57  N7  UNL     1      10.096  39.749  -3.918  1.00  0.00    -0.234 N 
ATOM     58  H72 UNL     1      10.130  39.211  -4.783  1.00  0.00     0.174 HD
ATOM     59  H71 UNL     1      10.309  39.330  -3.013  1.00  0.00     0.174 HD
ENDBRANCH  41  57
ENDBRANCH  34  35
ENDBRANCH  33  34
ENDBRANCH   1  33
TORSDOF 17
ENDMDL
MODEL 5
REMARK VINA RESULT: -9.482072563      2.576      3.378
REMARK  17 active torsions:
REMARK  status: ('A' for Active; 'I' for Inactive)
REMARK    1  A    between atoms: C2_2  and  C3_3 
REMARK    2  A    between atoms: C2_2  and  C16_40 
REMARK    3  A    between atoms: C3_3  and  O2_5 
REMARK    4  A    between atoms: O2_5  and  C4_6 
REMARK    5  A    between atoms: C4_6  and  C5_7 
REMARK    6  A    between atoms: C5_7  and  O3_8 
REMARK    7  A    between atoms: C5_7  and  C6_10 
REMARK    8  A    between atoms: C6_10  and  O4_11 
REMARK    9  A    between atoms: C6_10  and  O5_13 
REMARK   10  A    between atoms: O5_13  and  C7_14 
REMARK   11  A    between atoms: C7_14  and  N1_15 
REMARK   12  A    between atoms: C9_17  and  C10_18 
REMARK   13  A    between atoms: C10_18  and  O6_19 
REMARK   14  A    between atoms: C10_18  and  N2_21 
REMARK   15  A    between atoms: C13_31  and  N7_32 
REMARK   16  A    between atoms: C20_51  and  O8_52 
REMARK   17  A    between atoms: C20_51  and  O9_54 
ROOT
HETATM    1  C6  UNL     1       8.401  47.401  -3.715  1.00  0.00     0.294 C 
ENDROOT
BRANCH   1   2
HETATM    2  C5  UNL     1       8.206  47.340  -2.211  1.00  0.00     0.197 C 
BRANCH   2   3
HETATM    3  C4  UNL     1       9.444  46.981  -1.474  1.00  0.00     0.215 C 
BRANCH   3   4
HETATM    4  O2  UNL     1       9.569  47.775  -0.333  1.00  0.00    -0.318 OA
BRANCH   4   5
HETATM    5  C3  UNL     1      10.142  49.010  -0.193  1.00  0.00     0.268 C 
HETATM    6  O1  UNL     1       9.708  49.916  -0.985  1.00  0.00    -0.264 OA
BRANCH   5   7
HETATM    7  C2  UNL     1      11.208  49.316   0.809  1.00  0.00     0.135 C 
HETATM    8  C1  UNL     1      12.157  48.105   0.764  1.00  0.00     0.027 C 
BRANCH   7   9
HETATM    9  C16 UNL     1      10.721  49.408   2.191  1.00  0.00     0.066 A 
HETATM   10  N9  UNL     1      10.144  48.335   2.815  1.00  0.00    -0.339 N 
HETATM   11  C17 UNL     1       9.682  48.408   4.072  1.00  0.00     0.147 A 
ATOM     12  H9  UNL     1      10.063  47.454   2.309  1.00  0.00     0.167 HD
HETATM   13  C18 UNL     1       9.767  49.576   4.802  1.00  0.00     0.166 A 
HETATM   14  N14 UNL     1       9.087  47.287   4.711  1.00  0.00    -0.371 N 
HETATM   15  N10 UNL     1      10.323  50.634   4.224  1.00  0.00    -0.325 N 
HETATM   16  N12 UNL     1       9.261  49.619   6.146  1.00  0.00    -0.259 N 
HETATM   17  C19 UNL     1      10.792  50.556   2.944  1.00  0.00     0.141 A 
ATOM     18  H10 UNL     1      10.400  51.510   4.739  1.00  0.00     0.169 HD
HETATM   19  N11 UNL     1      11.389  51.729   2.399  1.00  0.00    -0.081 NA
HETATM   20  N13 UNL     1       9.291  50.237   7.386  1.00  0.00    -0.067 NA
HETATM   21  C21 UNL     1       8.264  48.632   6.501  1.00  0.00     0.206 C 
HETATM   22  C20 UNL     1       8.559  49.084   7.914  1.00  0.00     0.282 C 
HETATM   23  C22 UNL     1       8.810  47.275   6.141  1.00  0.00     0.155 C 
ATOM     24  H14 UNL     1       8.847  46.469   4.153  1.00  0.00     0.161 HD
BRANCH  22  25
HETATM   25  O8  UNL     1       7.424  49.463   8.604  1.00  0.00    -0.349 OA
ATOM     26  H8  UNL     1       7.292  48.941   9.387  1.00  0.00     0.214 HD
ENDBRANCH  22  25
BRANCH  22  27
HETATM   27  O9  UNL     1       9.378  48.159   8.558  1.00  0.00    -0.349 OA
ATOM     28  H9  UNL     1       9.180  48.062   9.481  1.00  0.00     0.214 HD
ENDBRANCH  22  27
ENDBRANCH   7   9
ENDBRANCH   5   7
ENDBRANCH   4   5
ENDBRANCH   3   4
ENDBRANCH   2   3
BRANCH   2  29
HETATM   29  O3  UNL     1       7.278  46.289  -2.024  1.00  0.00    -0.388 OA
ATOM     30  H3  UNL     1       6.502  46.499  -2.529  1.00  0.00     0.210 HD
ENDBRANCH   2  29
ENDBRANCH   1   2
BRANCH   1  31
HETATM   31  O4  UNL     1       8.788  48.743  -3.968  1.00  0.00    -0.368 OA
ATOM     32  H4  UNL     1       8.162  49.053  -4.612  1.00  0.00     0.212 HD
ENDBRANCH   1  31
BRANCH   1  33
HETATM   33  O5  UNL     1       9.346  46.555  -4.190  1.00  0.00    -0.313 OA
BRANCH  33  34
HETATM   34  C7  UNL     1       8.954  45.473  -4.917  1.00  0.00     0.237 C 
BRANCH  34  35
HETATM   35  N1  UNL     1       9.966  44.861  -5.748  1.00  0.00    -0.305 N 
HETATM   36  C8  UNL     1       9.955  44.899  -7.084  1.00  0.00     0.113 A 
HETATM   37  C9  UNL     1      11.083  44.178  -7.494  1.00  0.00     0.037 A 
HETATM   38  C12 UNL     1      11.773  43.706  -6.400  1.00  0.00     0.094 A 
HETATM   39  N6  UNL     1      12.891  42.974  -6.242  1.00  0.00    -0.189 N 
HETATM   40  C15 UNL     1      11.032  44.161  -5.296  1.00  0.00     0.137 A 
HETATM   41  C13 UNL     1      13.297  42.681  -4.996  1.00  0.00     0.679 A 
ATOM     42  H6  UNL     1      13.420  42.650  -7.052  1.00  0.00     0.184 HD
HETATM   43  N8  UNL     1      12.627  43.090  -3.926  1.00  0.00    -0.154 N 
HETATM   44  C14 UNL     1      11.512  43.818  -4.055  1.00  0.00     0.289 A 
ATOM     45  H8  UNL     1      12.967  42.847  -2.995  1.00  0.00     0.187 HD
HETATM   46  O7  UNL     1      10.879  44.206  -3.034  1.00  0.00    -0.265 OA
BRANCH  37  47
HETATM   47  C10 UNL     1      11.439  44.002  -8.937  1.00  0.00     0.281 C 
BRANCH  47  48
HETATM   48  O6  UNL     1      12.821  43.892  -9.040  1.00  0.00    -0.370 OA
ATOM     49  H6  UNL     1      13.063  42.987  -8.877  1.00  0.00     0.212 HD
ENDBRANCH  47  48
BRANCH  47  50
HETATM   50  N2  UNL     1      11.004  45.194  -9.678  1.00  0.00    -0.240 N 
HETATM   51  C11 UNL     1       9.960  45.280 -10.510  1.00  0.00     0.219 A 
HETATM   52  N3  UNL     1       9.876  46.530 -10.999  1.00  0.00    -0.277 N 
HETATM   53  N4  UNL     1      10.889  47.189 -10.446  1.00  0.00    -0.006 NA
ATOM     54  H3  UNL     1       9.184  46.894 -11.654  1.00  0.00     0.185 HD
HETATM   55  N5  UNL     1      11.576  46.378  -9.642  1.00  0.00    -0.221 N 
ATOM     56  H5  UNL     1      12.399  46.630  -9.096  1.00  0.00     0.206 HD
ENDBRANCH  47  50
ENDBRANCH  37  47
BRANCH  41  57
HETATM   57  N7  UNL     1      14.368  41.979  -4.824  1.00  0.00    -0.234 N 
ATOM     58  H72 UNL     1      14.604  41.272  -5.520  1.00  0.00     0.174 HD
ATOM     59  H71 UNL     1      14.952  42.146  -4.004  1.00  0.00     0.174 HD
ENDBRANCH  41  57
ENDBRANCH  34  35
ENDBRANCH  33  34
ENDBRANCH   1  33
TORSDOF 17
ENDMDL
