MODEL 1
REMARK VINA RESULT: -7.370394935      0.000      0.000
REMARK  1 active torsions:
REMARK  status: ('A' for Active; 'I' for Inactive)
REMARK    1  A    between atoms: C1_2  and  C2_4 
ROOT
HETATM    1  C2  UNL     1      43.670  24.796 100.072  1.00  0.00     0.138 A 
HETATM    2  N2  UNL     1      43.950  25.651 101.089  1.00  0.00    -0.293 N 
ATOM      3  H2  UNL     1      43.850  26.652 100.928  1.00  0.00     0.187 HD
HETATM    4  N3  UNL     1      44.348  25.235 102.280  1.00  0.00    -0.283 N 
ATOM      5  H3  UNL     1      44.542  25.929 103.002  1.00  0.00     0.188 HD
HETATM    6  C3  UNL     1      44.506  23.933 102.575  1.00  0.00     0.152 A 
HETATM    7  N4  UNL     1      44.889  23.239 103.680  1.00  0.00    -0.281 N 
ATOM      8  H4  UNL     1      45.150  23.659 104.572  1.00  0.00     0.188 HD
HETATM    9  N5  UNL     1      44.875  21.950 103.432  1.00  0.00    -0.264 N 
ATOM     10  H5  UNL     1      45.120  21.209 104.090  1.00  0.00     0.190 HD
HETATM   11  C4  UNL     1      44.478  21.778 102.153  1.00  0.00     0.276 A 
HETATM   12  O2  UNL     1      44.337  20.702 101.540  1.00  0.00    -0.266 OA
HETATM   13  C5  UNL     1      44.238  23.010 101.586  1.00  0.00     0.106 A 
HETATM   14  C6  UNL     1      43.824  23.453 100.348  1.00  0.00     0.099 A 
HETATM   15  N6  UNL     1      43.553  22.486  99.338  1.00  0.00    -0.099 NA
ENDROOT
BRANCH   1  16
HETATM   16  C1  UNL     1      43.240  25.292  98.788  1.00  0.00     0.284 C 
HETATM   17  N1  UNL     1      44.100  25.202  97.673  1.00  0.00    -0.056 NA
HETATM   18  O1  UNL     1      42.111  25.803  98.651  1.00  0.00    -0.269 OA
ENDBRANCH   1  16
TORSDOF 1
ENDMDL
MODEL 2
REMARK VINA RESULT: -6.352721845      1.847      4.508
REMARK  1 active torsions:
REMARK  status: ('A' for Active; 'I' for Inactive)
REMARK    1  A    between atoms: C1_2  and  C2_4 
ROOT
HETATM    1  C2  UNL     1      42.965  22.714 101.135  1.00  0.00     0.138 A 
HETATM    2  N2  UNL     1      42.432  23.846 101.661  1.00  0.00    -0.293 N 
ATOM      3  H2  UNL     1      42.111  23.833 102.629  1.00  0.00     0.187 HD
HETATM    4  N3  UNL     1      42.312  24.967 100.968  1.00  0.00    -0.283 N 
ATOM      5  H3  UNL     1      41.903  25.783 101.423  1.00  0.00     0.188 HD
HETATM    6  C3  UNL     1      42.708  25.070  99.688  1.00  0.00     0.152 A 
HETATM    7  N4  UNL     1      42.707  26.063  98.760  1.00  0.00    -0.281 N 
ATOM      8  H4  UNL     1      42.357  27.009  98.917  1.00  0.00     0.188 HD
HETATM    9  N5  UNL     1      43.220  25.631  97.631  1.00  0.00    -0.264 N 
ATOM     10  H5  UNL     1      43.335  26.175  96.776  1.00  0.00     0.190 HD
HETATM   11  C4  UNL     1      43.569  24.338  97.804  1.00  0.00     0.276 A 
HETATM   12  O2  UNL     1      44.089  23.573  96.969  1.00  0.00    -0.266 OA
HETATM   13  C5  UNL     1      43.258  23.955  99.091  1.00  0.00     0.106 A 
HETATM   14  C6  UNL     1      43.379  22.792  99.821  1.00  0.00     0.099 A 
HETATM   15  N6  UNL     1      43.949  21.650  99.189  1.00  0.00    -0.099 NA
ENDROOT
BRANCH   1  16
HETATM   16  C1  UNL     1      43.076  21.514 101.927  1.00  0.00     0.284 C 
HETATM   17  N1  UNL     1      44.263  21.251 102.643  1.00  0.00    -0.056 NA
HETATM   18  O1  UNL     1      42.132  20.703 101.985  1.00  0.00    -0.269 OA
ENDBRANCH   1  16
TORSDOF 1
ENDMDL
MODEL 3
REMARK VINA RESULT: -6.244791056      1.713      2.163
REMARK  1 active torsions:
REMARK  status: ('A' for Active; 'I' for Inactive)
REMARK    1  A    between atoms: C1_2  and  C2_4 
ROOT
HETATM    1  C2  UNL     1      43.512  24.881  98.421  1.00  0.00     0.138 A 
HETATM    2  N2  UNL     1      42.587  25.724  98.950  1.00  0.00    -0.293 N 
ATOM      3  H2  UNL     1      42.184  26.445  98.352  1.00  0.00     0.187 HD
HETATM    4  N3  UNL     1      42.189  25.646 100.209  1.00  0.00    -0.283 N 
ATOM      5  H3  UNL     1      41.491  26.308 100.544  1.00  0.00     0.188 HD
HETATM    6  C3  UNL     1      42.671  24.726 101.063  1.00  0.00     0.152 A 
HETATM    7  N4  UNL     1      42.451  24.422 102.370  1.00  0.00    -0.281 N 
ATOM      8  H4  UNL     1      41.799  24.912 102.982  1.00  0.00     0.188 HD
HETATM    9  N5  UNL     1      43.200  23.405 102.731  1.00  0.00    -0.264 N 
ATOM     10  H5  UNL     1      43.227  22.978 103.657  1.00  0.00     0.190 HD
HETATM   11  C4  UNL     1      43.926  23.024 101.658  1.00  0.00     0.276 A 
HETATM   12  O2  UNL     1      44.755  22.096 101.593  1.00  0.00    -0.266 OA
HETATM   13  C5  UNL     1      43.615  23.839 100.591  1.00  0.00     0.106 A 
HETATM   14  C6  UNL     1      44.023  23.928  99.277  1.00  0.00     0.099 A 
HETATM   15  N6  UNL     1      44.999  23.003  98.806  1.00  0.00    -0.099 NA
ENDROOT
BRANCH   1  16
HETATM   16  C1  UNL     1      43.918  25.002  97.042  1.00  0.00     0.284 C 
HETATM   17  N1  UNL     1      44.876  25.969  96.673  1.00  0.00    -0.056 NA
HETATM   18  O1  UNL     1      43.428  24.259  96.170  1.00  0.00    -0.269 OA
ENDBRANCH   1  16
TORSDOF 1
ENDMDL
MODEL 4
REMARK VINA RESULT: -6.152426238      1.388      2.351
REMARK  1 active torsions:
REMARK  status: ('A' for Active; 'I' for Inactive)
REMARK    1  A    between atoms: C1_2  and  C2_4 
ROOT
HETATM    1  C2  UNL     1      43.449  24.306  99.610  1.00  0.00     0.138 A 
HETATM    2  N2  UNL     1      43.634  23.043  99.148  1.00  0.00    -0.293 N 
ATOM      3  H2  UNL     1      43.481  22.857  98.157  1.00  0.00     0.187 HD
HETATM    4  N3  UNL     1      44.007  22.044  99.932  1.00  0.00    -0.283 N 
ATOM      5  H3  UNL     1      44.129  21.119  99.521  1.00  0.00     0.188 HD
HETATM    6  C3  UNL     1      44.229  22.203 101.247  1.00  0.00     0.152 A 
HETATM    7  N4  UNL     1      44.607  21.382 102.263  1.00  0.00    -0.281 N 
ATOM      8  H4  UNL     1      44.807  20.387 102.166  1.00  0.00     0.188 HD
HETATM    9  N5  UNL     1      44.679  22.056 103.388  1.00  0.00    -0.264 N 
ATOM     10  H5  UNL     1      44.940  21.678 104.299  1.00  0.00     0.190 HD
HETATM   11  C4  UNL     1      44.347  23.338 103.124  1.00  0.00     0.276 A 
HETATM   12  O2  UNL     1      44.295  24.289 103.928  1.00  0.00    -0.266 OA
HETATM   13  C5  UNL     1      44.058  23.462 101.783  1.00  0.00     0.106 A 
HETATM   14  C6  UNL     1      43.670  24.496 100.959  1.00  0.00     0.099 A 
HETATM   15  N6  UNL     1      43.497  25.790 101.529  1.00  0.00    -0.099 NA
ENDROOT
BRANCH   1  16
HETATM   16  C1  UNL     1      43.042  25.365  98.720  1.00  0.00     0.284 C 
HETATM   17  N1  UNL     1      43.918  25.809  97.707  1.00  0.00    -0.056 NA
HETATM   18  O1  UNL     1      41.920  25.896  98.836  1.00  0.00    -0.269 OA
ENDBRANCH   1  16
TORSDOF 1
ENDMDL
MODEL 5
REMARK VINA RESULT: -6.094775625      2.385      2.965
REMARK  1 active torsions:
REMARK  status: ('A' for Active; 'I' for Inactive)
REMARK    1  A    between atoms: C1_2  and  C2_4 
ROOT
HETATM    1  C2  UNL     1      44.408  23.775  98.176  1.00  0.00     0.138 A 
HETATM    2  N2  UNL     1      44.388  25.128  98.288  1.00  0.00    -0.293 N 
ATOM      3  H2  UNL     1      44.831  25.687  97.559  1.00  0.00     0.187 HD
HETATM    4  N3  UNL     1      43.814  25.750  99.305  1.00  0.00    -0.283 N 
ATOM      5  H3  UNL     1      43.833  26.770  99.329  1.00  0.00     0.188 HD
HETATM    6  C3  UNL     1      43.209  25.091 100.307  1.00  0.00     0.152 A 
HETATM    7  N4  UNL     1      42.558  25.457 101.443  1.00  0.00    -0.281 N 
ATOM      8  H4  UNL     1      42.411  26.420 101.746  1.00  0.00     0.188 HD
HETATM    9  N5  UNL     1      42.145  24.394 102.093  1.00  0.00    -0.264 N 
ATOM     10  H5  UNL     1      41.631  24.391 102.974  1.00  0.00     0.190 HD
HETATM   11  C4  UNL     1      42.521  23.306 101.387  1.00  0.00     0.276 A 
HETATM   12  O2  UNL     1      42.318  22.109 101.671  1.00  0.00    -0.266 OA
HETATM   13  C5  UNL     1      43.194  23.712 100.256  1.00  0.00     0.106 A 
HETATM   14  C6  UNL     1      43.794  23.073  99.192  1.00  0.00     0.099 A 
HETATM   15  N6  UNL     1      43.770  21.649  99.155  1.00  0.00    -0.099 NA
ENDROOT
BRANCH   1  16
HETATM   16  C1  UNL     1      45.045  23.137  97.049  1.00  0.00     0.284 C 
HETATM   17  N1  UNL     1      46.434  22.892  97.072  1.00  0.00    -0.056 NA
HETATM   18  O1  UNL     1      44.379  22.800  96.052  1.00  0.00    -0.269 OA
ENDBRANCH   1  16
TORSDOF 1
ENDMDL
