MODEL 1
REMARK VINA RESULT: -5.935166392      0.000      0.000
REMARK  2 active torsions:
REMARK  status: ('A' for Active; 'I' for Inactive)
REMARK    1  A    between atoms: O1_2  and  C2_3 
REMARK    2  A    between atoms: C6_9  and  N2_10 
ROOT
HETATM    1  C2  UNL     1      43.851  25.771  96.342  1.00  0.00     0.301 C 
HETATM    2  C3  UNL     1      43.751  24.316  96.799  1.00  0.00     0.112 C 
HETATM    3  C4  UNL     1      43.390  24.356  98.232  1.00  0.00     0.069 A 
HETATM    4  C5  UNL     1      42.712  25.443  98.740  1.00  0.00     0.204 A 
HETATM    5  N1  UNL     1      42.362  25.520 100.046  1.00  0.00    -0.167 N 
ATOM      6  H1  UNL     1      41.861  26.337 100.395  1.00  0.00     0.186 HD
HETATM    7  C6  UNL     1      42.679  24.515 100.877  1.00  0.00     0.680 A 
HETATM    8  N3  UNL     1      43.339  23.459 100.375  1.00  0.00    -0.156 N 
ATOM      9  H3  UNL     1      43.575  22.701 101.014  1.00  0.00     0.187 HD
HETATM   10  C7  UNL     1      43.710  23.331  99.091  1.00  0.00     0.270 A 
HETATM   11  O2  UNL     1      44.328  22.329  98.648  1.00  0.00    -0.267 OA
HETATM   12  O3  UNL     1      42.389  26.477  97.872  1.00  0.00    -0.175 OA
HETATM   13  O4  UNL     1      42.593  26.331  96.547  1.00  0.00    -0.201 OA
ENDROOT
BRANCH   7  14
HETATM   14  N2  UNL     1      42.351  24.572 102.135  1.00  0.00    -0.234 N 
ATOM     15  H22 UNL     1      41.602  25.184 102.460  1.00  0.00     0.174 HD
ATOM     16  H21 UNL     1      42.842  24.001 102.823  1.00  0.00     0.174 HD
ENDBRANCH   7  14
BRANCH   1  17
HETATM   17  O1  UNL     1      44.300  25.882  95.054  1.00  0.00    -0.363 OA
HETATM   18  C1  UNL     1      43.233  26.282  94.252  1.00  0.00     0.204 C 
ENDBRANCH   1  17
TORSDOF 2
ENDMDL
MODEL 2
REMARK VINA RESULT: -5.739688464      1.972      3.268
REMARK  2 active torsions:
REMARK  status: ('A' for Active; 'I' for Inactive)
REMARK    1  A    between atoms: O1_2  and  C2_3 
REMARK    2  A    between atoms: C6_9  and  N2_10 
ROOT
HETATM    1  C2  UNL     1      43.376  24.322  97.958  1.00  0.00     0.301 C 
HETATM    2  C3  UNL     1      43.575  25.099  99.259  1.00  0.00     0.112 C 
HETATM    3  C4  UNL     1      43.536  24.100 100.348  1.00  0.00     0.069 A 
HETATM    4  C5  UNL     1      43.882  22.790 100.092  1.00  0.00     0.204 A 
HETATM    5  N1  UNL     1      43.860  21.844 101.060  1.00  0.00    -0.167 N 
ATOM      6  H1  UNL     1      44.120  20.882 100.842  1.00  0.00     0.186 HD
HETATM    7  C6  UNL     1      43.494  22.180 102.306  1.00  0.00     0.680 A 
HETATM    8  N3  UNL     1      43.160  23.457 102.548  1.00  0.00    -0.156 N 
ATOM      9  H3  UNL     1      42.884  23.703 103.499  1.00  0.00     0.187 HD
HETATM   10  C7  UNL     1      43.164  24.435 101.628  1.00  0.00     0.270 A 
HETATM   11  O2  UNL     1      42.845  25.625 101.884  1.00  0.00    -0.267 OA
HETATM   12  O3  UNL     1      44.258  22.454  98.799  1.00  0.00    -0.175 OA
HETATM   13  O4  UNL     1      44.434  23.421  97.876  1.00  0.00    -0.201 OA
ENDROOT
BRANCH   7  14
HETATM   14  N2  UNL     1      43.468  21.284 103.249  1.00  0.00    -0.234 N 
ATOM     15  H22 UNL     1      43.758  20.321 103.075  1.00  0.00     0.174 HD
ATOM     16  H21 UNL     1      43.153  21.530 104.188  1.00  0.00     0.174 HD
ENDBRANCH   7  14
BRANCH   1  17
HETATM   17  O1  UNL     1      43.269  25.146  96.870  1.00  0.00    -0.363 OA
HETATM   18  C1  UNL     1      42.740  26.363  97.295  1.00  0.00     0.204 C 
ENDBRANCH   1  17
TORSDOF 2
ENDMDL
MODEL 3
REMARK VINA RESULT: -5.666445267      2.539      4.769
REMARK  2 active torsions:
REMARK  status: ('A' for Active; 'I' for Inactive)
REMARK    1  A    between atoms: O1_2  and  C2_3 
REMARK    2  A    between atoms: C6_9  and  N2_10 
ROOT
HETATM    1  C2  UNL     1      42.915  22.796 101.162  1.00  0.00     0.301 C 
HETATM    2  C3  UNL     1      43.915  22.676 100.012  1.00  0.00     0.112 C 
HETATM    3  C4  UNL     1      43.586  23.761  99.062  1.00  0.00     0.069 A 
HETATM    4  C5  UNL     1      42.959  24.903  99.513  1.00  0.00     0.204 A 
HETATM    5  N1  UNL     1      42.641  25.919  98.678  1.00  0.00    -0.167 N 
ATOM      6  H1  UNL     1      42.177  26.753  99.038  1.00  0.00     0.186 HD
HETATM    7  C6  UNL     1      42.939  25.823  97.373  1.00  0.00     0.680 A 
HETATM    8  N3  UNL     1      43.549  24.708  96.941  1.00  0.00    -0.156 N 
ATOM      9  H3  UNL     1      43.772  24.644  95.948  1.00  0.00     0.187 HD
HETATM   10  C7  UNL     1      43.888  23.671  97.724  1.00  0.00     0.270 A 
HETATM   11  O2  UNL     1      44.461  22.637  97.291  1.00  0.00    -0.267 OA
HETATM   12  O3  UNL     1      42.655  24.992 100.864  1.00  0.00    -0.175 OA
HETATM   13  O4  UNL     1      43.113  24.056 101.720  1.00  0.00    -0.201 OA
ENDROOT
BRANCH   7  14
HETATM   14  N2  UNL     1      42.640  26.790  96.555  1.00  0.00    -0.234 N 
ATOM     15  H22 UNL     1      42.382  27.715  96.900  1.00  0.00     0.174 HD
ATOM     16  H21 UNL     1      42.658  26.638  95.547  1.00  0.00     0.174 HD
ENDBRANCH   7  14
BRANCH   1  17
HETATM   17  O1  UNL     1      43.030  21.771 102.061  1.00  0.00    -0.363 OA
HETATM   18  C1  UNL     1      44.365  21.679 102.450  1.00  0.00     0.204 C 
ENDBRANCH   1  17
TORSDOF 2
ENDMDL
MODEL 4
REMARK VINA RESULT: -5.629968881      2.294      3.067
REMARK  2 active torsions:
REMARK  status: ('A' for Active; 'I' for Inactive)
REMARK    1  A    between atoms: O1_2  and  C2_3 
REMARK    2  A    between atoms: C6_9  and  N2_10 
ROOT
HETATM    1  C2  UNL     1      44.285  23.249  98.318  1.00  0.00     0.301 C 
HETATM    2  C3  UNL     1      43.812  22.177  99.300  1.00  0.00     0.112 C 
HETATM    3  C4  UNL     1      43.985  22.750 100.653  1.00  0.00     0.069 A 
HETATM    4  C5  UNL     1      43.963  24.117 100.828  1.00  0.00     0.204 A 
HETATM    5  N1  UNL     1      44.117  24.682 102.048  1.00  0.00    -0.167 N 
ATOM      6  H1  UNL     1      44.098  25.697 102.150  1.00  0.00     0.186 HD
HETATM    7  C6  UNL     1      44.296  23.899 103.124  1.00  0.00     0.680 A 
HETATM    8  N3  UNL     1      44.316  22.569 102.945  1.00  0.00    -0.156 N 
ATOM      9  H3  UNL     1      44.452  21.982 103.768  1.00  0.00     0.187 HD
HETATM   10  C7  UNL     1      44.168  21.955 101.760  1.00  0.00     0.270 A 
HETATM   11  O2  UNL     1      44.190  20.705 101.622  1.00  0.00    -0.267 OA
HETATM   12  O3  UNL     1      43.778  24.917  99.709  1.00  0.00    -0.175 OA
HETATM   13  O4  UNL     1      43.465  24.355  98.524  1.00  0.00    -0.201 OA
ENDROOT
BRANCH   7  14
HETATM   14  N2  UNL     1      44.446  24.425 104.304  1.00  0.00    -0.234 N 
ATOM     15  H22 UNL     1      44.188  23.914 105.149  1.00  0.00     0.174 HD
ATOM     16  H21 UNL     1      44.828  25.365 104.407  1.00  0.00     0.174 HD
ENDBRANCH   7  14
BRANCH   1  17
HETATM   17  O1  UNL     1      44.292  22.803  97.025  1.00  0.00    -0.363 OA
HETATM   18  C1  UNL     1      43.789  23.815  96.210  1.00  0.00     0.204 C 
ENDBRANCH   1  17
TORSDOF 2
ENDMDL
MODEL 5
REMARK VINA RESULT: -5.604438535      2.652      4.090
REMARK  2 active torsions:
REMARK  status: ('A' for Active; 'I' for Inactive)
REMARK    1  A    between atoms: O1_2  and  C2_3 
REMARK    2  A    between atoms: C6_9  and  N2_10 
ROOT
HETATM    1  C2  UNL     1      43.973  23.093  98.595  1.00  0.00     0.301 C 
HETATM    2  C3  UNL     1      44.736  23.316  99.901  1.00  0.00     0.112 C 
HETATM    3  C4  UNL     1      44.022  22.539 100.936  1.00  0.00     0.069 A 
HETATM    4  C5  UNL     1      43.279  21.434 100.576  1.00  0.00     0.204 A 
HETATM    5  N1  UNL     1      42.610  20.695 101.492  1.00  0.00    -0.167 N 
ATOM      6  H1  UNL     1      42.069  19.882 101.198  1.00  0.00     0.186 HD
HETATM    7  C6  UNL     1      42.665  21.038 102.788  1.00  0.00     0.680 A 
HETATM    8  N3  UNL     1      43.390  22.114 103.131  1.00  0.00    -0.156 N 
ATOM      9  H3  UNL     1      43.425  22.367 104.118  1.00  0.00     0.187 HD
HETATM   10  C7  UNL     1      44.072  22.882 102.266  1.00  0.00     0.270 A 
HETATM   11  O2  UNL     1      44.744  23.887 102.616  1.00  0.00    -0.267 OA
HETATM   12  O3  UNL     1      43.230  21.089  99.233  1.00  0.00    -0.175 OA
HETATM   13  O4  UNL     1      44.021  21.725  98.345  1.00  0.00    -0.201 OA
ENDROOT
BRANCH   7  14
HETATM   14  N2  UNL     1      42.028  20.339 103.682  1.00  0.00    -0.234 N 
ATOM     15  H22 UNL     1      42.274  19.367 103.869  1.00  0.00     0.174 HD
ATOM     16  H21 UNL     1      41.265  20.755 104.216  1.00  0.00     0.174 HD
ENDBRANCH   7  14
BRANCH   1  17
HETATM   17  O1  UNL     1      44.460  23.858  97.570  1.00  0.00    -0.363 OA
HETATM   18  C1  UNL     1      43.513  24.833  97.264  1.00  0.00     0.204 C 
ENDBRANCH   1  17
TORSDOF 2
ENDMDL
