MODEL 1
REMARK VINA RESULT: -6.437673731      0.000      0.000
REMARK  3 active torsions:
REMARK  status: ('A' for Active; 'I' for Inactive)
REMARK    1  A    between atoms: C5_11  and  N4_12 
REMARK    2  A    between atoms: C6_15  and  C7_16 
REMARK       I    between atoms: C7_16  and  N5_18 
REMARK    3  A    between atoms: N5_18  and  N6_20 
ROOT
HETATM    1  C1  UNL     1      44.600  23.626  96.347  1.00  0.00     0.069 C 
HETATM    2  C2  UNL     1      44.033  23.594  97.743  1.00  0.00     0.029 A 
HETATM    3  N1  UNL     1      44.043  22.370  98.361  1.00  0.00    -0.324 N 
ATOM      4  H1  UNL     1      44.444  21.550  97.905  1.00  0.00     0.169 HD
HETATM    5  C3  UNL     1      43.513  22.293  99.570  1.00  0.00     0.239 A 
HETATM    6  N2  UNL     1      43.499  21.156 100.198  1.00  0.00    -0.258 N 
ATOM      7  H2  UNL     1      43.901  20.341  99.737  1.00  0.00     0.181 HD
HETATM    8  C4  UNL     1      42.959  21.003 101.469  1.00  0.00     0.185 C 
HETATM    9  N3  UNL     1      42.497  20.882 102.535  1.00  0.00    -0.172 NA
HETATM   10  O1  UNL     1      42.994  23.332 100.173  1.00  0.00    -0.261 OA
HETATM   11  C5  UNL     1      42.967  24.499  99.626  1.00  0.00     0.163 A 
HETATM   12  C6  UNL     1      43.500  24.695  98.352  1.00  0.00     0.106 A 
ENDROOT
BRANCH  11  13
HETATM   13  N4  UNL     1      42.437  25.481 100.283  1.00  0.00    -0.379 N 
ATOM     14  H42 UNL     1      42.277  25.412 101.288  1.00  0.00     0.158 HD
ATOM     15  H41 UNL     1      42.180  26.327  99.775  1.00  0.00     0.158 HD
ENDBRANCH  11  13
BRANCH  12  16
HETATM   16  C7  UNL     1      43.497  26.031  97.814  1.00  0.00     0.275 C 
HETATM   17  O2  UNL     1      42.334  26.415  97.383  1.00  0.00    -0.266 OA
HETATM   18  N5  UNL     1      44.533  26.963  97.693  1.00  0.00    -0.272 N 
ATOM     19  H5  UNL     1      45.470  26.730  98.022  1.00  0.00     0.189 HD
BRANCH  18  20
HETATM   20  N6  UNL     1      44.281  28.232  97.112  1.00  0.00    -0.342 N 
ATOM     21  H62 UNL     1      44.088  28.288  96.112  1.00  0.00     0.176 HD
ATOM     22  H61 UNL     1      44.295  29.071  97.693  1.00  0.00     0.176 HD
ENDBRANCH  18  20
ENDBRANCH  12  16
TORSDOF 3
ENDMDL
MODEL 2
REMARK VINA RESULT: -6.125776729      2.415      5.658
REMARK  3 active torsions:
REMARK  status: ('A' for Active; 'I' for Inactive)
REMARK    1  A    between atoms: C5_11  and  N4_12 
REMARK    2  A    between atoms: C6_15  and  C7_16 
REMARK       I    between atoms: C7_16  and  N5_18 
REMARK    3  A    between atoms: N5_18  and  N6_20 
ROOT
HETATM    1  C1  UNL     1      43.739  24.513 102.398  1.00  0.00     0.069 C 
HETATM    2  C2  UNL     1      43.972  23.726 101.135  1.00  0.00     0.029 A 
HETATM    3  N1  UNL     1      44.732  24.349 100.178  1.00  0.00    -0.324 N 
ATOM      4  H1  UNL     1      45.136  25.271 100.340  1.00  0.00     0.169 HD
HETATM    5  C3  UNL     1      44.921  23.708  99.036  1.00  0.00     0.239 A 
HETATM    6  N2  UNL     1      45.634  24.255  98.099  1.00  0.00    -0.258 N 
ATOM      7  H2  UNL     1      46.036  25.177  98.268  1.00  0.00     0.181 HD
HETATM    8  C4  UNL     1      45.873  23.639  96.876  1.00  0.00     0.185 C 
HETATM    9  N3  UNL     1      46.064  23.116  95.849  1.00  0.00    -0.172 NA
HETATM   10  O1  UNL     1      44.413  22.524  98.807  1.00  0.00    -0.261 OA
HETATM   11  C5  UNL     1      43.694  21.907  99.681  1.00  0.00     0.163 A 
HETATM   12  C6  UNL     1      43.432  22.489 100.921  1.00  0.00     0.106 A 
ENDROOT
BRANCH  11  13
HETATM   13  N4  UNL     1      43.223  20.737  99.383  1.00  0.00    -0.379 N 
ATOM     14  H42 UNL     1      42.817  20.554  98.466  1.00  0.00     0.158 HD
ATOM     15  H41 UNL     1      43.267  19.999 100.087  1.00  0.00     0.158 HD
ENDBRANCH  11  13
BRANCH  12  16
HETATM   16  C7  UNL     1      42.674  21.729 101.881  1.00  0.00     0.275 C 
HETATM   17  O2  UNL     1      41.418  21.611 101.576  1.00  0.00    -0.266 OA
HETATM   18  N5  UNL     1      43.077  21.105 103.066  1.00  0.00    -0.272 N 
ATOM     19  H5  UNL     1      44.053  21.149 103.360  1.00  0.00     0.189 HD
BRANCH  18  20
HETATM   20  N6  UNL     1      42.129  20.411 103.860  1.00  0.00    -0.342 N 
ATOM     21  H62 UNL     1      41.138  20.497 103.635  1.00  0.00     0.176 HD
ATOM     22  H61 UNL     1      42.442  19.835 104.642  1.00  0.00     0.176 HD
ENDBRANCH  18  20
ENDBRANCH  12  16
TORSDOF 3
ENDMDL
MODEL 3
REMARK VINA RESULT: -5.955795091      2.108      5.765
REMARK  3 active torsions:
REMARK  status: ('A' for Active; 'I' for Inactive)
REMARK    1  A    between atoms: C5_11  and  N4_12 
REMARK    2  A    between atoms: C6_15  and  C7_16 
REMARK       I    between atoms: C7_16  and  N5_18 
REMARK    3  A    between atoms: N5_18  and  N6_20 
ROOT
HETATM    1  C1  UNL     1      44.329  24.493 102.499  1.00  0.00     0.069 C 
HETATM    2  C2  UNL     1      44.258  23.801 101.163  1.00  0.00     0.029 A 
HETATM    3  N1  UNL     1      44.643  24.552 100.082  1.00  0.00    -0.324 N 
ATOM      4  H1  UNL     1      44.986  25.507 100.196  1.00  0.00     0.169 HD
HETATM    5  C3  UNL     1      44.553  23.994  98.887  1.00  0.00     0.239 A 
HETATM    6  N2  UNL     1      44.905  24.664  97.832  1.00  0.00    -0.258 N 
ATOM      7  H2  UNL     1      45.247  25.617  97.953  1.00  0.00     0.181 HD
HETATM    8  C4  UNL     1      44.836  24.141  96.547  1.00  0.00     0.185 C 
HETATM    9  N3  UNL     1      44.768  23.694  95.469  1.00  0.00    -0.172 NA
HETATM   10  O1  UNL     1      44.116  22.772  98.717  1.00  0.00    -0.261 OA
HETATM   11  C5  UNL     1      43.746  22.034  99.708  1.00  0.00     0.163 A 
HETATM   12  C6  UNL     1      43.801  22.521 101.013  1.00  0.00     0.106 A 
ENDROOT
BRANCH  11  13
HETATM   13  N4  UNL     1      43.325  20.833  99.464  1.00  0.00    -0.379 N 
ATOM     14  H42 UNL     1      42.331  20.643  99.337  1.00  0.00     0.158 HD
ATOM     15  H41 UNL     1      44.009  20.079  99.401  1.00  0.00     0.158 HD
ENDBRANCH  11  13
BRANCH  12  16
HETATM   16  C7  UNL     1      43.434  21.633 102.085  1.00  0.00     0.275 C 
HETATM   17  O2  UNL     1      44.450  21.069 102.664  1.00  0.00    -0.266 OA
HETATM   18  N5  UNL     1      42.175  21.296 102.594  1.00  0.00    -0.272 N 
ATOM     19  H5  UNL     1      41.334  21.711 102.192  1.00  0.00     0.189 HD
BRANCH  18  20
HETATM   20  N6  UNL     1      42.067  20.376 103.667  1.00  0.00    -0.342 N 
ATOM     21  H62 UNL     1      41.768  20.715 104.582  1.00  0.00     0.176 HD
ATOM     22  H61 UNL     1      42.288  19.390 103.519  1.00  0.00     0.176 HD
ENDBRANCH  18  20
ENDBRANCH  12  16
TORSDOF 3
ENDMDL
MODEL 4
REMARK VINA RESULT: -5.928142180      1.735      5.086
REMARK  3 active torsions:
REMARK  status: ('A' for Active; 'I' for Inactive)
REMARK    1  A    between atoms: C5_11  and  N4_12 
REMARK    2  A    between atoms: C6_15  and  C7_16 
REMARK       I    between atoms: C7_16  and  N5_18 
REMARK    3  A    between atoms: N5_18  and  N6_20 
ROOT
HETATM    1  C1  UNL     1      44.314  21.809  98.653  1.00  0.00     0.069 C 
HETATM    2  C2  UNL     1      43.725  23.195  98.652  1.00  0.00     0.029 A 
HETATM    3  N1  UNL     1      43.723  23.840  97.442  1.00  0.00    -0.324 N 
ATOM      4  H1  UNL     1      44.069  23.383  96.598  1.00  0.00     0.169 HD
HETATM    5  C3  UNL     1      43.254  25.076  97.409  1.00  0.00     0.239 A 
HETATM    6  N2  UNL     1      43.231  25.729  96.287  1.00  0.00    -0.258 N 
ATOM      7  H2  UNL     1      43.578  25.266  95.448  1.00  0.00     0.181 HD
HETATM    8  C4  UNL     1      42.753  27.030  96.181  1.00  0.00     0.185 C 
HETATM    9  N3  UNL     1      42.355  28.126  96.102  1.00  0.00    -0.172 NA
HETATM   10  O1  UNL     1      42.805  25.681  98.479  1.00  0.00    -0.261 OA
HETATM   11  C5  UNL     1      42.790  25.109  99.634  1.00  0.00     0.163 A 
HETATM   12  C6  UNL     1      43.259  23.804  99.783  1.00  0.00     0.106 A 
ENDROOT
BRANCH  11  13
HETATM   13  N4  UNL     1      42.331  25.770 100.649  1.00  0.00    -0.379 N 
ATOM     14  H42 UNL     1      41.542  26.408 100.544  1.00  0.00     0.158 HD
ATOM     15  H41 UNL     1      42.775  25.641 101.558  1.00  0.00     0.158 HD
ENDBRANCH  11  13
BRANCH  12  16
HETATM   16  C7  UNL     1      43.163  23.193 101.084  1.00  0.00     0.275 C 
HETATM   17  O2  UNL     1      41.970  22.769 101.371  1.00  0.00    -0.266 OA
HETATM   18  N5  UNL     1      44.139  22.984 102.064  1.00  0.00    -0.272 N 
ATOM     19  H5  UNL     1      45.100  23.284 101.899  1.00  0.00     0.189 HD
BRANCH  18  20
HETATM   20  N6  UNL     1      43.793  22.357 103.287  1.00  0.00    -0.342 N 
ATOM     21  H62 UNL     1      43.427  21.405 103.269  1.00  0.00     0.176 HD
ATOM     22  H61 UNL     1      43.910  22.858 104.169  1.00  0.00     0.176 HD
ENDBRANCH  18  20
ENDBRANCH  12  16
TORSDOF 3
ENDMDL
MODEL 5
REMARK VINA RESULT: -5.601107188      1.617      5.429
REMARK  3 active torsions:
REMARK  status: ('A' for Active; 'I' for Inactive)
REMARK    1  A    between atoms: C5_11  and  N4_12 
REMARK    2  A    between atoms: C6_15  and  C7_16 
REMARK       I    between atoms: C7_16  and  N5_18 
REMARK    3  A    between atoms: N5_18  and  N6_20 
ROOT
HETATM    1  C1  UNL     1      44.159  20.551  99.744  1.00  0.00     0.069 C 
HETATM    2  C2  UNL     1      43.653  21.970  99.788  1.00  0.00     0.029 A 
HETATM    3  N1  UNL     1      43.742  22.669  98.612  1.00  0.00    -0.324 N 
ATOM      4  H1  UNL     1      44.099  22.232  97.761  1.00  0.00     0.169 HD
HETATM    5  C3  UNL     1      43.350  23.932  98.621  1.00  0.00     0.239 A 
HETATM    6  N2  UNL     1      43.414  24.637  97.533  1.00  0.00    -0.258 N 
ATOM      7  H2  UNL     1      43.771  24.194  96.686  1.00  0.00     0.181 HD
HETATM    8  C4  UNL     1      43.020  25.968  97.470  1.00  0.00     0.185 C 
HETATM    9  N3  UNL     1      42.691  27.089  97.430  1.00  0.00    -0.172 NA
HETATM   10  O1  UNL     1      42.890  24.513  99.700  1.00  0.00    -0.261 OA
HETATM   11  C5  UNL     1      42.790  23.889 100.824  1.00  0.00     0.163 A 
HETATM   12  C6  UNL     1      43.174  22.552 100.927  1.00  0.00     0.106 A 
ENDROOT
BRANCH  11  13
HETATM   13  N4  UNL     1      42.325  24.529 101.849  1.00  0.00    -0.379 N 
ATOM     14  H42 UNL     1      41.957  25.475 101.754  1.00  0.00     0.158 HD
ATOM     15  H41 UNL     1      42.335  24.066 102.759  1.00  0.00     0.158 HD
ENDBRANCH  11  13
BRANCH  12  16
HETATM   16  C7  UNL     1      42.984  21.888 102.190  1.00  0.00     0.275 C 
HETATM   17  O2  UNL     1      43.853  22.228 103.093  1.00  0.00    -0.266 OA
HETATM   18  N5  UNL     1      42.021  20.954 102.590  1.00  0.00    -0.272 N 
ATOM     19  H5  UNL     1      41.302  20.650 101.933  1.00  0.00     0.189 HD
BRANCH  18  20
HETATM   20  N6  UNL     1      42.046  20.429 103.907  1.00  0.00    -0.342 N 
ATOM     21  H62 UNL     1      42.903  19.999 104.252  1.00  0.00     0.176 HD
ATOM     22  H61 UNL     1      41.213  20.486 104.494  1.00  0.00     0.176 HD
ENDBRANCH  18  20
ENDBRANCH  12  16
TORSDOF 3
ENDMDL
