MODEL 1
REMARK VINA RESULT: -11.076862457      0.000      0.000
REMARK  1 active torsions:
REMARK  status: ('A' for Active; 'I' for Inactive)
REMARK       I    between atoms: N3_28  and  C24_29 
REMARK    1  A    between atoms: C24_29  and  C25_31 
ROOT
HETATM    1  C1  UNL     1       4.336  23.793  -5.546  1.00  0.00     0.039 C 
HETATM    2  C2  UNL     1       3.975  25.168  -5.055  1.00  0.00     0.047 C 
HETATM    3  C3  UNL     1       5.235  26.035  -5.056  1.00  0.00     0.039 C 
HETATM    4  C4  UNL     1       6.414  25.188  -4.624  1.00  0.00     0.080 C 
HETATM    5  C5  UNL     1       5.918  24.432  -3.447  1.00  0.00     0.127 C 
HETATM    6  O1  UNL     1       6.491  23.454  -3.079  1.00  0.00    -0.298 OA
HETATM    7  C6  UNL     1       4.694  24.888  -2.708  1.00  0.00     0.090 C 
HETATM    8  C7  UNL     1       3.503  25.010  -3.639  1.00  0.00     0.056 C 
HETATM    9  C8  UNL     1       2.567  25.950  -3.065  1.00  0.00    -0.022 A 
HETATM   10  C9  UNL     1       2.839  26.228  -1.743  1.00  0.00     0.040 A 
HETATM   11  C10 UNL     1       2.080  27.122  -0.973  1.00  0.00     0.044 A 
HETATM   12  N1  UNL     1       2.183  27.517   0.301  1.00  0.00    -0.355 N 
ATOM     13  H1  UNL     1       2.891  27.200   0.965  1.00  0.00     0.166 HD
HETATM   14  C11 UNL     1       1.203  28.398   0.565  1.00  0.00     0.043 A 
HETATM   15  C12 UNL     1       0.827  29.117   1.681  1.00  0.00     0.030 A 
HETATM   16  C13 UNL     1      -0.260  29.983   1.677  1.00  0.00     0.002 A 
HETATM   17  C14 UNL     1      -0.976  30.118   0.512  1.00  0.00     0.001 A 
HETATM   18  C15 UNL     1      -0.634  29.423  -0.617  1.00  0.00     0.014 A 
HETATM   19  C16 UNL     1       0.446  28.565  -0.603  1.00  0.00     0.003 A 
HETATM   20  C17 UNL     1       1.012  27.745  -1.582  1.00  0.00     0.005 A 
HETATM   21  C18 UNL     1       0.683  27.514  -2.897  1.00  0.00     0.045 A 
HETATM   22  C19 UNL     1       1.468  26.632  -3.581  1.00  0.00     0.048 A 
HETATM   23  N2  UNL     1       0.984  26.428  -4.897  1.00  0.00    -0.308 N 
HETATM   24  C20 UNL     1      -0.312  26.572  -5.242  1.00  0.00     0.099 A 
HETATM   25  C21 UNL     1      -0.437  26.244  -6.592  1.00  0.00     0.021 A 
HETATM   26  C22 UNL     1       0.802  25.895  -7.071  1.00  0.00     0.051 A 
HETATM   27  C23 UNL     1       1.669  26.025  -5.973  1.00  0.00     0.117 A 
HETATM   28  N3  UNL     1       3.069  25.723  -6.018  1.00  0.00    -0.287 N 
HETATM   29  C24 UNL     1       3.651  26.104  -7.260  1.00  0.00     0.278 C 
HETATM   30  O2  UNL     1       4.561  25.291  -7.673  1.00  0.00    -0.265 OA
ENDROOT
BRANCH  29  31
HETATM   31  C25 UNL     1       3.364  27.247  -8.069  1.00  0.00     0.117 A 
HETATM   32  C26 UNL     1       3.922  27.308  -9.357  1.00  0.00     0.123 A 
HETATM   33  N4  UNL     1       3.698  28.349 -10.182  1.00  0.00    -0.362 N 
HETATM   34  C27 UNL     1       2.934  29.391  -9.833  1.00  0.00     0.059 A 
ATOM     35  H4  UNL     1       4.128  28.342 -11.107  1.00  0.00     0.165 HD
HETATM   36  C28 UNL     1       2.693  30.463 -10.657  1.00  0.00     0.032 A 
HETATM   37  C32 UNL     1       2.375  29.355  -8.574  1.00  0.00     0.059 A 
HETATM   38  C29 UNL     1       1.903  31.536 -10.291  1.00  0.00     0.002 A 
HETATM   39  C30 UNL     1       1.346  31.496  -9.030  1.00  0.00     0.002 A 
HETATM   40  C31 UNL     1       1.581  30.420  -8.190  1.00  0.00     0.032 A 
HETATM   41  N5  UNL     1       2.611  28.311  -7.774  1.00  0.00    -0.349 N 
ATOM     42  H5  UNL     1       2.176  28.327  -6.852  1.00  0.00     0.166 HD
ENDBRANCH  29  31
TORSDOF 1
ENDMDL
MODEL 2
REMARK VINA RESULT: -10.598143503      3.023      8.679
REMARK  1 active torsions:
REMARK  status: ('A' for Active; 'I' for Inactive)
REMARK       I    between atoms: N3_28  and  C24_29 
REMARK    1  A    between atoms: C24_29  and  C25_31 
ROOT
HETATM    1  C1  UNL     1      -0.836  30.447  -7.381  1.00  0.00     0.039 C 
HETATM    2  C2  UNL     1       0.482  29.814  -7.030  1.00  0.00     0.047 C 
HETATM    3  C3  UNL     1       1.391  30.882  -6.420  1.00  0.00     0.039 C 
HETATM    4  C4  UNL     1       1.168  32.191  -7.149  1.00  0.00     0.080 C 
HETATM    5  C5  UNL     1       1.158  31.821  -8.586  1.00  0.00     0.127 C 
HETATM    6  O1  UNL     1       0.688  32.562  -9.393  1.00  0.00    -0.298 OA
HETATM    7  C6  UNL     1       1.737  30.513  -9.041  1.00  0.00     0.090 C 
HETATM    8  C7  UNL     1       1.092  29.345  -8.320  1.00  0.00     0.056 C 
HETATM    9  C8  UNL     1       2.012  28.231  -8.337  1.00  0.00    -0.022 A 
HETATM   10  C9  UNL     1       3.044  28.410  -9.234  1.00  0.00     0.040 A 
HETATM   11  C10 UNL     1       4.071  27.473  -9.422  1.00  0.00     0.044 A 
HETATM   12  N1  UNL     1       5.139  27.465 -10.227  1.00  0.00    -0.355 N 
ATOM     13  H1  UNL     1       5.392  28.203 -10.885  1.00  0.00     0.166 HD
HETATM   14  C11 UNL     1       5.826  26.327 -10.029  1.00  0.00     0.043 A 
HETATM   15  C12 UNL     1       6.979  25.790 -10.564  1.00  0.00     0.030 A 
HETATM   16  C13 UNL     1       7.481  24.557 -10.166  1.00  0.00     0.002 A 
HETATM   17  C14 UNL     1       6.793  23.858  -9.203  1.00  0.00     0.001 A 
HETATM   18  C15 UNL     1       5.646  24.357  -8.647  1.00  0.00     0.014 A 
HETATM   19  C16 UNL     1       5.155  25.582  -9.049  1.00  0.00     0.003 A 
HETATM   20  C17 UNL     1       4.033  26.321  -8.666  1.00  0.00     0.005 A 
HETATM   21  C18 UNL     1       3.034  26.076  -7.754  1.00  0.00     0.045 A 
HETATM   22  C19 UNL     1       2.070  27.034  -7.628  1.00  0.00     0.048 A 
HETATM   23  N2  UNL     1       1.065  26.633  -6.713  1.00  0.00    -0.308 N 
HETATM   24  C20 UNL     1       0.757  25.343  -6.467  1.00  0.00     0.099 A 
HETATM   25  C21 UNL     1      -0.305  25.319  -5.564  1.00  0.00     0.021 A 
HETATM   26  C22 UNL     1      -0.647  26.613  -5.258  1.00  0.00     0.051 A 
HETATM   27  C23 UNL     1       0.240  27.410  -6.002  1.00  0.00     0.117 A 
HETATM   28  N3  UNL     1       0.214  28.842  -6.010  1.00  0.00    -0.287 N 
HETATM   29  C24 UNL     1      -0.097  29.372  -4.726  1.00  0.00     0.278 C 
HETATM   30  O2  UNL     1      -0.828  30.432  -4.769  1.00  0.00    -0.265 OA
ENDROOT
BRANCH  29  31
HETATM   31  C25 UNL     1       0.299  28.890  -3.439  1.00  0.00     0.117 A 
HETATM   32  C26 UNL     1      -0.680  28.789  -2.436  1.00  0.00     0.123 A 
HETATM   33  N4  UNL     1      -0.389  28.343  -1.200  1.00  0.00    -0.362 N 
HETATM   34  C27 UNL     1       0.846  27.967  -0.843  1.00  0.00     0.059 A 
ATOM     35  H4  UNL     1      -1.138  28.288  -0.510  1.00  0.00     0.165 HD
HETATM   36  C28 UNL     1       1.166  27.511   0.412  1.00  0.00     0.032 A 
HETATM   37  C32 UNL     1       1.824  28.059  -1.809  1.00  0.00     0.059 A 
HETATM   38  C29 UNL     1       2.442  27.125   0.774  1.00  0.00     0.002 A 
HETATM   39  C30 UNL     1       3.418  27.217  -0.197  1.00  0.00     0.002 A 
HETATM   40  C31 UNL     1       3.108  27.677  -1.465  1.00  0.00     0.032 A 
HETATM   41  N5  UNL     1       1.510  28.503  -3.030  1.00  0.00    -0.349 N 
ATOM     42  H5  UNL     1       2.266  28.552  -3.713  1.00  0.00     0.166 HD
ENDBRANCH  29  31
TORSDOF 1
ENDMDL
MODEL 3
REMARK VINA RESULT: -10.566968015      3.123      8.673
REMARK  1 active torsions:
REMARK  status: ('A' for Active; 'I' for Inactive)
REMARK       I    between atoms: N3_28  and  C24_29 
REMARK    1  A    between atoms: C24_29  and  C25_31 
ROOT
HETATM    1  C1  UNL     1       1.015  25.027  -5.350  1.00  0.00     0.039 C 
HETATM    2  C2  UNL     1       2.060  25.991  -5.838  1.00  0.00     0.047 C 
HETATM    3  C3  UNL     1       1.978  27.268  -5.000  1.00  0.00     0.039 C 
HETATM    4  C4  UNL     1       0.523  27.567  -4.703  1.00  0.00     0.080 C 
HETATM    5  C5  UNL     1      -0.170  27.370  -5.999  1.00  0.00     0.127 C 
HETATM    6  O1  UNL     1      -1.352  27.215  -6.030  1.00  0.00    -0.298 OA
HETATM    7  C6  UNL     1       0.604  27.364  -7.285  1.00  0.00     0.090 C 
HETATM    8  C7  UNL     1       1.709  26.327  -7.258  1.00  0.00     0.056 C 
HETATM    9  C8  UNL     1       2.734  26.723  -8.197  1.00  0.00    -0.022 A 
HETATM   10  C9  UNL     1       2.311  27.715  -9.056  1.00  0.00     0.040 A 
HETATM   11  C10 UNL     1       3.130  28.275 -10.047  1.00  0.00     0.044 A 
HETATM   12  N1  UNL     1       2.907  29.228 -10.959  1.00  0.00    -0.355 N 
ATOM     13  H1  UNL     1       2.032  29.737 -11.084  1.00  0.00     0.166 HD
HETATM   14  C11 UNL     1       4.025  29.407 -11.683  1.00  0.00     0.043 A 
HETATM   15  C12 UNL     1       4.373  30.234 -12.733  1.00  0.00     0.030 A 
HETATM   16  C13 UNL     1       5.636  30.211 -13.311  1.00  0.00     0.002 A 
HETATM   17  C14 UNL     1       6.562  29.328 -12.810  1.00  0.00     0.001 A 
HETATM   18  C15 UNL     1       6.256  28.491 -11.771  1.00  0.00     0.014 A 
HETATM   19  C16 UNL     1       4.999  28.521 -11.203  1.00  0.00     0.003 A 
HETATM   20  C17 UNL     1       4.419  27.800 -10.156  1.00  0.00     0.005 A 
HETATM   21  C18 UNL     1       4.907  26.812  -9.334  1.00  0.00     0.045 A 
HETATM   22  C19 UNL     1       4.050  26.316  -8.394  1.00  0.00     0.048 A 
HETATM   23  N2  UNL     1       4.648  25.260  -7.662  1.00  0.00    -0.308 N 
HETATM   24  C20 UNL     1       5.620  24.468  -8.160  1.00  0.00     0.099 A 
HETATM   25  C21 UNL     1       5.931  23.510  -7.195  1.00  0.00     0.021 A 
HETATM   26  C22 UNL     1       5.135  23.724  -6.097  1.00  0.00     0.051 A 
HETATM   27  C23 UNL     1       4.342  24.835  -6.431  1.00  0.00     0.117 A 
HETATM   28  N3  UNL     1       3.333  25.385  -5.575  1.00  0.00    -0.287 N 
HETATM   29  C24 UNL     1       3.723  25.347  -4.207  1.00  0.00     0.278 C 
HETATM   30  O2  UNL     1       2.750  25.100  -3.400  1.00  0.00    -0.265 OA
ENDROOT
BRANCH  29  31
HETATM   31  C25 UNL     1       5.020  25.552  -3.641  1.00  0.00     0.117 A 
HETATM   32  C26 UNL     1       5.213  25.233  -2.286  1.00  0.00     0.123 A 
HETATM   33  N4  UNL     1       6.404  25.395  -1.679  1.00  0.00    -0.362 N 
HETATM   34  C27 UNL     1       7.480  25.870  -2.320  1.00  0.00     0.059 A 
ATOM     35  H4  UNL     1       6.489  25.147  -0.693  1.00  0.00     0.165 HD
HETATM   36  C28 UNL     1       8.702  26.044  -1.721  1.00  0.00     0.032 A 
HETATM   37  C32 UNL     1       7.315  26.191  -3.650  1.00  0.00     0.059 A 
HETATM   38  C29 UNL     1       9.809  26.534  -2.388  1.00  0.00     0.002 A 
HETATM   39  C30 UNL     1       9.640  26.854  -3.719  1.00  0.00     0.002 A 
HETATM   40  C31 UNL     1       8.412  26.682  -4.334  1.00  0.00     0.032 A 
HETATM   41  N5  UNL     1       6.124  26.019  -4.231  1.00  0.00    -0.349 N 
ATOM     42  H5  UNL     1       6.050  26.269  -5.217  1.00  0.00     0.166 HD
ENDBRANCH  29  31
TORSDOF 1
ENDMDL
MODEL 4
REMARK VINA RESULT: -10.458456893      2.966      8.761
REMARK  1 active torsions:
REMARK  status: ('A' for Active; 'I' for Inactive)
REMARK       I    between atoms: N3_28  and  C24_29 
REMARK    1  A    between atoms: C24_29  and  C25_31 
ROOT
HETATM    1  C1  UNL     1      -0.810  29.819  -6.530  1.00  0.00     0.039 C 
HETATM    2  C2  UNL     1       0.634  29.428  -6.381  1.00  0.00     0.047 C 
HETATM    3  C3  UNL     1       1.420  30.640  -5.878  1.00  0.00     0.039 C 
HETATM    4  C4  UNL     1       0.872  31.889  -6.538  1.00  0.00     0.080 C 
HETATM    5  C5  UNL     1       0.724  31.521  -7.968  1.00  0.00     0.127 C 
HETATM    6  O1  UNL     1       0.024  32.167  -8.683  1.00  0.00    -0.298 OA
HETATM    7  C6  UNL     1       1.451  30.335  -8.529  1.00  0.00     0.090 C 
HETATM    8  C7  UNL     1       1.128  29.072  -7.754  1.00  0.00     0.056 C 
HETATM    9  C8  UNL     1       2.216  28.137  -7.925  1.00  0.00    -0.022 A 
HETATM   10  C9  UNL     1       3.064  28.493  -8.952  1.00  0.00     0.040 A 
HETATM   11  C10 UNL     1       4.202  27.751  -9.303  1.00  0.00     0.044 A 
HETATM   12  N1  UNL     1       5.131  27.930 -10.249  1.00  0.00    -0.355 N 
ATOM     13  H1  UNL     1       5.156  28.701 -10.917  1.00  0.00     0.166 HD
HETATM   14  C11 UNL     1       6.026  26.931 -10.175  1.00  0.00     0.043 A 
HETATM   15  C12 UNL     1       7.168  26.604 -10.878  1.00  0.00     0.030 A 
HETATM   16  C13 UNL     1       7.928  25.479 -10.583  1.00  0.00     0.002 A 
HETATM   17  C14 UNL     1       7.514  24.671  -9.550  1.00  0.00     0.001 A 
HETATM   18  C15 UNL     1       6.388  24.961  -8.829  1.00  0.00     0.014 A 
HETATM   19  C16 UNL     1       5.640  26.080  -9.130  1.00  0.00     0.003 A 
HETATM   20  C17 UNL     1       4.472  26.611  -8.577  1.00  0.00     0.005 A 
HETATM   21  C18 UNL     1       3.669  26.196  -7.541  1.00  0.00     0.045 A 
HETATM   22  C19 UNL     1       2.580  26.970  -7.259  1.00  0.00     0.048 A 
HETATM   23  N2  UNL     1       1.799  26.399  -6.223  1.00  0.00    -0.308 N 
HETATM   24  C20 UNL     1       1.759  25.075  -5.967  1.00  0.00     0.099 A 
HETATM   25  C21 UNL     1       0.855  24.866  -4.926  1.00  0.00     0.021 A 
HETATM   26  C22 UNL     1       0.340  26.081  -4.546  1.00  0.00     0.051 A 
HETATM   27  C23 UNL     1       0.961  27.020  -5.387  1.00  0.00     0.117 A 
HETATM   28  N3  UNL     1       0.685  28.426  -5.357  1.00  0.00    -0.287 N 
HETATM   29  C24 UNL     1       0.470  28.894  -4.030  1.00  0.00     0.278 C 
HETATM   30  O2  UNL     1      -0.433  29.809  -3.946  1.00  0.00    -0.265 OA
ENDROOT
BRANCH  29  31
HETATM   31  C25 UNL     1       1.122  28.490  -2.823  1.00  0.00     0.117 A 
HETATM   32  C26 UNL     1       2.493  28.761  -2.684  1.00  0.00     0.123 A 
HETATM   33  N4  UNL     1       3.179  28.416  -1.578  1.00  0.00    -0.362 N 
HETATM   34  C27 UNL     1       2.605  27.793  -0.541  1.00  0.00     0.059 A 
ATOM     35  H4  UNL     1       4.174  28.637  -1.529  1.00  0.00     0.165 HD
HETATM   36  C28 UNL     1       3.285  27.430   0.595  1.00  0.00     0.032 A 
HETATM   37  C32 UNL     1       1.260  27.516  -0.654  1.00  0.00     0.059 A 
HETATM   38  C29 UNL     1       2.686  26.788   1.663  1.00  0.00     0.002 A 
HETATM   39  C30 UNL     1       1.340  26.512   1.546  1.00  0.00     0.002 A 
HETATM   40  C31 UNL     1       0.644  26.873   0.405  1.00  0.00     0.032 A 
HETATM   41  N5  UNL     1       0.601  27.870  -1.761  1.00  0.00    -0.349 N 
ATOM     42  H5  UNL     1      -0.393  27.646  -1.799  1.00  0.00     0.166 HD
ENDBRANCH  29  31
TORSDOF 1
ENDMDL
MODEL 5
REMARK VINA RESULT: -10.366539854      2.564      7.397
REMARK  1 active torsions:
REMARK  status: ('A' for Active; 'I' for Inactive)
REMARK       I    between atoms: N3_28  and  C24_29 
REMARK    1  A    between atoms: C24_29  and  C25_31 
ROOT
HETATM    1  C1  UNL     1       6.213  25.488  -5.150  1.00  0.00     0.039 C 
HETATM    2  C2  UNL     1       4.739  25.768  -5.246  1.00  0.00     0.047 C 
HETATM    3  C3  UNL     1       4.028  24.495  -5.710  1.00  0.00     0.039 C 
HETATM    4  C4  UNL     1       4.897  23.795  -6.734  1.00  0.00     0.080 C 
HETATM    5  C5  UNL     1       5.353  24.877  -7.641  1.00  0.00     0.127 C 
HETATM    6  O1  UNL     1       6.297  24.709  -8.348  1.00  0.00    -0.298 OA
HETATM    7  C6  UNL     1       4.634  26.195  -7.677  1.00  0.00     0.090 C 
HETATM    8  C7  UNL     1       4.568  26.824  -6.299  1.00  0.00     0.056 C 
HETATM    9  C8  UNL     1       3.439  27.726  -6.261  1.00  0.00    -0.022 A 
HETATM   10  C9  UNL     1       2.942  28.005  -7.516  1.00  0.00     0.040 A 
HETATM   11  C10 UNL     1       1.839  28.844  -7.738  1.00  0.00     0.044 A 
HETATM   12  N1  UNL     1       1.219  29.229  -8.858  1.00  0.00    -0.355 N 
ATOM     13  H1  UNL     1       1.474  28.948  -9.805  1.00  0.00     0.166 HD
HETATM   14  C11 UNL     1       0.203  30.048  -8.534  1.00  0.00     0.043 A 
HETATM   15  C12 UNL     1      -0.755  30.730  -9.257  1.00  0.00     0.030 A 
HETATM   16  C13 UNL     1      -1.715  31.530  -8.650  1.00  0.00     0.002 A 
HETATM   17  C14 UNL     1      -1.698  31.637  -7.280  1.00  0.00     0.001 A 
HETATM   18  C15 UNL     1      -0.764  30.976  -6.528  1.00  0.00     0.014 A 
HETATM   19  C16 UNL     1       0.185  30.184  -7.139  1.00  0.00     0.003 A 
HETATM   20  C17 UNL     1       1.235  29.411  -6.636  1.00  0.00     0.005 A 
HETATM   21  C18 UNL     1       1.679  29.178  -5.356  1.00  0.00     0.045 A 
HETATM   22  C19 UNL     1       2.757  28.351  -5.221  1.00  0.00     0.048 A 
HETATM   23  N2  UNL     1       3.158  28.249  -3.866  1.00  0.00    -0.308 N 
HETATM   24  C20 UNL     1       2.945  29.219  -2.953  1.00  0.00     0.099 A 
HETATM   25  C21 UNL     1       3.514  28.808  -1.748  1.00  0.00     0.021 A 
HETATM   26  C22 UNL     1       4.080  27.571  -1.933  1.00  0.00     0.051 A 
HETATM   27  C23 UNL     1       3.833  27.254  -3.280  1.00  0.00     0.117 A 
HETATM   28  N3  UNL     1       4.286  26.052  -3.915  1.00  0.00    -0.287 N 
HETATM   29  C24 UNL     1       4.218  24.933  -3.039  1.00  0.00     0.278 C 
HETATM   30  O2  UNL     1       5.188  24.100  -3.190  1.00  0.00    -0.265 OA
ENDROOT
BRANCH  29  31
HETATM   31  C25 UNL     1       3.229  24.630  -2.051  1.00  0.00     0.117 A 
HETATM   32  C26 UNL     1       2.449  23.474  -2.224  1.00  0.00     0.123 A 
HETATM   33  N4  UNL     1       1.499  23.117  -1.339  1.00  0.00    -0.362 N 
HETATM   34  C27 UNL     1       1.233  23.835  -0.241  1.00  0.00     0.059 A 
ATOM     35  H4  UNL     1       0.962  22.268  -1.512  1.00  0.00     0.165 HD
HETATM   36  C28 UNL     1       0.268  23.492   0.674  1.00  0.00     0.032 A 
HETATM   37  C32 UNL     1       1.984  24.975  -0.049  1.00  0.00     0.059 A 
HETATM   38  C29 UNL     1      -0.002  24.237   1.806  1.00  0.00     0.002 A 
HETATM   39  C30 UNL     1       0.753  25.377   1.993  1.00  0.00     0.002 A 
HETATM   40  C31 UNL     1       1.728  25.734   1.078  1.00  0.00     0.032 A 
HETATM   41  N5  UNL     1       2.922  25.307  -0.941  1.00  0.00    -0.349 N 
ATOM     42  H5  UNL     1       3.454  26.157  -0.757  1.00  0.00     0.166 HD
ENDBRANCH  29  31
TORSDOF 1
ENDMDL
