MODEL 1
REMARK VINA RESULT: -8.409527645      0.000      0.000
REMARK  4 active torsions:
REMARK  status: ('A' for Active; 'I' for Inactive)
REMARK    1  A    between atoms: N2_22  and  C18_23 
REMARK    2  A    between atoms: C18_23  and  N3_25 
REMARK    3  A    between atoms: N3_25  and  C19_27 
REMARK    4  A    between atoms: C22_33  and  C23_34 
ROOT
HETATM    1  C1  UNL     1       6.165  26.072 -10.094  1.00  0.00     0.068 C 
HETATM    2  C2  UNL     1       5.195  26.223  -8.975  1.00  0.00     0.007 A 
HETATM    3  C3  UNL     1       5.197  25.304  -7.965  1.00  0.00     0.025 A 
HETATM    4  C4  UNL     1       4.317  25.403  -6.909  1.00  0.00     0.016 A 
HETATM    5  C5  UNL     1       3.390  26.439  -6.825  1.00  0.00     0.021 A 
HETATM    6  C6  UNL     1       3.434  27.348  -7.885  1.00  0.00     0.157 A 
HETATM    7  N1  UNL     1       4.304  27.227  -8.903  1.00  0.00    -0.340 N 
ATOM      8  H1  UNL     1       4.287  27.923  -9.649  1.00  0.00     0.167 HD
HETATM    9  O1  UNL     1       2.669  28.503  -8.145  1.00  0.00    -0.291 OA
HETATM   10  C7  UNL     1       2.063  29.450  -7.331  1.00  0.00     0.104 A 
HETATM   11  C8  UNL     1       1.870  29.565  -5.963  1.00  0.00     0.067 A 
HETATM   12  C9  UNL     1       1.207  30.673  -5.477  1.00  0.00     0.021 A 
HETATM   13  C10 UNL     1       0.718  31.686  -6.271  1.00  0.00     0.013 A 
HETATM   14  C11 UNL     1       0.919  31.560  -7.640  1.00  0.00    -0.023 A 
HETATM   15  C12 UNL     1       0.451  32.540  -8.462  1.00  0.00     0.012 A 
HETATM   16  C13 UNL     1       0.641  32.431  -9.817  1.00  0.00     0.001 A 
HETATM   17  C14 UNL     1       1.300  31.332 -10.323  1.00  0.00     0.001 A 
HETATM   18  C15 UNL     1       1.785  30.325  -9.518  1.00  0.00     0.015 A 
HETATM   19  C16 UNL     1       1.577  30.463  -8.152  1.00  0.00     0.009 A 
HETATM   20  C17 UNL     1       2.226  28.733  -4.834  1.00  0.00     0.263 C 
HETATM   21  O2  UNL     1       2.151  29.373  -3.766  1.00  0.00    -0.267 OA
HETATM   22  N2  UNL     1       2.638  27.354  -4.688  1.00  0.00    -0.276 N 
HETATM   23  C22 UNL     1       2.637  26.216  -5.583  1.00  0.00     0.166 C 
ENDROOT
BRANCH  22  24
HETATM   24  C18 UNL     1       3.132  27.123  -3.394  1.00  0.00     0.183 C 
HETATM   25  S1  UNL     1       4.725  27.032  -3.132  1.00  0.00    -0.040 SA
BRANCH  24  26
HETATM   26  N3  UNL     1       2.225  26.971  -2.330  1.00  0.00    -0.313 N 
ATOM     27  H3  UNL     1       1.708  27.783  -1.995  1.00  0.00     0.170 HD
BRANCH  26  28
HETATM   28  C19 UNL     1       2.029  25.800  -1.754  1.00  0.00     0.150 A 
HETATM   29  N4  UNL     1       2.174  24.592  -2.304  1.00  0.00    -0.346 N 
HETATM   30  C20 UNL     1       1.933  23.543  -1.573  1.00  0.00     0.097 A 
ATOM     31  H4  UNL     1       2.467  24.494  -3.275  1.00  0.00     0.167 HD
HETATM   32  C21 UNL     1       1.542  23.739  -0.277  1.00  0.00     0.070 A 
HETATM   33  S2  UNL     1       1.537  25.442  -0.162  1.00  0.00    -0.064 SA
ENDBRANCH  26  28
ENDBRANCH  24  26
ENDBRANCH  22  24
BRANCH  23  34
HETATM   34  C23 UNL     1       1.224  25.780  -5.866  1.00  0.00    -0.030 A 
HETATM   35  C24 UNL     1       0.553  24.912  -5.066  1.00  0.00     0.009 A 
HETATM   36  C25 UNL     1      -0.751  24.541  -5.371  1.00  0.00     0.001 A 
HETATM   37  C26 UNL     1      -1.389  25.048  -6.497  1.00  0.00     0.000 A 
HETATM   38  C27 UNL     1      -0.711  25.927  -7.309  1.00  0.00     0.001 A 
HETATM   39  C28 UNL     1       0.601  26.292  -6.987  1.00  0.00     0.009 A 
ENDBRANCH  23  34
TORSDOF 4
ENDMDL
MODEL 2
REMARK VINA RESULT: -8.348783797      1.484      1.817
REMARK  4 active torsions:
REMARK  status: ('A' for Active; 'I' for Inactive)
REMARK    1  A    between atoms: N2_22  and  C18_23 
REMARK    2  A    between atoms: C18_23  and  N3_25 
REMARK    3  A    between atoms: N3_25  and  C19_27 
REMARK    4  A    between atoms: C22_33  and  C23_34 
ROOT
HETATM    1  C1  UNL     1       6.943  25.550  -9.783  1.00  0.00     0.068 C 
HETATM    2  C2  UNL     1       6.144  25.651  -8.531  1.00  0.00     0.007 A 
HETATM    3  C3  UNL     1       6.481  24.870  -7.463  1.00  0.00     0.025 A 
HETATM    4  C4  UNL     1       5.769  24.929  -6.284  1.00  0.00     0.016 A 
HETATM    5  C5  UNL     1       4.681  25.783  -6.130  1.00  0.00     0.021 A 
HETATM    6  C6  UNL     1       4.383  26.558  -7.253  1.00  0.00     0.157 A 
HETATM    7  N1  UNL     1       5.094  26.479  -8.392  1.00  0.00    -0.340 N 
ATOM      8  H1  UNL     1       4.828  27.070  -9.180  1.00  0.00     0.167 HD
HETATM    9  O1  UNL     1       3.375  27.517  -7.474  1.00  0.00    -0.291 OA
HETATM   10  C7  UNL     1       2.726  28.427  -6.651  1.00  0.00     0.104 A 
HETATM   11  C8  UNL     1       2.724  28.662  -5.285  1.00  0.00     0.067 A 
HETATM   12  C9  UNL     1       1.937  29.679  -4.787  1.00  0.00     0.021 A 
HETATM   13  C10 UNL     1       1.144  30.490  -5.568  1.00  0.00     0.013 A 
HETATM   14  C11 UNL     1       1.155  30.247  -6.935  1.00  0.00    -0.023 A 
HETATM   15  C12 UNL     1       0.384  31.025  -7.745  1.00  0.00     0.012 A 
HETATM   16  C13 UNL     1       0.383  30.797  -9.098  1.00  0.00     0.001 A 
HETATM   17  C14 UNL     1       1.161  29.785  -9.616  1.00  0.00     0.001 A 
HETATM   18  C15 UNL     1       1.952  28.980  -8.824  1.00  0.00     0.015 A 
HETATM   19  C16 UNL     1       1.931  29.235  -7.459  1.00  0.00     0.009 A 
HETATM   20  C17 UNL     1       3.404  28.043  -4.168  1.00  0.00     0.263 C 
HETATM   21  O2  UNL     1       3.368  28.777  -3.161  1.00  0.00    -0.267 OA
HETATM   22  N2  UNL     1       4.097  26.787  -3.980  1.00  0.00    -0.276 N 
HETATM   23  C22 UNL     1       4.184  25.572  -4.763  1.00  0.00     0.166 C 
ENDROOT
BRANCH  22  24
HETATM   24  C18 UNL     1       4.818  26.798  -2.775  1.00  0.00     0.183 C 
HETATM   25  S1  UNL     1       6.337  26.246  -2.726  1.00  0.00    -0.040 SA
BRANCH  24  26
HETATM   26  N3  UNL     1       4.203  27.296  -1.611  1.00  0.00    -0.313 N 
ATOM     27  H3  UNL     1       4.310  28.281  -1.373  1.00  0.00     0.170 HD
BRANCH  26  28
HETATM   28  C19 UNL     1       3.491  26.515  -0.821  1.00  0.00     0.150 A 
HETATM   29  N4  UNL     1       2.773  25.446  -1.171  1.00  0.00    -0.346 N 
HETATM   30  C20 UNL     1       2.133  24.796  -0.244  1.00  0.00     0.097 A 
ATOM     31  H4  UNL     1       2.728  25.145  -2.144  1.00  0.00     0.167 HD
HETATM   32  C21 UNL     1       2.231  25.249   1.043  1.00  0.00     0.070 A 
HETATM   33  S2  UNL     1       3.253  26.604   0.865  1.00  0.00    -0.064 SA
ENDBRANCH  26  28
ENDBRANCH  24  26
ENDBRANCH  22  24
BRANCH  23  34
HETATM   34  C23 UNL     1       2.858  24.859  -4.763  1.00  0.00    -0.030 A 
HETATM   35  C24 UNL     1       2.681  23.645  -4.179  1.00  0.00     0.009 A 
HETATM   36  C25 UNL     1       1.436  23.028  -4.206  1.00  0.00     0.001 A 
HETATM   37  C26 UNL     1       0.354  23.638  -4.829  1.00  0.00     0.000 A 
HETATM   38  C27 UNL     1       0.531  24.867  -5.421  1.00  0.00     0.001 A 
HETATM   39  C28 UNL     1       1.791  25.476  -5.384  1.00  0.00     0.009 A 
ENDBRANCH  23  34
TORSDOF 4
ENDMDL
MODEL 3
REMARK VINA RESULT: -8.331179230      2.949      7.254
REMARK  4 active torsions:
REMARK  status: ('A' for Active; 'I' for Inactive)
REMARK    1  A    between atoms: N2_22  and  C18_23 
REMARK    2  A    between atoms: C18_23  and  N3_25 
REMARK    3  A    between atoms: N3_25  and  C19_27 
REMARK    4  A    between atoms: C22_33  and  C23_34 
ROOT
HETATM    1  C1  UNL     1       2.333  28.429  -0.282  1.00  0.00     0.068 C 
HETATM    2  C2  UNL     1       1.862  28.347  -1.691  1.00  0.00     0.007 A 
HETATM    3  C3  UNL     1       0.798  29.109  -2.082  1.00  0.00     0.025 A 
HETATM    4  C4  UNL     1       0.327  29.064  -3.377  1.00  0.00     0.016 A 
HETATM    5  C5  UNL     1       0.910  28.245  -4.338  1.00  0.00     0.021 A 
HETATM    6  C6  UNL     1       1.993  27.489  -3.883  1.00  0.00     0.157 A 
HETATM    7  N1  UNL     1       2.432  27.552  -2.613  1.00  0.00    -0.340 N 
ATOM      8  H1  UNL     1       3.227  26.975  -2.339  1.00  0.00     0.167 HD
HETATM    9  O1  UNL     1       2.821  26.564  -4.550  1.00  0.00    -0.291 OA
HETATM   10  C7  UNL     1       3.272  26.456  -5.858  1.00  0.00     0.104 A 
HETATM   11  C8  UNL     1       2.990  27.133  -7.035  1.00  0.00     0.067 A 
HETATM   12  C9  UNL     1       3.640  26.754  -8.190  1.00  0.00     0.021 A 
HETATM   13  C10 UNL     1       4.564  25.735  -8.254  1.00  0.00     0.013 A 
HETATM   14  C11 UNL     1       4.839  25.065  -7.069  1.00  0.00    -0.023 A 
HETATM   15  C12 UNL     1       5.747  24.050  -7.087  1.00  0.00     0.012 A 
HETATM   16  C13 UNL     1       6.030  23.377  -5.924  1.00  0.00     0.001 A 
HETATM   17  C14 UNL     1       5.391  23.740  -4.759  1.00  0.00     0.001 A 
HETATM   18  C15 UNL     1       4.468  24.762  -4.707  1.00  0.00     0.015 A 
HETATM   19  C16 UNL     1       4.203  25.423  -5.900  1.00  0.00     0.009 A 
HETATM   20  C17 UNL     1       2.104  28.229  -7.365  1.00  0.00     0.263 C 
HETATM   21  O2  UNL     1       2.409  28.733  -8.464  1.00  0.00    -0.267 OA
HETATM   22  N2  UNL     1       0.973  28.843  -6.707  1.00  0.00    -0.276 N 
HETATM   23  C22 UNL     1       0.151  28.461  -5.578  1.00  0.00     0.166 C 
ENDROOT
BRANCH  22  24
HETATM   24  C18 UNL     1       0.641  30.058  -7.330  1.00  0.00     0.183 C 
HETATM   25  S1  UNL     1       1.072  31.464  -6.658  1.00  0.00    -0.040 SA
BRANCH  24  26
HETATM   26  N3  UNL     1      -0.068  30.035  -8.544  1.00  0.00    -0.313 N 
ATOM     27  H3  UNL     1      -0.772  29.313  -8.698  1.00  0.00     0.170 HD
BRANCH  26  28
HETATM   28  C19 UNL     1       0.156  30.929  -9.489  1.00  0.00     0.150 A 
HETATM   29  N4  UNL     1       1.226  31.019 -10.282  1.00  0.00    -0.346 N 
HETATM   30  C20 UNL     1       1.269  31.975 -11.162  1.00  0.00     0.097 A 
ATOM     31  H4  UNL     1       1.992  30.352 -10.200  1.00  0.00     0.167 HD
HETATM   32  C21 UNL     1       0.211  32.840 -11.224  1.00  0.00     0.070 A 
HETATM   33  S2  UNL     1      -0.814  32.234 -10.001  1.00  0.00    -0.064 SA
ENDBRANCH  26  28
ENDBRANCH  24  26
ENDBRANCH  22  24
BRANCH  23  34
HETATM   34  C23 UNL     1      -0.686  27.260  -5.929  1.00  0.00    -0.030 A 
HETATM   35  C24 UNL     1      -0.338  25.996  -5.570  1.00  0.00     0.009 A 
HETATM   36  C25 UNL     1      -1.145  24.921  -5.919  1.00  0.00     0.001 A 
HETATM   37  C26 UNL     1      -2.318  25.116  -6.639  1.00  0.00     0.000 A 
HETATM   38  C27 UNL     1      -2.672  26.394  -7.004  1.00  0.00     0.001 A 
HETATM   39  C28 UNL     1      -1.848  27.467  -6.644  1.00  0.00     0.009 A 
ENDBRANCH  23  34
TORSDOF 4
ENDMDL
MODEL 4
REMARK VINA RESULT: -8.248275431      1.582      2.122
REMARK  4 active torsions:
REMARK  status: ('A' for Active; 'I' for Inactive)
REMARK    1  A    between atoms: N2_22  and  C18_23 
REMARK    2  A    between atoms: C18_23  and  N3_25 
REMARK    3  A    between atoms: N3_25  and  C19_27 
REMARK    4  A    between atoms: C22_33  and  C23_34 
ROOT
HETATM    1  C1  UNL     1       5.801  25.861  -9.937  1.00  0.00     0.068 C 
HETATM    2  C2  UNL     1       4.816  26.156  -8.861  1.00  0.00     0.007 A 
HETATM    3  C3  UNL     1       4.709  25.297  -7.805  1.00  0.00     0.025 A 
HETATM    4  C4  UNL     1       3.811  25.530  -6.785  1.00  0.00     0.016 A 
HETATM    5  C5  UNL     1       2.976  26.643  -6.787  1.00  0.00     0.021 A 
HETATM    6  C6  UNL     1       3.129  27.486  -7.891  1.00  0.00     0.157 A 
HETATM    7  N1  UNL     1       4.014  27.234  -8.872  1.00  0.00    -0.340 N 
ATOM      8  H1  UNL     1       4.080  27.887  -9.654  1.00  0.00     0.167 HD
HETATM    9  O1  UNL     1       2.475  28.685  -8.237  1.00  0.00    -0.291 OA
HETATM   10  C7  UNL     1       1.931  29.725  -7.495  1.00  0.00     0.104 A 
HETATM   11  C8  UNL     1       1.709  29.931  -6.142  1.00  0.00     0.067 A 
HETATM   12  C9  UNL     1       1.131  31.116  -5.738  1.00  0.00     0.021 A 
HETATM   13  C10 UNL     1       0.755  32.122  -6.601  1.00  0.00     0.013 A 
HETATM   14  C11 UNL     1       0.984  31.904  -7.953  1.00  0.00    -0.023 A 
HETATM   15  C12 UNL     1       0.627  32.873  -8.841  1.00  0.00     0.012 A 
HETATM   16  C13 UNL     1       0.846  32.673 -10.182  1.00  0.00     0.001 A 
HETATM   17  C14 UNL     1       1.422  31.496 -10.606  1.00  0.00     0.001 A 
HETATM   18  C15 UNL     1       1.794  30.497  -9.734  1.00  0.00     0.015 A 
HETATM   19  C16 UNL     1       1.559  30.729  -8.384  1.00  0.00     0.009 A 
HETATM   20  C17 UNL     1       1.958  29.136  -4.960  1.00  0.00     0.263 C 
HETATM   21  O2  UNL     1       1.908  29.838  -3.931  1.00  0.00    -0.267 OA
HETATM   22  N2  UNL     1       2.244  27.737  -4.728  1.00  0.00    -0.276 N 
HETATM   23  C22 UNL     1       2.170  26.555  -5.561  1.00  0.00     0.166 C 
ENDROOT
BRANCH  22  24
HETATM   24  C18 UNL     1       2.679  27.536  -3.408  1.00  0.00     0.183 C 
HETATM   25  S1  UNL     1       1.628  27.093  -2.261  1.00  0.00    -0.040 SA
BRANCH  24  26
HETATM   26  N3  UNL     1       4.037  27.724  -3.095  1.00  0.00    -0.313 N 
ATOM     27  H3  UNL     1       4.354  28.640  -2.779  1.00  0.00     0.170 HD
BRANCH  26  28
HETATM   28  C19 UNL     1       4.911  26.741  -3.202  1.00  0.00     0.150 A 
HETATM   29  N4  UNL     1       6.222  26.843  -3.426  1.00  0.00    -0.346 N 
HETATM   30  C20 UNL     1       6.927  25.752  -3.500  1.00  0.00     0.097 A 
ATOM     31  H4  UNL     1       6.663  27.756  -3.536  1.00  0.00     0.167 HD
HETATM   32  C21 UNL     1       6.280  24.557  -3.345  1.00  0.00     0.070 A 
HETATM   33  S2  UNL     1       4.667  25.057  -3.095  1.00  0.00    -0.064 SA
ENDBRANCH  26  28
ENDBRANCH  24  26
ENDBRANCH  22  24
BRANCH  23  34
HETATM   34  C23 UNL     1       0.733  26.227  -5.868  1.00  0.00    -0.030 A 
HETATM   35  C24 UNL     1      -0.100  27.102  -6.489  1.00  0.00     0.009 A 
HETATM   36  C25 UNL     1      -1.419  26.749  -6.750  1.00  0.00     0.001 A 
HETATM   37  C26 UNL     1      -1.908  25.502  -6.380  1.00  0.00     0.000 A 
HETATM   38  C27 UNL     1      -1.066  24.615  -5.751  1.00  0.00     0.001 A 
HETATM   39  C28 UNL     1       0.260  24.985  -5.496  1.00  0.00     0.009 A 
ENDBRANCH  23  34
TORSDOF 4
ENDMDL
MODEL 5
REMARK VINA RESULT: -8.218276298      2.025      2.828
REMARK  4 active torsions:
REMARK  status: ('A' for Active; 'I' for Inactive)
REMARK    1  A    between atoms: N2_22  and  C18_23 
REMARK    2  A    between atoms: C18_23  and  N3_25 
REMARK    3  A    between atoms: N3_25  and  C19_27 
REMARK    4  A    between atoms: C22_33  and  C23_34 
ROOT
HETATM    1  C1  UNL     1       5.678  23.465  -6.257  1.00  0.00     0.068 C 
HETATM    2  C2  UNL     1       4.509  24.337  -5.960  1.00  0.00     0.007 A 
HETATM    3  C3  UNL     1       3.784  24.113  -4.825  1.00  0.00     0.025 A 
HETATM    4  C4  UNL     1       2.693  24.896  -4.509  1.00  0.00     0.016 A 
HETATM    5  C5  UNL     1       2.284  25.943  -5.330  1.00  0.00     0.021 A 
HETATM    6  C6  UNL     1       3.062  26.125  -6.476  1.00  0.00     0.157 A 
HETATM    7  N1  UNL     1       4.122  25.346  -6.759  1.00  0.00    -0.340 N 
ATOM      8  H1  UNL     1       4.651  25.528  -7.611  1.00  0.00     0.167 HD
HETATM    9  O1  UNL     1       2.961  27.063  -7.523  1.00  0.00    -0.291 OA
HETATM   10  C7  UNL     1       2.523  28.379  -7.588  1.00  0.00     0.104 A 
HETATM   11  C8  UNL     1       1.906  29.235  -6.689  1.00  0.00     0.067 A 
HETATM   12  C9  UNL     1       1.600  30.517  -7.097  1.00  0.00     0.021 A 
HETATM   13  C10 UNL     1       1.873  31.009  -8.354  1.00  0.00     0.013 A 
HETATM   14  C11 UNL     1       2.492  30.142  -9.245  1.00  0.00    -0.023 A 
HETATM   15  C12 UNL     1       2.779  30.588 -10.499  1.00  0.00     0.012 A 
HETATM   16  C13 UNL     1       3.391  29.744 -11.392  1.00  0.00     0.001 A 
HETATM   17  C14 UNL     1       3.704  28.459 -11.005  1.00  0.00     0.001 A 
HETATM   18  C15 UNL     1       3.427  27.978  -9.744  1.00  0.00     0.015 A 
HETATM   19  C16 UNL     1       2.807  28.856  -8.864  1.00  0.00     0.009 A 
HETATM   20  C17 UNL     1       1.470  29.093  -5.317  1.00  0.00     0.263 C 
HETATM   21  O2  UNL     1       1.268  30.208  -4.795  1.00  0.00    -0.267 OA
HETATM   22  N2  UNL     1       1.227  27.962  -4.449  1.00  0.00    -0.276 N 
HETATM   23  C22 UNL     1       1.108  26.538  -4.681  1.00  0.00     0.166 C 
ENDROOT
BRANCH  22  24
HETATM   24  C18 UNL     1       1.082  28.386  -3.118  1.00  0.00     0.183 C 
HETATM   25  S1  UNL     1      -0.387  28.490  -2.449  1.00  0.00    -0.040 SA
BRANCH  24  26
HETATM   26  N3  UNL     1       2.229  28.718  -2.374  1.00  0.00    -0.313 N 
ATOM     27  H3  UNL     1       2.259  29.605  -1.873  1.00  0.00     0.170 HD
BRANCH  26  28
HETATM   28  C19 UNL     1       3.266  27.905  -2.309  1.00  0.00     0.150 A 
HETATM   29  N4  UNL     1       4.344  27.902  -3.097  1.00  0.00    -0.346 N 
HETATM   30  C20 UNL     1       5.272  27.017  -2.879  1.00  0.00     0.097 A 
ATOM     31  H4  UNL     1       4.437  28.578  -3.854  1.00  0.00     0.167 HD
HETATM   32  C21 UNL     1       5.089  26.135  -1.849  1.00  0.00     0.070 A 
HETATM   33  S2  UNL     1       3.574  26.621  -1.231  1.00  0.00    -0.064 SA
ENDBRANCH  26  28
ENDBRANCH  24  26
ENDBRANCH  22  24
BRANCH  23  34
HETATM   34  C23 UNL     1      -0.154  26.241  -5.447  1.00  0.00    -0.030 A 
HETATM   35  C24 UNL     1      -0.647  24.983  -5.584  1.00  0.00     0.009 A 
HETATM   36  C25 UNL     1      -1.816  24.762  -6.301  1.00  0.00     0.001 A 
HETATM   37  C26 UNL     1      -2.499  25.819  -6.891  1.00  0.00     0.000 A 
HETATM   38  C27 UNL     1      -2.001  27.094  -6.754  1.00  0.00     0.001 A 
HETATM   39  C28 UNL     1      -0.823  27.300  -6.028  1.00  0.00     0.009 A 
ENDBRANCH  23  34
TORSDOF 4
ENDMDL
