MODEL 1
REMARK VINA RESULT: -10.366992768      0.000      0.000
REMARK  5 active torsions:
REMARK  status: ('A' for Active; 'I' for Inactive)
REMARK    1  A    between atoms: O1_2  and  C2_3 
REMARK    2  A    between atoms: C10_11  and  C11_12 
REMARK    3  A    between atoms: C11_12  and  N1_13 
REMARK    4  A    between atoms: C21_25  and  S1_26 
REMARK    5  A    between atoms: S1_26  and  N2_27 
ROOT
HETATM    1  C2  UNL     1       5.183  24.964  -8.374  1.00  0.00     0.079 A 
HETATM    2  C3  UNL     1       4.335  25.030  -9.482  1.00  0.00     0.037 A 
HETATM    3  C4  UNL     1       3.238  25.834  -9.397  1.00  0.00     0.004 A 
HETATM    4  C5  UNL     1       2.965  26.574  -8.245  1.00  0.00     0.013 A 
HETATM    5  C6  UNL     1       3.803  26.519  -7.166  1.00  0.00    -0.011 A 
HETATM    6  C7  UNL     1       4.924  25.678  -7.257  1.00  0.00     0.016 A 
HETATM    7  C8  UNL     1       5.675  25.411  -6.125  1.00  0.00    -0.028 A 
HETATM    8  C9  UNL     1       6.841  24.513  -6.143  1.00  0.00     0.050 C 
HETATM    9  C10 UNL     1       5.287  25.987  -4.920  1.00  0.00     0.045 A 
HETATM   10  C12 UNL     1       4.220  26.788  -4.792  1.00  0.00     0.007 A 
HETATM   11  C13 UNL     1       3.853  27.298  -3.596  1.00  0.00    -0.011 A 
HETATM   12  C14 UNL     1       4.452  26.892  -2.441  1.00  0.00     0.016 A 
HETATM   13  C15 UNL     1       4.000  27.323  -1.206  1.00  0.00     0.038 A 
HETATM   14  C16 UNL     1       2.917  28.161  -1.101  1.00  0.00     0.081 A 
HETATM   15  C17 UNL     1       2.275  28.570  -2.282  1.00  0.00     0.009 A 
HETATM   16  C18 UNL     1       2.725  28.178  -3.498  1.00  0.00    -0.001 A 
HETATM   17  C19 UNL     1       2.060  28.537  -4.645  1.00  0.00    -0.011 A 
HETATM   18  C20 UNL     1       1.310  29.687  -4.572  1.00  0.00     0.038 A 
HETATM   19  C21 UNL     1       0.882  30.311  -5.738  1.00  0.00     0.080 A 
HETATM   20  C22 UNL     1       1.218  29.790  -6.949  1.00  0.00     0.026 A 
HETATM   21  C23 UNL     1       1.987  28.635  -7.041  1.00  0.00     0.015 A 
HETATM   22  C24 UNL     1       2.412  27.990  -5.901  1.00  0.00    -0.013 A 
HETATM   23  C25 UNL     1       3.449  27.091  -5.982  1.00  0.00    -0.001 A 
HETATM   24  C26 UNL     1       0.886  29.021  -2.114  1.00  0.00     0.014 C 
HETATM   25  C27 UNL     1       0.349  29.036  -0.899  1.00  0.00     0.012 C 
HETATM   26  C28 UNL     1       1.034  28.636   0.328  1.00  0.00     0.078 C 
HETATM   27  C29 UNL     1       0.720  29.605   1.462  1.00  0.00     0.051 C 
HETATM   28  C30 UNL     1       0.642  27.241   0.756  1.00  0.00     0.051 C 
HETATM   29  O4  UNL     1       2.451  28.608   0.106  1.00  0.00    -0.336 OA
ENDROOT
BRANCH  19  30
HETATM   30  S1  UNL     1      -0.091  31.763  -5.633  1.00  0.00     0.256 S 
HETATM   31  O2  UNL     1       0.790  32.912  -5.237  1.00  0.00    -0.201 OA
HETATM   32  O3  UNL     1      -1.106  31.570  -4.544  1.00  0.00    -0.201 OA
BRANCH  30  33
HETATM   33  N2  UNL     1      -0.886  32.103  -7.124  1.00  0.00    -0.324 N 
ATOM     34  H22 UNL     1      -1.287  33.012  -7.351  1.00  0.00     0.169 HD
ATOM     35  H21 UNL     1      -0.900  31.287  -7.736  1.00  0.00     0.169 HD
ENDBRANCH  30  33
ENDBRANCH  19  30
BRANCH   9  36
HETATM   36  C11 UNL     1       6.380  25.992  -3.926  1.00  0.00    -0.036 C 
BRANCH  36  37
HETATM   37  N1  UNL     1       7.325  25.954  -3.177  1.00  0.00    -0.365 N 
ATOM     38  H12 UNL     1       7.212  24.973  -3.436  1.00  0.00     0.165 HD
ATOM     39  H11 UNL     1       8.117  25.999  -2.536  1.00  0.00     0.165 HD
ENDBRANCH  36  37
ENDBRANCH   9  36
BRANCH   1  40
HETATM   40  O1  UNL     1       6.313  24.146  -8.434  1.00  0.00    -0.355 OA
HETATM   41  C1  UNL     1       6.784  23.758  -9.705  1.00  0.00     0.210 C 
ENDBRANCH   1  40
TORSDOF 5
ENDMDL
MODEL 2
REMARK VINA RESULT: -9.762287791      2.775      8.410
REMARK  5 active torsions:
REMARK  status: ('A' for Active; 'I' for Inactive)
REMARK    1  A    between atoms: O1_2  and  C2_3 
REMARK    2  A    between atoms: C10_11  and  C11_12 
REMARK    3  A    between atoms: C11_12  and  N1_13 
REMARK    4  A    between atoms: C21_25  and  S1_26 
REMARK    5  A    between atoms: S1_26  and  N2_27 
ROOT
HETATM    1  C2  UNL     1      -0.838  30.071  -4.951  1.00  0.00     0.079 A 
HETATM    2  C3  UNL     1      -1.231  29.590  -3.700  1.00  0.00     0.037 A 
HETATM    3  C4  UNL     1      -0.448  28.644  -3.107  1.00  0.00     0.004 A 
HETATM    4  C5  UNL     1       0.712  28.170  -3.722  1.00  0.00     0.013 A 
HETATM    5  C6  UNL     1       1.103  28.651  -4.941  1.00  0.00    -0.011 A 
HETATM    6  C7  UNL     1       0.284  29.616  -5.551  1.00  0.00     0.016 A 
HETATM    7  C8  UNL     1       0.505  29.969  -6.871  1.00  0.00    -0.028 A 
HETATM    8  C9  UNL     1      -0.335  30.946  -7.580  1.00  0.00     0.050 C 
HETATM    9  C10 UNL     1       1.542  29.346  -7.559  1.00  0.00     0.045 A 
HETATM   10  C12 UNL     1       2.339  28.416  -7.014  1.00  0.00     0.007 A 
HETATM   11  C13 UNL     1       3.311  27.806  -7.727  1.00  0.00    -0.011 A 
HETATM   12  C14 UNL     1       3.418  27.988  -9.073  1.00  0.00     0.016 A 
HETATM   13  C15 UNL     1       4.335  27.274  -9.825  1.00  0.00     0.038 A 
HETATM   14  C16 UNL     1       5.157  26.342  -9.240  1.00  0.00     0.081 A 
HETATM   15  C17 UNL     1       5.042  26.127  -7.857  1.00  0.00     0.009 A 
HETATM   16  C18 UNL     1       4.167  26.839  -7.106  1.00  0.00    -0.001 A 
HETATM   17  C19 UNL     1       4.021  26.585  -5.764  1.00  0.00    -0.011 A 
HETATM   18  C20 UNL     1       5.107  26.024  -5.135  1.00  0.00     0.038 A 
HETATM   19  C21 UNL     1       5.190  26.039  -3.748  1.00  0.00     0.080 A 
HETATM   20  C22 UNL     1       4.203  26.622  -3.016  1.00  0.00     0.026 A 
HETATM   21  C23 UNL     1       3.103  27.207  -3.636  1.00  0.00     0.015 A 
HETATM   22  C24 UNL     1       2.991  27.192  -5.009  1.00  0.00    -0.013 A 
HETATM   23  C25 UNL     1       2.125  28.066  -5.623  1.00  0.00    -0.001 A 
HETATM   24  C26 UNL     1       5.543  24.829  -7.383  1.00  0.00     0.014 C 
HETATM   25  C27 UNL     1       6.077  23.980  -8.253  1.00  0.00     0.012 C 
HETATM   26  C28 UNL     1       6.219  24.223  -9.687  1.00  0.00     0.078 C 
HETATM   27  C29 UNL     1       7.581  23.748 -10.182  1.00  0.00     0.051 C 
HETATM   28  C30 UNL     1       5.140  23.525 -10.480  1.00  0.00     0.051 C 
HETATM   29  O4  UNL     1       6.078  25.625  -9.957  1.00  0.00    -0.336 OA
ENDROOT
BRANCH  19  30
HETATM   30  S1  UNL     1       6.566  25.301  -2.956  1.00  0.00     0.256 S 
HETATM   31  O2  UNL     1       7.825  25.923  -3.488  1.00  0.00    -0.201 OA
HETATM   32  O3  UNL     1       6.590  23.844  -3.317  1.00  0.00    -0.201 OA
BRANCH  30  33
HETATM   33  N2  UNL     1       6.485  25.481  -1.244  1.00  0.00    -0.324 N 
ATOM     34  H22 UNL     1       6.950  26.233  -0.737  1.00  0.00     0.169 HD
ATOM     35  H21 UNL     1       5.919  24.748  -0.816  1.00  0.00     0.169 HD
ENDBRANCH  30  33
ENDBRANCH  19  30
BRANCH   9  36
HETATM   36  C11 UNL     1       1.946  30.101  -8.762  1.00  0.00    -0.036 C 
BRANCH  36  37
HETATM   37  N1  UNL     1       2.270  30.795  -9.694  1.00  0.00    -0.365 N 
ATOM     38  H12 UNL     1       1.765  31.452  -9.098  1.00  0.00     0.165 HD
ATOM     39  H11 UNL     1       2.578  31.319 -10.513  1.00  0.00     0.165 HD
ENDBRANCH  36  37
ENDBRANCH   9  36
BRANCH   1  40
HETATM   40  O1  UNL     1      -1.623  31.038  -5.581  1.00  0.00    -0.355 OA
HETATM   41  C1  UNL     1      -2.621  31.681  -4.820  1.00  0.00     0.210 C 
ENDBRANCH   1  40
TORSDOF 5
ENDMDL
MODEL 3
REMARK VINA RESULT: -9.624083064      2.724      6.253
REMARK  5 active torsions:
REMARK  status: ('A' for Active; 'I' for Inactive)
REMARK    1  A    between atoms: O1_2  and  C2_3 
REMARK    2  A    between atoms: C10_11  and  C11_12 
REMARK    3  A    between atoms: C11_12  and  N1_13 
REMARK    4  A    between atoms: C21_25  and  S1_26 
REMARK    5  A    between atoms: S1_26  and  N2_27 
ROOT
HETATM    1  C2  UNL     1       5.187  25.922  -3.818  1.00  0.00     0.079 A 
HETATM    2  C3  UNL     1       5.161  26.393  -2.504  1.00  0.00     0.037 A 
HETATM    3  C4  UNL     1       4.317  27.423  -2.213  1.00  0.00     0.004 A 
HETATM    4  C5  UNL     1       3.499  27.992  -3.191  1.00  0.00     0.013 A 
HETATM    5  C6  UNL     1       3.516  27.521  -4.475  1.00  0.00    -0.011 A 
HETATM    6  C7  UNL     1       4.398  26.468  -4.769  1.00  0.00     0.016 A 
HETATM    7  C8  UNL     1       4.619  26.107  -6.087  1.00  0.00    -0.028 A 
HETATM    8  C9  UNL     1       5.555  25.037  -6.467  1.00  0.00     0.050 C 
HETATM    9  C10 UNL     1       3.957  26.809  -7.088  1.00  0.00     0.045 A 
HETATM   10  C12 UNL     1       3.115  27.824  -6.847  1.00  0.00     0.007 A 
HETATM   11  C13 UNL     1       2.520  28.508  -7.849  1.00  0.00    -0.011 A 
HETATM   12  C14 UNL     1       2.874  28.305  -9.150  1.00  0.00     0.016 A 
HETATM   13  C15 UNL     1       2.353  29.085 -10.167  1.00  0.00     0.038 A 
HETATM   14  C16 UNL     1       1.475  30.105  -9.898  1.00  0.00     0.081 A 
HETATM   15  C17 UNL     1       1.118  30.341  -8.560  1.00  0.00     0.009 A 
HETATM   16  C18 UNL     1       1.599  29.566  -7.558  1.00  0.00    -0.001 A 
HETATM   17  C19 UNL     1       1.290  29.837  -6.247  1.00  0.00    -0.011 A 
HETATM   18  C20 UNL     1       0.113  30.515  -6.034  1.00  0.00     0.038 A 
HETATM   19  C21 UNL     1      -0.453  30.541  -4.764  1.00  0.00     0.080 A 
HETATM   20  C22 UNL     1       0.153  29.884  -3.739  1.00  0.00     0.026 A 
HETATM   21  C23 UNL     1       1.337  29.182  -3.940  1.00  0.00     0.015 A 
HETATM   22  C24 UNL     1       1.924  29.153  -5.186  1.00  0.00    -0.013 A 
HETATM   23  C25 UNL     1       2.860  28.185  -5.466  1.00  0.00    -0.001 A 
HETATM   24  C26 UNL     1       0.612  31.692  -8.278  1.00  0.00     0.014 C 
HETATM   25  C27 UNL     1       0.504  32.568  -9.270  1.00  0.00     0.012 C 
HETATM   26  C28 UNL     1       0.850  32.304 -10.665  1.00  0.00     0.078 C 
HETATM   27  C29 UNL     1      -0.198  32.896 -11.602  1.00  0.00     0.051 C 
HETATM   28  C30 UNL     1       2.202  32.877 -11.021  1.00  0.00     0.051 C 
HETATM   29  O4  UNL     1       0.939  30.890 -10.884  1.00  0.00    -0.336 OA
ENDROOT
BRANCH  19  30
HETATM   30  S1  UNL     1      -1.939  31.426  -4.498  1.00  0.00     0.256 S 
HETATM   31  O2  UNL     1      -2.357  31.259  -3.066  1.00  0.00    -0.201 OA
HETATM   32  O3  UNL     1      -3.009  30.817  -5.358  1.00  0.00    -0.201 OA
BRANCH  30  33
HETATM   33  N2  UNL     1      -1.760  33.097  -4.879  1.00  0.00    -0.324 N 
ATOM     34  H22 UNL     1      -1.915  33.846  -4.205  1.00  0.00     0.169 HD
ATOM     35  H21 UNL     1      -1.484  33.233  -5.852  1.00  0.00     0.169 HD
ENDBRANCH  30  33
ENDBRANCH  19  30
BRANCH   9  36
HETATM   36  C11 UNL     1       3.928  26.068  -8.365  1.00  0.00    -0.036 C 
BRANCH  36  37
HETATM   37  N1  UNL     1       3.925  25.386  -9.360  1.00  0.00    -0.365 N 
ATOM     38  H12 UNL     1       2.933  25.434  -9.126  1.00  0.00     0.165 HD
ATOM     39  H11 UNL     1       4.000  24.817 -10.203  1.00  0.00     0.165 HD
ENDBRANCH  36  37
ENDBRANCH   9  36
BRANCH   1  40
HETATM   40  O1  UNL     1       6.044  24.869  -4.144  1.00  0.00    -0.355 OA
HETATM   41  C1  UNL     1       6.165  23.805  -3.226  1.00  0.00     0.210 C 
ENDBRANCH   1  40
TORSDOF 5
ENDMDL
MODEL 4
REMARK VINA RESULT: -9.416395634      2.746      7.476
REMARK  5 active torsions:
REMARK  status: ('A' for Active; 'I' for Inactive)
REMARK    1  A    between atoms: O1_2  and  C2_3 
REMARK    2  A    between atoms: C10_11  and  C11_12 
REMARK    3  A    between atoms: C11_12  and  N1_13 
REMARK    4  A    between atoms: C21_25  and  S1_26 
REMARK    5  A    between atoms: S1_26  and  N2_27 
ROOT
HETATM    1  C2  UNL     1      -0.344  28.703   1.054  1.00  0.00     0.079 A 
HETATM    2  C3  UNL     1      -0.924  29.930   0.727  1.00  0.00     0.037 A 
HETATM    3  C4  UNL     1      -0.955  30.290  -0.587  1.00  0.00     0.004 A 
HETATM    4  C5  UNL     1      -0.429  29.463  -1.581  1.00  0.00     0.013 A 
HETATM    5  C6  UNL     1       0.128  28.256  -1.261  1.00  0.00    -0.011 A 
HETATM    6  C7  UNL     1       0.167  27.898   0.097  1.00  0.00     0.016 A 
HETATM    7  C8  UNL     1       0.913  26.803   0.497  1.00  0.00    -0.028 A 
HETATM    8  C9  UNL     1       1.025  26.393   1.905  1.00  0.00     0.050 C 
HETATM    9  C10 UNL     1       1.612  26.087  -0.470  1.00  0.00     0.045 A 
HETATM   10  C12 UNL     1       1.605  26.402  -1.773  1.00  0.00     0.007 A 
HETATM   11  C13 UNL     1       2.328  25.705  -2.677  1.00  0.00    -0.011 A 
HETATM   12  C14 UNL     1       3.222  24.754  -2.284  1.00  0.00     0.016 A 
HETATM   13  C15 UNL     1       4.049  24.123  -3.197  1.00  0.00     0.038 A 
HETATM   14  C16 UNL     1       4.009  24.447  -4.530  1.00  0.00     0.081 A 
HETATM   15  C17 UNL     1       3.108  25.440  -4.948  1.00  0.00     0.009 A 
HETATM   16  C18 UNL     1       2.274  26.046  -4.067  1.00  0.00    -0.001 A 
HETATM   17  C19 UNL     1       1.435  27.056  -4.473  1.00  0.00    -0.011 A 
HETATM   18  C20 UNL     1       1.080  27.048  -5.801  1.00  0.00     0.038 A 
HETATM   19  C21 UNL     1      -0.005  27.801  -6.234  1.00  0.00     0.080 A 
HETATM   20  C22 UNL     1      -0.723  28.533  -5.339  1.00  0.00     0.026 A 
HETATM   21  C23 UNL     1      -0.386  28.541  -3.990  1.00  0.00     0.015 A 
HETATM   22  C24 UNL     1       0.694  27.815  -3.538  1.00  0.00    -0.013 A 
HETATM   23  C25 UNL     1       0.801  27.531  -2.197  1.00  0.00    -0.001 A 
HETATM   24  C26 UNL     1       3.441  26.090  -6.223  1.00  0.00     0.014 C 
HETATM   25  C27 UNL     1       4.519  25.697  -6.892  1.00  0.00     0.012 C 
HETATM   26  C28 UNL     1       5.435  24.642  -6.465  1.00  0.00     0.078 C 
HETATM   27  C29 UNL     1       5.830  23.760  -7.645  1.00  0.00     0.051 C 
HETATM   28  C30 UNL     1       6.687  25.211  -5.840  1.00  0.00     0.051 C 
HETATM   29  O4  UNL     1       4.810  23.835  -5.457  1.00  0.00    -0.336 OA
ENDROOT
BRANCH  19  30
HETATM   30  S1  UNL     1      -0.435  27.801  -7.931  1.00  0.00     0.256 S 
HETATM   31  O2  UNL     1       0.135  26.572  -8.578  1.00  0.00    -0.201 OA
HETATM   32  O3  UNL     1       0.207  28.995  -8.577  1.00  0.00    -0.201 OA
BRANCH  30  33
HETATM   33  N2  UNL     1      -2.142  27.860  -8.153  1.00  0.00    -0.324 N 
ATOM     34  H22 UNL     1      -2.789  27.210  -7.707  1.00  0.00     0.169 HD
ATOM     35  H21 UNL     1      -2.414  28.618  -8.779  1.00  0.00     0.169 HD
ENDBRANCH  30  33
ENDBRANCH  19  30
BRANCH   9  36
HETATM   36  C11 UNL     1       1.985  24.736  -0.004  1.00  0.00    -0.036 C 
BRANCH  36  37
HETATM   37  N1  UNL     1       2.203  23.623   0.407  1.00  0.00    -0.365 N 
ATOM     38  H12 UNL     1       3.074  24.109   0.621  1.00  0.00     0.165 HD
ATOM     39  H11 UNL     1       2.316  22.663   0.732  1.00  0.00     0.165 HD
ENDBRANCH  36  37
ENDBRANCH   9  36
BRANCH   1  40
HETATM   40  O1  UNL     1      -0.298  28.311   2.393  1.00  0.00    -0.355 OA
HETATM   41  C1  UNL     1      -0.733  29.231   3.368  1.00  0.00     0.210 C 
ENDBRANCH   1  40
TORSDOF 5
ENDMDL
MODEL 5
REMARK VINA RESULT: -9.214262336      3.211      8.501
REMARK  5 active torsions:
REMARK  status: ('A' for Active; 'I' for Inactive)
REMARK    1  A    between atoms: O1_2  and  C2_3 
REMARK    2  A    between atoms: C10_11  and  C11_12 
REMARK    3  A    between atoms: C11_12  and  N1_13 
REMARK    4  A    between atoms: C21_25  and  S1_26 
REMARK    5  A    between atoms: S1_26  and  N2_27 
ROOT
HETATM    1  C2  UNL     1      -0.788  30.144  -6.910  1.00  0.00     0.079 A 
HETATM    2  C3  UNL     1      -1.413  29.703  -5.742  1.00  0.00     0.037 A 
HETATM    3  C4  UNL     1      -0.768  28.767  -4.989  1.00  0.00     0.004 A 
HETATM    4  C5  UNL     1       0.479  28.264  -5.364  1.00  0.00     0.013 A 
HETATM    5  C6  UNL     1       1.096  28.707  -6.501  1.00  0.00    -0.011 A 
HETATM    6  C7  UNL     1       0.419  29.661  -7.278  1.00  0.00     0.016 A 
HETATM    7  C8  UNL     1       0.887  29.974  -8.543  1.00  0.00    -0.028 A 
HETATM    8  C9  UNL     1       0.207  30.939  -9.422  1.00  0.00     0.050 C 
HETATM    9  C10 UNL     1       2.024  29.322  -9.010  1.00  0.00     0.045 A 
HETATM   10  C12 UNL     1       2.692  28.401  -8.301  1.00  0.00     0.007 A 
HETATM   11  C13 UNL     1       3.771  27.761  -8.805  1.00  0.00    -0.011 A 
HETATM   12  C14 UNL     1       4.129  27.903 -10.112  1.00  0.00     0.016 A 
HETATM   13  C15 UNL     1       5.159  27.160 -10.661  1.00  0.00     0.038 A 
HETATM   14  C16 UNL     1       5.844  26.238  -9.910  1.00  0.00     0.081 A 
HETATM   15  C17 UNL     1       5.471  26.063  -8.566  1.00  0.00     0.009 A 
HETATM   16  C18 UNL     1       4.483  26.805  -8.010  1.00  0.00    -0.001 A 
HETATM   17  C19 UNL     1       4.086  26.591  -6.713  1.00  0.00    -0.011 A 
HETATM   18  C20 UNL     1       5.028  26.037  -5.878  1.00  0.00     0.038 A 
HETATM   19  C21 UNL     1       4.852  26.092  -4.501  1.00  0.00     0.080 A 
HETATM   20  C22 UNL     1       3.755  26.705  -3.981  1.00  0.00     0.026 A 
HETATM   21  C23 UNL     1       2.799  27.282  -4.810  1.00  0.00     0.015 A 
HETATM   22  C24 UNL     1       2.943  27.229  -6.179  1.00  0.00    -0.013 A 
HETATM   23  C25 UNL     1       2.219  28.093  -6.966  1.00  0.00    -0.001 A 
HETATM   24  C26 UNL     1       5.857  24.775  -7.973  1.00  0.00     0.014 C 
HETATM   25  C27 UNL     1       6.531  23.896  -8.706  1.00  0.00     0.012 C 
HETATM   26  C28 UNL     1       6.940  24.097 -10.094  1.00  0.00     0.078 C 
HETATM   27  C29 UNL     1       8.363  23.595 -10.315  1.00  0.00     0.051 C 
HETATM   28  C30 UNL     1       6.017  23.386 -11.056  1.00  0.00     0.051 C 
HETATM   29  O4  UNL     1       6.871  25.491 -10.423  1.00  0.00    -0.336 OA
ENDROOT
BRANCH  19  30
HETATM   30  S1  UNL     1       6.047  25.364  -3.448  1.00  0.00     0.256 S 
HETATM   31  O2  UNL     1       6.038  26.084  -2.130  1.00  0.00    -0.201 OA
HETATM   32  O3  UNL     1       7.401  25.562  -4.066  1.00  0.00    -0.201 OA
BRANCH  30  33
HETATM   33  N2  UNL     1       5.747  23.683  -3.214  1.00  0.00    -0.324 N 
ATOM     34  H22 UNL     1       4.811  23.282  -3.162  1.00  0.00     0.169 HD
ATOM     35  H21 UNL     1       6.616  23.154  -3.137  1.00  0.00     0.169 HD
ENDBRANCH  30  33
ENDBRANCH  19  30
BRANCH   9  36
HETATM   36  C11 UNL     1       2.656  30.039 -10.136  1.00  0.00    -0.036 C 
BRANCH  36  37
HETATM   37  N1  UNL     1       3.099  30.680 -11.057  1.00  0.00    -0.365 N 
ATOM     38  H12 UNL     1       3.087  29.734 -11.437  1.00  0.00     0.165 HD
ATOM     39  H11 UNL     1       3.467  31.286 -11.790  1.00  0.00     0.165 HD
ENDBRANCH  36  37
ENDBRANCH   9  36
BRANCH   1  40
HETATM   40  O1  UNL     1      -1.428  31.100  -7.701  1.00  0.00    -0.355 OA
HETATM   41  C1  UNL     1      -2.588  31.715  -7.187  1.00  0.00     0.210 C 
ENDBRANCH   1  40
TORSDOF 5
ENDMDL
