MODEL 1
REMARK VINA RESULT: -7.933422391      0.000      0.000
REMARK  1 active torsions:
REMARK  status: ('A' for Active; 'I' for Inactive)
REMARK       I    between atoms: N1_4  and  C4_5 
REMARK       I    between atoms: C4_5  and  N2_7 
REMARK    1  A    between atoms: N3_24  and  C20_25 
ROOT
HETATM    1  C1  UNL     1       0.839  28.932   0.312  1.00  0.00     0.070 C 
HETATM    2  C2  UNL     1       1.211  28.180  -0.922  1.00  0.00     0.023 A 
HETATM    3  C3  UNL     1       1.107  28.727  -2.118  1.00  0.00     0.125 A 
HETATM    4  N1  UNL     1       1.456  28.036  -3.339  1.00  0.00    -0.282 N 
HETATM    5  C4  UNL     1       1.266  28.688  -4.543  1.00  0.00     0.334 C 
HETATM    6  O1  UNL     1       0.673  29.841  -4.458  1.00  0.00    -0.246 OA
HETATM    7  N2  UNL     1       1.604  28.318  -5.834  1.00  0.00    -0.276 N 
HETATM    8  C5  UNL     1       2.364  27.395  -6.565  1.00  0.00     0.050 A 
HETATM    9  C6  UNL     1       3.271  26.332  -6.680  1.00  0.00     0.030 A 
HETATM   10  C7  UNL     1       3.671  25.799  -7.880  1.00  0.00     0.002 A 
HETATM   11  C8  UNL     1       3.177  26.312  -9.057  1.00  0.00     0.001 A 
HETATM   12  C9  UNL     1       2.289  27.353  -8.965  1.00  0.00     0.012 A 
HETATM   13  C10 UNL     1       1.891  27.887  -7.736  1.00  0.00     0.006 A 
HETATM   14  C11 UNL     1       1.081  28.915  -7.106  1.00  0.00     0.146 A 
HETATM   15  C12 UNL     1      -0.372  28.740  -7.261  1.00  0.00     0.117 A 
HETATM   16  O2  UNL     1      -1.013  27.592  -7.297  1.00  0.00    -0.309 OA
HETATM   17  C13 UNL     1      -2.276  27.789  -7.442  1.00  0.00     0.088 A 
HETATM   18  C14 UNL     1      -3.299  26.859  -7.528  1.00  0.00     0.038 A 
HETATM   19  C15 UNL     1      -4.590  27.313  -7.684  1.00  0.00     0.003 A 
HETATM   20  C16 UNL     1      -4.823  28.673  -7.750  1.00  0.00     0.001 A 
HETATM   21  C17 UNL     1      -3.805  29.611  -7.666  1.00  0.00     0.017 A 
HETATM   22  C18 UNL     1      -2.526  29.157  -7.511  1.00  0.00     0.028 A 
HETATM   23  C19 UNL     1      -1.297  29.758  -7.393  1.00  0.00     0.087 A 
HETATM   24  N3  UNL     1      -0.880  31.105  -7.387  1.00  0.00    -0.297 N 
HETATM   25  C26 UNL     1       0.540  31.339  -7.238  1.00  0.00     0.103 C 
HETATM   26  N4  UNL     1       0.890  32.563  -7.029  1.00  0.00    -0.387 N 
ATOM     27  H41 UNL     1       1.891  32.729  -6.925  1.00  0.00     0.157 HD
ATOM     28  H42 UNL     1       0.180  33.294  -6.979  1.00  0.00     0.157 HD
HETATM   29  C27 UNL     1       1.556  30.292  -7.311  1.00  0.00     0.200 C 
HETATM   30  C28 UNL     1       2.306  30.450  -8.566  1.00  0.00     0.075 C 
HETATM   31  N5  UNL     1       2.908  30.596  -9.561  1.00  0.00    -0.196 NA
HETATM   32  C29 UNL     1       1.922  26.722  -3.183  1.00  0.00     0.118 A 
HETATM   33  C30 UNL     1       2.026  26.173  -1.956  1.00  0.00     0.108 A 
HETATM   34  N6  UNL     1       1.682  26.861  -0.779  1.00  0.00    -0.362 N 
HETATM   35  C31 UNL     1       1.818  26.213   0.501  1.00  0.00     0.155 C 
ENDROOT
BRANCH  24  36
HETATM   36  C20 UNL     1      -1.773  32.198  -7.515  1.00  0.00     0.041 A 
HETATM   37  C21 UNL     1      -2.453  32.771  -6.463  1.00  0.00     0.030 A 
HETATM   38  C22 UNL     1      -3.326  33.810  -6.693  1.00  0.00     0.002 A 
HETATM   39  C23 UNL     1      -3.531  34.290  -7.968  1.00  0.00     0.000 A 
HETATM   40  C24 UNL     1      -2.866  33.738  -9.041  1.00  0.00     0.002 A 
HETATM   41  C25 UNL     1      -2.003  32.704  -8.778  1.00  0.00     0.030 A 
ENDBRANCH  24  36
TORSDOF 1
ENDMDL
MODEL 2
REMARK VINA RESULT: -7.705238804      2.520      7.621
REMARK  1 active torsions:
REMARK  status: ('A' for Active; 'I' for Inactive)
REMARK       I    between atoms: N1_4  and  C4_5 
REMARK       I    between atoms: C4_5  and  N2_7 
REMARK    1  A    between atoms: N3_24  and  C20_25 
ROOT
HETATM    1  C1  UNL     1       4.167  35.349  -9.033  1.00  0.00     0.070 C 
HETATM    2  C2  UNL     1       2.928  34.634  -9.457  1.00  0.00     0.023 A 
HETATM    3  C3  UNL     1       2.293  33.814  -8.641  1.00  0.00     0.125 A 
HETATM    4  N1  UNL     1       1.090  33.102  -9.010  1.00  0.00    -0.282 N 
HETATM    5  C4  UNL     1       0.531  32.234  -8.091  1.00  0.00     0.334 C 
HETATM    6  O1  UNL     1       1.223  32.058  -7.005  1.00  0.00    -0.246 OA
HETATM    7  N2  UNL     1      -0.652  31.516  -8.132  1.00  0.00    -0.276 N 
HETATM    8  C5  UNL     1      -1.859  31.396  -8.835  1.00  0.00     0.050 A 
HETATM    9  C6  UNL     1      -2.778  31.785  -9.819  1.00  0.00     0.030 A 
HETATM   10  C7  UNL     1      -3.975  31.148 -10.039  1.00  0.00     0.002 A 
HETATM   11  C8  UNL     1      -4.325  30.063  -9.268  1.00  0.00     0.001 A 
HETATM   12  C9  UNL     1      -3.439  29.667  -8.299  1.00  0.00     0.012 A 
HETATM   13  C10 UNL     1      -2.224  30.327  -8.086  1.00  0.00     0.006 A 
HETATM   14  C11 UNL     1      -1.031  30.357  -7.257  1.00  0.00     0.146 A 
HETATM   15  C12 UNL     1      -0.133  29.203  -7.423  1.00  0.00     0.117 A 
HETATM   16  O2  UNL     1       0.087  28.549  -8.541  1.00  0.00    -0.309 OA
HETATM   17  C13 UNL     1       0.925  27.593  -8.343  1.00  0.00     0.088 A 
HETATM   18  C14 UNL     1       1.425  26.670  -9.247  1.00  0.00     0.038 A 
HETATM   19  C15 UNL     1       2.323  25.727  -8.797  1.00  0.00     0.003 A 
HETATM   20  C16 UNL     1       2.694  25.731  -7.466  1.00  0.00     0.001 A 
HETATM   21  C17 UNL     1       2.199  26.651  -6.555  1.00  0.00     0.017 A 
HETATM   22  C18 UNL     1       1.309  27.584  -7.004  1.00  0.00     0.028 A 
HETATM   23  C19 UNL     1       0.624  28.622  -6.423  1.00  0.00     0.087 A 
HETATM   24  N3  UNL     1       0.578  29.130  -5.109  1.00  0.00    -0.297 N 
HETATM   25  C26 UNL     1      -0.289  30.266  -4.886  1.00  0.00     0.103 C 
HETATM   26  N4  UNL     1      -0.172  30.849  -3.740  1.00  0.00    -0.387 N 
ATOM     27  H41 UNL     1      -0.784  31.650  -3.583  1.00  0.00     0.157 HD
ATOM     28  H42 UNL     1       0.503  30.501  -3.059  1.00  0.00     0.157 HD
HETATM   29  C27 UNL     1      -1.255  30.765  -5.863  1.00  0.00     0.200 C 
HETATM   30  C28 UNL     1      -2.611  30.442  -5.390  1.00  0.00     0.075 C 
HETATM   31  N5  UNL     1      -3.686  30.196  -4.996  1.00  0.00    -0.196 NA
HETATM   32  C29 UNL     1       0.622  33.332 -10.312  1.00  0.00     0.118 A 
HETATM   33  C30 UNL     1       1.278  34.171 -11.138  1.00  0.00     0.108 A 
HETATM   34  N6  UNL     1       2.447  34.857 -10.761  1.00  0.00    -0.362 N 
HETATM   35  C31 UNL     1       3.097  35.740 -11.696  1.00  0.00     0.155 C 
ENDROOT
BRANCH  24  36
HETATM   36  C20 UNL     1       1.329  28.586  -4.036  1.00  0.00     0.041 A 
HETATM   37  C21 UNL     1       0.869  27.604  -3.187  1.00  0.00     0.030 A 
HETATM   38  C22 UNL     1       1.661  27.163  -2.152  1.00  0.00     0.002 A 
HETATM   39  C23 UNL     1       2.917  27.692  -1.950  1.00  0.00     0.000 A 
HETATM   40  C24 UNL     1       3.405  28.676  -2.781  1.00  0.00     0.002 A 
HETATM   41  C25 UNL     1       2.591  29.093  -3.804  1.00  0.00     0.030 A 
ENDBRANCH  24  36
TORSDOF 1
ENDMDL
MODEL 3
REMARK VINA RESULT: -7.658707283      8.946     12.783
REMARK  1 active torsions:
REMARK  status: ('A' for Active; 'I' for Inactive)
REMARK       I    between atoms: N1_4  and  C4_5 
REMARK       I    between atoms: C4_5  and  N2_7 
REMARK    1  A    between atoms: N3_24  and  C20_25 
ROOT
HETATM    1  C1  UNL     1       3.945  32.528 -13.673  1.00  0.00     0.070 C 
HETATM    2  C2  UNL     1       5.260  32.440 -12.974  1.00  0.00     0.023 A 
HETATM    3  C3  UNL     1       6.126  31.484 -13.256  1.00  0.00     0.125 A 
HETATM    4  N1  UNL     1       7.411  31.362 -12.605  1.00  0.00    -0.282 N 
HETATM    5  C4  UNL     1       8.223  30.297 -12.946  1.00  0.00     0.334 C 
HETATM    6  O1  UNL     1       7.688  29.431 -13.755  1.00  0.00    -0.246 OA
HETATM    7  N2  UNL     1       9.521  29.993 -12.570  1.00  0.00    -0.276 N 
HETATM    8  C5  UNL     1      10.654  30.533 -11.946  1.00  0.00     0.050 A 
HETATM    9  C6  UNL     1      11.375  31.573 -11.343  1.00  0.00     0.030 A 
HETATM   10  C7  UNL     1      12.652  31.433 -10.858  1.00  0.00     0.002 A 
HETATM   11  C8  UNL     1      13.292  30.218 -10.952  1.00  0.00     0.001 A 
HETATM   12  C9  UNL     1      12.603  29.188 -11.541  1.00  0.00     0.012 A 
HETATM   13  C10 UNL     1      11.303  29.346 -12.031  1.00  0.00     0.006 A 
HETATM   14  C11 UNL     1      10.213  28.671 -12.715  1.00  0.00     0.146 A 
HETATM   15  C12 UNL     1       9.565  27.602 -11.940  1.00  0.00     0.117 A 
HETATM   16  O2  UNL     1       9.381  27.592 -10.638  1.00  0.00    -0.309 OA
HETATM   17  C13 UNL     1       8.783  26.512 -10.277  1.00  0.00     0.088 A 
HETATM   18  C14 UNL     1       8.405  26.106  -9.008  1.00  0.00     0.038 A 
HETATM   19  C15 UNL     1       7.770  24.892  -8.867  1.00  0.00     0.003 A 
HETATM   20  C16 UNL     1       7.533  24.121  -9.989  1.00  0.00     0.001 A 
HETATM   21  C17 UNL     1       7.909  24.519 -11.262  1.00  0.00     0.017 A 
HETATM   22  C18 UNL     1       8.537  25.723 -11.399  1.00  0.00     0.028 A 
HETATM   23  C19 UNL     1       9.043  26.433 -12.460  1.00  0.00     0.087 A 
HETATM   24  N3  UNL     1       9.105  26.180 -13.846  1.00  0.00    -0.297 N 
HETATM   25  C26 UNL     1       9.733  27.197 -14.659  1.00  0.00     0.103 C 
HETATM   26  N4  UNL     1       9.605  27.057 -15.936  1.00  0.00    -0.387 N 
ATOM     27  H41 UNL     1      10.048  27.775 -16.510  1.00  0.00     0.157 HD
ATOM     28  H42 UNL     1       9.085  26.264 -16.311  1.00  0.00     0.157 HD
HETATM   29  C27 UNL     1      10.478  28.334 -14.122  1.00  0.00     0.200 C 
HETATM   30  C28 UNL     1      11.909  28.131 -14.395  1.00  0.00     0.075 C 
HETATM   31  N5  UNL     1      13.044  27.967 -14.633  1.00  0.00    -0.196 NA
HETATM   32  C29 UNL     1       7.696  32.332 -11.634  1.00  0.00     0.118 A 
HETATM   33  C30 UNL     1       6.804  33.304 -11.353  1.00  0.00     0.108 A 
HETATM   34  N6  UNL     1       5.559  33.409 -11.998  1.00  0.00    -0.362 N 
HETATM   35  C31 UNL     1       4.654  34.474 -11.649  1.00  0.00     0.155 C 
ENDROOT
BRANCH  24  36
HETATM   36  C20 UNL     1       8.588  25.005 -14.448  1.00  0.00     0.041 A 
HETATM   37  C21 UNL     1       7.288  24.862 -14.880  1.00  0.00     0.030 A 
HETATM   38  C22 UNL     1       6.871  23.668 -15.423  1.00  0.00     0.002 A 
HETATM   39  C23 UNL     1       7.740  22.606 -15.543  1.00  0.00     0.000 A 
HETATM   40  C24 UNL     1       9.046  22.718 -15.119  1.00  0.00     0.002 A 
HETATM   41  C25 UNL     1       9.431  23.921 -14.583  1.00  0.00     0.030 A 
ENDBRANCH  24  36
TORSDOF 1
ENDMDL
MODEL 4
REMARK VINA RESULT: -7.533103410      1.524      2.039
REMARK  1 active torsions:
REMARK  status: ('A' for Active; 'I' for Inactive)
REMARK       I    between atoms: N1_4  and  C4_5 
REMARK       I    between atoms: C4_5  and  N2_7 
REMARK    1  A    between atoms: N3_24  and  C20_25 
ROOT
HETATM    1  C1  UNL     1       1.576  28.997   0.665  1.00  0.00     0.070 C 
HETATM    2  C2  UNL     1       2.145  28.237  -0.486  1.00  0.00     0.023 A 
HETATM    3  C3  UNL     1       1.829  28.538  -1.731  1.00  0.00     0.125 A 
HETATM    4  N1  UNL     1       2.357  27.829  -2.876  1.00  0.00    -0.282 N 
HETATM    5  C4  UNL     1       1.926  28.199  -4.136  1.00  0.00     0.334 C 
HETATM    6  O1  UNL     1       0.981  29.092  -4.156  1.00  0.00    -0.246 OA
HETATM    7  N2  UNL     1       2.332  27.776  -5.390  1.00  0.00    -0.276 N 
HETATM    8  C5  UNL     1       3.338  27.058  -6.051  1.00  0.00     0.050 A 
HETATM    9  C6  UNL     1       4.546  26.347  -6.096  1.00  0.00     0.030 A 
HETATM   10  C7  UNL     1       5.069  25.806  -7.245  1.00  0.00     0.002 A 
HETATM   11  C8  UNL     1       4.399  25.950  -8.437  1.00  0.00     0.001 A 
HETATM   12  C9  UNL     1       3.215  26.643  -8.414  1.00  0.00     0.012 A 
HETATM   13  C10 UNL     1       2.695  27.189  -7.237  1.00  0.00     0.006 A 
HETATM   14  C11 UNL     1       1.604  27.975  -6.686  1.00  0.00     0.146 A 
HETATM   15  C12 UNL     1       0.291  27.310  -6.707  1.00  0.00     0.117 A 
HETATM   16  O2  UNL     1       0.073  26.023  -6.548  1.00  0.00    -0.309 OA
HETATM   17  C13 UNL     1      -1.186  25.769  -6.621  1.00  0.00     0.088 A 
HETATM   18  C14 UNL     1      -1.839  24.553  -6.510  1.00  0.00     0.038 A 
HETATM   19  C15 UNL     1      -3.211  24.529  -6.625  1.00  0.00     0.003 A 
HETATM   20  C16 UNL     1      -3.889  25.712  -6.849  1.00  0.00     0.001 A 
HETATM   21  C17 UNL     1      -3.244  26.933  -6.962  1.00  0.00     0.017 A 
HETATM   22  C18 UNL     1      -1.884  26.954  -6.846  1.00  0.00     0.028 A 
HETATM   23  C19 UNL     1      -0.926  27.936  -6.900  1.00  0.00     0.087 A 
HETATM   24  N3  UNL     1      -0.986  29.330  -7.099  1.00  0.00    -0.297 N 
HETATM   25  C26 UNL     1       0.275  30.038  -7.088  1.00  0.00     0.103 C 
HETATM   26  N4  UNL     1       0.199  31.326  -7.065  1.00  0.00    -0.387 N 
ATOM     27  H41 UNL     1       1.089  31.825  -7.058  1.00  0.00     0.157 HD
ATOM     28  H42 UNL     1      -0.713  31.781  -7.056  1.00  0.00     0.157 HD
HETATM   29  C27 UNL     1       1.583  29.385  -7.101  1.00  0.00     0.200 C 
HETATM   30  C28 UNL     1       2.201  29.596  -8.419  1.00  0.00     0.075 C 
HETATM   31  N5  UNL     1       2.691  29.784  -9.467  1.00  0.00    -0.196 NA
HETATM   32  C29 UNL     1       3.242  26.780  -2.587  1.00  0.00     0.118 A 
HETATM   33  C30 UNL     1       3.558  26.481  -1.311  1.00  0.00     0.108 A 
HETATM   34  N6  UNL     1       3.035  27.183  -0.210  1.00  0.00    -0.362 N 
HETATM   35  C31 UNL     1       3.417  26.810   1.129  1.00  0.00     0.155 C 
ENDROOT
BRANCH  24  36
HETATM   36  C20 UNL     1      -2.198  30.038  -7.299  1.00  0.00     0.041 A 
HETATM   37  C21 UNL     1      -2.720  30.347  -8.536  1.00  0.00     0.030 A 
HETATM   38  C22 UNL     1      -3.888  31.069  -8.629  1.00  0.00     0.002 A 
HETATM   39  C23 UNL     1      -4.549  31.489  -7.495  1.00  0.00     0.000 A 
HETATM   40  C24 UNL     1      -4.052  31.196  -6.244  1.00  0.00     0.002 A 
HETATM   41  C25 UNL     1      -2.886  30.475  -6.186  1.00  0.00     0.030 A 
ENDBRANCH  24  36
TORSDOF 1
ENDMDL
MODEL 5
REMARK VINA RESULT: -7.354729390      1.334      1.690
REMARK  1 active torsions:
REMARK  status: ('A' for Active; 'I' for Inactive)
REMARK       I    between atoms: N1_4  and  C4_5 
REMARK       I    between atoms: C4_5  and  N2_7 
REMARK    1  A    between atoms: N3_24  and  C20_25 
ROOT
HETATM    1  C1  UNL     1      -0.450  29.654   0.784  1.00  0.00     0.070 C 
HETATM    2  C2  UNL     1       0.239  28.808  -0.233  1.00  0.00     0.023 A 
HETATM    3  C3  UNL     1       0.171  29.088  -1.520  1.00  0.00     0.125 A 
HETATM    4  N1  UNL     1       0.824  28.295  -2.539  1.00  0.00    -0.282 N 
HETATM    5  C4  UNL     1       0.651  28.653  -3.863  1.00  0.00     0.334 C 
HETATM    6  O1  UNL     1      -0.192  29.621  -4.068  1.00  0.00    -0.246 OA
HETATM    7  N2  UNL     1       1.229  28.152  -5.017  1.00  0.00    -0.276 N 
HETATM    8  C5  UNL     1       2.266  27.328  -5.476  1.00  0.00     0.050 A 
HETATM    9  C6  UNL     1       3.395  26.517  -5.293  1.00  0.00     0.030 A 
HETATM   10  C7  UNL     1       4.058  25.892  -6.320  1.00  0.00     0.002 A 
HETATM   11  C8  UNL     1       3.619  26.048  -7.615  1.00  0.00     0.001 A 
HETATM   12  C9  UNL     1       2.516  26.838  -7.814  1.00  0.00     0.012 A 
HETATM   13  C10 UNL     1       1.851  27.469  -6.759  1.00  0.00     0.006 A 
HETATM   14  C11 UNL     1       0.756  28.363  -6.425  1.00  0.00     0.146 A 
HETATM   15  C12 UNL     1      -0.588  27.811  -6.661  1.00  0.00     0.117 A 
HETATM   16  O2  UNL     1      -0.944  26.554  -6.515  1.00  0.00    -0.309 OA
HETATM   17  C13 UNL     1      -2.189  26.404  -6.802  1.00  0.00     0.088 A 
HETATM   18  C14 UNL     1      -2.957  25.252  -6.781  1.00  0.00     0.038 A 
HETATM   19  C15 UNL     1      -4.285  25.339  -7.134  1.00  0.00     0.003 A 
HETATM   20  C16 UNL     1      -4.807  26.565  -7.499  1.00  0.00     0.001 A 
HETATM   21  C17 UNL     1      -4.045  27.724  -7.524  1.00  0.00     0.017 A 
HETATM   22  C18 UNL     1      -2.729  27.634  -7.172  1.00  0.00     0.028 A 
HETATM   23  C19 UNL     1      -1.692  28.529  -7.077  1.00  0.00     0.087 A 
HETATM   24  N3  UNL     1      -1.593  29.916  -7.314  1.00  0.00    -0.297 N 
HETATM   25  C26 UNL     1      -0.294  30.515  -7.098  1.00  0.00     0.103 C 
HETATM   26  N4  UNL     1      -0.258  31.805  -7.116  1.00  0.00    -0.387 N 
ATOM     27  H41 UNL     1       0.658  32.227  -6.964  1.00  0.00     0.157 HD
ATOM     28  H42 UNL     1      -1.114  32.335  -7.277  1.00  0.00     0.157 HD
HETATM   29  C27 UNL     1       0.933  29.754  -6.867  1.00  0.00     0.200 C 
HETATM   30  C28 UNL     1       1.785  29.864  -8.061  1.00  0.00     0.075 C 
HETATM   31  N5  UNL     1       2.464  29.972  -9.010  1.00  0.00    -0.196 NA
HETATM   32  C29 UNL     1       1.548  27.187  -2.077  1.00  0.00     0.118 A 
HETATM   33  C30 UNL     1       1.611  26.910  -0.759  1.00  0.00     0.108 A 
HETATM   34  N6  UNL     1       0.971  27.693   0.218  1.00  0.00    -0.362 N 
HETATM   35  C31 UNL     1       1.080  27.339   1.611  1.00  0.00     0.155 C 
ENDROOT
BRANCH  24  36
HETATM   36  C20 UNL     1      -2.684  30.715  -7.739  1.00  0.00     0.041 A 
HETATM   37  C21 UNL     1      -2.986  30.977  -9.057  1.00  0.00     0.030 A 
HETATM   38  C22 UNL     1      -4.048  31.794  -9.370  1.00  0.00     0.002 A 
HETATM   39  C23 UNL     1      -4.821  32.358  -8.378  1.00  0.00     0.000 A 
HETATM   40  C24 UNL     1      -4.544  32.114  -7.050  1.00  0.00     0.002 A 
HETATM   41  C25 UNL     1      -3.478  31.296  -6.772  1.00  0.00     0.030 A 
ENDBRANCH  24  36
TORSDOF 1
ENDMDL
