MODEL 1
REMARK VINA RESULT: -6.816895776      0.000      0.000
REMARK  0 active torsions:
REMARK  status: ('A' for Active; 'I' for Inactive)
ROOT
HETATM    1  O1  UNL     1      50.717  44.275  68.144  1.00  0.00    -0.247 OA
HETATM    2  C1  UNL     1      50.631  43.350  68.996  1.00  0.00     0.327 A 
HETATM    3  N1  UNL     1      51.423  42.264  68.820  1.00  0.00    -0.274 N 
ATOM      4  H1  UNL     1      52.064  42.199  68.029  1.00  0.00     0.173 HD
HETATM    5  C2  UNL     1      51.333  41.279  69.725  1.00  0.00     0.278 A 
HETATM    6  O2  UNL     1      52.059  40.263  69.580  1.00  0.00    -0.265 OA
HETATM    7  C3  UNL     1      50.481  41.321  70.810  1.00  0.00     0.134 A 
HETATM    8  N2  UNL     1      50.390  40.332  71.718  1.00  0.00    -0.346 N 
ATOM      9  H2  UNL     1      50.981  39.510  71.598  1.00  0.00     0.167 HD
HETATM   10  C4  UNL     1      49.562  40.371  72.774  1.00  0.00     0.184 A 
HETATM   11  N3  UNL     1      48.793  41.466  72.912  1.00  0.00    -0.318 N 
ATOM     12  H3  UNL     1      48.154  41.524  73.705  1.00  0.00     0.169 HD
HETATM   13  C5  UNL     1      48.842  42.486  72.036  1.00  0.00     0.275 A 
HETATM   14  O3  UNL     1      48.128  43.522  72.148  1.00  0.00    -0.266 OA
HETATM   15  C6  UNL     1      49.698  42.445  70.943  1.00  0.00     0.137 A 
HETATM   16  N4  UNL     1      49.788  43.428  70.043  1.00  0.00    -0.302 N 
ATOM     17  H4  UNL     1      49.204  44.257  70.150  1.00  0.00     0.171 HD
ENDROOT
TORSDOF 0
ENDMDL
MODEL 2
REMARK VINA RESULT: -6.428295647      2.695      3.563
REMARK  0 active torsions:
REMARK  status: ('A' for Active; 'I' for Inactive)
ROOT
HETATM    1  O1  UNL     1      48.621  43.582  71.501  1.00  0.00    -0.247 OA
HETATM    2  C1  UNL     1      49.735  43.041  71.266  1.00  0.00     0.327 A 
HETATM    3  N1  UNL     1      49.740  41.941  70.473  1.00  0.00    -0.274 N 
ATOM      4  H1  UNL     1      48.876  41.567  70.082  1.00  0.00     0.173 HD
HETATM    5  C2  UNL     1      50.924  41.364  70.223  1.00  0.00     0.278 A 
HETATM    6  O2  UNL     1      50.951  40.343  69.490  1.00  0.00    -0.265 OA
HETATM    7  C3  UNL     1      52.119  41.833  70.730  1.00  0.00     0.134 A 
HETATM    8  N2  UNL     1      53.308  41.255  70.479  1.00  0.00    -0.346 N 
ATOM      9  H2  UNL     1      53.326  40.427  69.883  1.00  0.00     0.167 HD
HETATM   10  C4  UNL     1      54.471  41.709  70.971  1.00  0.00     0.184 A 
HETATM   11  N3  UNL     1      54.422  42.802  71.753  1.00  0.00    -0.318 N 
ATOM     12  H3  UNL     1      55.289  43.171  72.142  1.00  0.00     0.169 HD
HETATM   13  C5  UNL     1      53.262  43.423  72.038  1.00  0.00     0.275 A 
HETATM   14  O3  UNL     1      53.196  44.450  72.771  1.00  0.00    -0.266 OA
HETATM   15  C6  UNL     1      52.059  42.952  71.530  1.00  0.00     0.137 A 
HETATM   16  N4  UNL     1      50.880  43.528  71.779  1.00  0.00    -0.302 N 
ATOM     17  H4  UNL     1      50.846  44.358  72.372  1.00  0.00     0.171 HD
ENDROOT
TORSDOF 0
ENDMDL
MODEL 3
REMARK VINA RESULT: -6.147918582      1.346      4.542
REMARK  0 active torsions:
REMARK  status: ('A' for Active; 'I' for Inactive)
ROOT
HETATM    1  O1  UNL     1      49.513  39.731  73.022  1.00  0.00    -0.247 OA
HETATM    2  C1  UNL     1      49.541  40.764  72.300  1.00  0.00     0.327 A 
HETATM    3  N1  UNL     1      48.733  41.794  72.653  1.00  0.00    -0.274 N 
ATOM      4  H1  UNL     1      48.127  41.735  73.470  1.00  0.00     0.173 HD
HETATM    5  C2  UNL     1      48.762  42.893  71.886  1.00  0.00     0.278 A 
HETATM    6  O2  UNL     1      48.020  43.860  72.196  1.00  0.00    -0.265 OA
HETATM    7  C3  UNL     1      49.565  43.020  70.771  1.00  0.00     0.134 A 
HETATM    8  N2  UNL     1      49.594  44.124  70.001  1.00  0.00    -0.346 N 
ATOM      9  H2  UNL     1      48.992  44.906  70.256  1.00  0.00     0.167 HD
HETATM   10  C4  UNL     1      50.374  44.249  68.916  1.00  0.00     0.184 A 
HETATM   11  N3  UNL     1      51.159  43.204  68.601  1.00  0.00    -0.318 N 
ATOM     12  H3  UNL     1      51.763  43.270  67.781  1.00  0.00     0.169 HD
HETATM   13  C5  UNL     1      51.173  42.076  69.334  1.00  0.00     0.275 A 
HETATM   14  O3  UNL     1      51.905  41.084  69.053  1.00  0.00    -0.266 OA
HETATM   15  C6  UNL     1      50.366  41.946  70.456  1.00  0.00     0.137 A 
HETATM   16  N4  UNL     1      50.339  40.851  71.220  1.00  0.00    -0.302 N 
ATOM     17  H4  UNL     1      50.937  40.060  70.978  1.00  0.00     0.171 HD
ENDROOT
TORSDOF 0
ENDMDL
MODEL 4
REMARK VINA RESULT: -6.097750196      1.302      2.851
REMARK  0 active torsions:
REMARK  status: ('A' for Active; 'I' for Inactive)
ROOT
HETATM    1  O1  UNL     1      52.441  39.771  69.004  1.00  0.00    -0.247 OA
HETATM    2  C1  UNL     1      51.704  40.698  69.437  1.00  0.00     0.327 A 
HETATM    3  N1  UNL     1      51.650  41.842  68.711  1.00  0.00    -0.274 N 
ATOM      4  H1  UNL     1      52.184  41.947  67.849  1.00  0.00     0.173 HD
HETATM    5  C2  UNL     1      50.867  42.829  69.169  1.00  0.00     0.278 A 
HETATM    6  O2  UNL     1      50.802  43.898  68.511  1.00  0.00    -0.265 OA
HETATM    7  C3  UNL     1      50.126  42.733  70.330  1.00  0.00     0.134 A 
HETATM    8  N2  UNL     1      49.340  43.723  70.790  1.00  0.00    -0.346 N 
ATOM      9  H2  UNL     1      49.290  44.589  70.253  1.00  0.00     0.167 HD
HETATM   10  C4  UNL     1      48.619  43.632  71.919  1.00  0.00     0.184 A 
HETATM   11  N3  UNL     1      48.702  42.481  72.609  1.00  0.00    -0.318 N 
ATOM     12  H3  UNL     1      48.166  42.383  73.471  1.00  0.00     0.169 HD
HETATM   13  C5  UNL     1      49.470  41.456  72.197  1.00  0.00     0.275 A 
HETATM   14  O3  UNL     1      49.561  40.368  72.832  1.00  0.00    -0.266 OA
HETATM   15  C6  UNL     1      50.217  41.551  71.030  1.00  0.00     0.137 A 
HETATM   16  N4  UNL     1      50.996  40.567  70.573  1.00  0.00    -0.302 N 
ATOM     17  H4  UNL     1      51.056  39.694  71.099  1.00  0.00     0.171 HD
ENDROOT
TORSDOF 0
ENDMDL
MODEL 5
REMARK VINA RESULT: -5.999031490      2.295      3.956
REMARK  0 active torsions:
REMARK  status: ('A' for Active; 'I' for Inactive)
ROOT
HETATM    1  O1  UNL     1      48.505  43.123  70.770  1.00  0.00    -0.247 OA
HETATM    2  C1  UNL     1      49.723  42.804  70.836  1.00  0.00     0.327 A 
HETATM    3  N1  UNL     1      50.502  43.495  71.705  1.00  0.00    -0.274 N 
ATOM      4  H1  UNL     1      50.117  44.242  72.282  1.00  0.00     0.173 HD
HETATM    5  C2  UNL     1      51.797  43.157  71.776  1.00  0.00     0.278 A 
HETATM    6  O2  UNL     1      52.538  43.785  72.576  1.00  0.00    -0.265 OA
HETATM    7  C3  UNL     1      52.364  42.155  71.015  1.00  0.00     0.134 A 
HETATM    8  N2  UNL     1      53.664  41.816  71.087  1.00  0.00    -0.346 N 
ATOM      9  H2  UNL     1      54.261  42.327  71.738  1.00  0.00     0.167 HD
HETATM   10  C4  UNL     1      54.217  40.842  70.348  1.00  0.00     0.184 A 
HETATM   11  N3  UNL     1      53.410  40.182  69.498  1.00  0.00    -0.318 N 
ATOM     12  H3  UNL     1      53.801  39.437  68.923  1.00  0.00     0.169 HD
HETATM   13  C5  UNL     1      52.102  40.476  69.385  1.00  0.00     0.275 A 
HETATM   14  O3  UNL     1      51.328  39.868  68.592  1.00  0.00    -0.266 OA
HETATM   15  C6  UNL     1      51.530  41.485  70.149  1.00  0.00     0.137 A 
HETATM   16  N4  UNL     1      50.239  41.820  70.077  1.00  0.00    -0.302 N 
ATOM     17  H4  UNL     1      49.629  41.317  69.432  1.00  0.00     0.171 HD
ENDROOT
TORSDOF 0
ENDMDL
