MODEL 1
REMARK VINA RESULT: -6.167809439      0.000      0.000
REMARK  2 active torsions:
REMARK  status: ('A' for Active; 'I' for Inactive)
REMARK    1  A    between atoms: N1_1  and  C1_4 
REMARK    2  A    between atoms: N3_10  and  O1_11 
ROOT
HETATM    1  C1  UNL     1      50.032  40.823  72.290  1.00  0.00     0.704 A 
HETATM    2  N2  UNL     1      51.133  40.534  71.580  1.00  0.00    -0.164 N 
ATOM      3  H2  UNL     1      51.377  39.569  71.356  1.00  0.00     0.186 HD
HETATM    4  C2  UNL     1      51.902  41.558  71.173  1.00  0.00     0.213 A 
HETATM    5  C3  UNL     1      51.564  42.865  71.481  1.00  0.00     0.109 A 
HETATM    6  C4  UNL     1      50.425  43.141  72.212  1.00  0.00     0.176 A 
HETATM    7  N3  UNL     1      49.677  42.095  72.605  1.00  0.00    -0.062 N 
HETATM    8  N4  UNL     1      52.379  43.953  71.049  1.00  0.00    -0.302 N 
ATOM      9  H4  UNL     1      52.136  44.918  71.270  1.00  0.00     0.171 HD
HETATM   10  C5  UNL     1      53.554  43.637  70.291  1.00  0.00     0.345 A 
HETATM   11  O2  UNL     1      54.285  44.555  69.901  1.00  0.00    -0.245 OA
HETATM   12  N5  UNL     1      53.879  42.284  69.989  1.00  0.00    -0.208 N 
ATOM     13  H5  UNL     1      54.716  42.066  69.449  1.00  0.00     0.200 HD
HETATM   14  O3  UNL     1      53.060  41.275  70.428  1.00  0.00    -0.213 OA
ENDROOT
BRANCH   1  15
HETATM   15  N1  UNL     1      49.219  39.908  72.731  1.00  0.00    -0.232 N 
ATOM     16  H12 UNL     1      49.639  39.243  73.381  1.00  0.00     0.174 HD
ATOM     17  H11 UNL     1      48.240  39.859  72.452  1.00  0.00     0.174 HD
ENDBRANCH   1  15
BRANCH   7  18
HETATM   18  O1  UNL     1      48.527  42.360  73.344  1.00  0.00    -0.270 OA
ATOM     19  H1  UNL     1      47.880  42.985  73.040  1.00  0.00     0.245 HD
ENDBRANCH   7  18
TORSDOF 2
ENDMDL
MODEL 2
REMARK VINA RESULT: -6.047417590      1.476      2.468
REMARK  2 active torsions:
REMARK  status: ('A' for Active; 'I' for Inactive)
REMARK    1  A    between atoms: N1_1  and  C1_4 
REMARK    2  A    between atoms: N3_10  and  O1_11 
ROOT
HETATM    1  C1  UNL     1      49.756  43.029  71.812  1.00  0.00     0.704 A 
HETATM    2  N2  UNL     1      50.788  43.654  71.225  1.00  0.00    -0.164 N 
ATOM      3  H2  UNL     1      50.791  44.666  71.104  1.00  0.00     0.186 HD
HETATM    4  C2  UNL     1      51.817  42.899  70.802  1.00  0.00     0.213 A 
HETATM    5  C3  UNL     1      51.805  41.525  70.970  1.00  0.00     0.109 A 
HETATM    6  C4  UNL     1      50.734  40.902  71.578  1.00  0.00     0.176 A 
HETATM    7  N3  UNL     1      49.720  41.684  71.991  1.00  0.00    -0.062 N 
HETATM    8  N4  UNL     1      52.898  40.724  70.521  1.00  0.00    -0.302 N 
ATOM      9  H4  UNL     1      52.897  39.712  70.643  1.00  0.00     0.171 HD
HETATM   10  C5  UNL     1      53.996  41.398  69.894  1.00  0.00     0.345 A 
HETATM   11  O2  UNL     1      54.960  40.734  69.492  1.00  0.00    -0.245 OA
HETATM   12  N5  UNL     1      53.982  42.812  69.733  1.00  0.00    -0.208 N 
ATOM     13  H5  UNL     1      54.767  43.285  69.286  1.00  0.00     0.200 HD
HETATM   14  O3  UNL     1      52.908  43.536  70.183  1.00  0.00    -0.213 OA
ENDROOT
BRANCH   1  15
HETATM   15  N1  UNL     1      48.712  43.664  72.258  1.00  0.00    -0.232 N 
ATOM     16  H12 UNL     1      48.922  44.501  72.801  1.00  0.00     0.174 HD
ATOM     17  H11 UNL     1      47.758  43.350  72.079  1.00  0.00     0.174 HD
ENDBRANCH   1  15
BRANCH   7  18
HETATM   18  O1  UNL     1      48.633  41.067  72.605  1.00  0.00    -0.270 OA
ATOM     19  H1  UNL     1      47.750  41.395  72.485  1.00  0.00     0.245 HD
ENDBRANCH   7  18
TORSDOF 2
ENDMDL
MODEL 3
REMARK VINA RESULT: -6.011948587      1.245      1.245
REMARK  2 active torsions:
REMARK  status: ('A' for Active; 'I' for Inactive)
REMARK    1  A    between atoms: N1_1  and  C1_4 
REMARK    2  A    between atoms: N3_10  and  O1_11 
ROOT
HETATM    1  C1  UNL     1      50.469  41.165  71.731  1.00  0.00     0.704 A 
HETATM    2  N2  UNL     1      51.802  41.067  71.845  1.00  0.00    -0.164 N 
ATOM      3  H2  UNL     1      52.235  40.251  72.278  1.00  0.00     0.186 HD
HETATM    4  C2  UNL     1      52.547  42.080  71.372  1.00  0.00     0.213 A 
HETATM    5  C3  UNL     1      51.952  43.185  70.786  1.00  0.00     0.109 A 
HETATM    6  C4  UNL     1      50.578  43.265  70.677  1.00  0.00     0.176 A 
HETATM    7  N3  UNL     1      49.860  42.236  71.160  1.00  0.00    -0.062 N 
HETATM    8  N4  UNL     1      52.743  44.261  70.282  1.00  0.00    -0.302 N 
ATOM      9  H4  UNL     1      52.312  45.077  69.848  1.00  0.00     0.171 HD
HETATM   10  C5  UNL     1      54.166  44.149  70.409  1.00  0.00     0.345 A 
HETATM   11  O2  UNL     1      54.882  45.064  69.984  1.00  0.00    -0.245 OA
HETATM   12  N5  UNL     1      54.752  43.003  71.016  1.00  0.00    -0.208 N 
ATOM     13  H5  UNL     1      55.765  42.930  71.102  1.00  0.00     0.200 HD
HETATM   14  O3  UNL     1      53.947  41.996  71.483  1.00  0.00    -0.213 OA
ENDROOT
BRANCH   1  15
HETATM   15  N1  UNL     1      49.657  40.242  72.155  1.00  0.00    -0.232 N 
ATOM     16  H12 UNL     1      50.092  39.334  72.318  1.00  0.00     0.174 HD
ATOM     17  H11 UNL     1      48.664  40.411  72.313  1.00  0.00     0.174 HD
ENDBRANCH   1  15
BRANCH   7  18
HETATM   18  O1  UNL     1      48.474  42.306  71.056  1.00  0.00    -0.270 OA
ATOM     19  H1  UNL     1      48.057  42.784  70.350  1.00  0.00     0.245 HD
ENDBRANCH   7  18
TORSDOF 2
ENDMDL
MODEL 4
REMARK VINA RESULT: -6.002794511      2.158      3.094
REMARK  2 active torsions:
REMARK  status: ('A' for Active; 'I' for Inactive)
REMARK    1  A    between atoms: N1_1  and  C1_4 
REMARK    2  A    between atoms: N3_10  and  O1_11 
ROOT
HETATM    1  C1  UNL     1      49.300  43.117  71.377  1.00  0.00     0.704 A 
HETATM    2  N2  UNL     1      49.948  43.182  70.204  1.00  0.00    -0.164 N 
ATOM      3  H2  UNL     1      49.828  43.980  69.579  1.00  0.00     0.186 HD
HETATM    4  C2  UNL     1      50.759  42.161  69.879  1.00  0.00     0.213 A 
HETATM    5  C3  UNL     1      50.917  41.081  70.731  1.00  0.00     0.109 A 
HETATM    6  C4  UNL     1      50.242  41.034  71.935  1.00  0.00     0.176 A 
HETATM    7  N3  UNL     1      49.438  42.071  72.231  1.00  0.00    -0.062 N 
HETATM    8  N4  UNL     1      51.779  39.998  70.387  1.00  0.00    -0.302 N 
ATOM      9  H4  UNL     1      51.901  39.200  71.011  1.00  0.00     0.171 HD
HETATM   10  C5  UNL     1      52.467  40.074  69.132  1.00  0.00     0.345 A 
HETATM   11  O2  UNL     1      53.222  39.152  68.802  1.00  0.00    -0.245 OA
HETATM   12  N5  UNL     1      52.286  41.196  68.275  1.00  0.00    -0.208 N 
ATOM     13  H5  UNL     1      52.779  41.244  67.383  1.00  0.00     0.200 HD
HETATM   14  O3  UNL     1      51.446  42.211  68.653  1.00  0.00    -0.213 OA
ENDROOT
BRANCH   1  15
HETATM   15  N1  UNL     1      48.493  44.050  71.788  1.00  0.00    -0.232 N 
ATOM     16  H12 UNL     1      47.585  43.715  72.109  1.00  0.00     0.174 HD
ATOM     17  H11 UNL     1      48.746  45.038  71.789  1.00  0.00     0.174 HD
ENDBRANCH   1  15
BRANCH   7  18
HETATM   18  O1  UNL     1      48.751  42.034  73.442  1.00  0.00    -0.270 OA
ATOM     19  H1  UNL     1      48.786  42.763  74.049  1.00  0.00     0.245 HD
ENDBRANCH   7  18
TORSDOF 2
ENDMDL
MODEL 5
REMARK VINA RESULT: -5.937930396      1.772      4.309
REMARK  2 active torsions:
REMARK  status: ('A' for Active; 'I' for Inactive)
REMARK    1  A    between atoms: N1_1  and  C1_4 
REMARK    2  A    between atoms: N3_10  and  O1_11 
ROOT
HETATM    1  C1  UNL     1      54.132  41.687  70.929  1.00  0.00     0.704 A 
HETATM    2  N2  UNL     1      52.975  41.032  70.757  1.00  0.00    -0.164 N 
ATOM      3  H2  UNL     1      52.956  40.084  70.380  1.00  0.00     0.186 HD
HETATM    4  C2  UNL     1      51.840  41.666  71.099  1.00  0.00     0.213 A 
HETATM    5  C3  UNL     1      51.872  42.952  71.611  1.00  0.00     0.109 A 
HETATM    6  C4  UNL     1      53.074  43.608  71.781  1.00  0.00     0.176 A 
HETATM    7  N3  UNL     1      54.192  42.948  71.430  1.00  0.00    -0.062 N 
HETATM    8  N4  UNL     1      50.667  43.625  71.974  1.00  0.00    -0.302 N 
ATOM      9  H4  UNL     1      50.683  44.571  72.353  1.00  0.00     0.171 HD
HETATM   10  C5  UNL     1      49.434  42.918  71.787  1.00  0.00     0.345 A 
HETATM   11  O2  UNL     1      48.371  43.472  72.091  1.00  0.00    -0.245 OA
HETATM   12  N5  UNL     1      49.430  41.597  71.259  1.00  0.00    -0.208 N 
ATOM     13  H5  UNL     1      48.549  41.100  71.128  1.00  0.00     0.200 HD
HETATM   14  O3  UNL     1      50.616  40.995  70.925  1.00  0.00    -0.213 OA
ENDROOT
BRANCH   1  15
HETATM   15  N1  UNL     1      55.286  41.167  70.632  1.00  0.00    -0.232 N 
ATOM     16  H12 UNL     1      55.347  40.158  70.772  1.00  0.00     0.174 HD
ATOM     17  H11 UNL     1      56.069  41.721  70.285  1.00  0.00     0.174 HD
ENDBRANCH   1  15
BRANCH   7  18
HETATM   18  O1  UNL     1      55.411  43.600  71.596  1.00  0.00    -0.270 OA
ATOM     19  H1  UNL     1      55.503  44.324  72.203  1.00  0.00     0.245 HD
ENDBRANCH   7  18
TORSDOF 2
ENDMDL
