MODEL 1
REMARK VINA RESULT: -7.080421259      0.000      0.000
REMARK  0 active torsions:
REMARK  status: ('A' for Active; 'I' for Inactive)
ROOT
HETATM    1  O1  UNL     1      53.315  40.560  68.340  1.00  0.00    -0.247 OA
HETATM    2  C1  UNL     1      52.355  41.051  68.988  1.00  0.00     0.328 A 
HETATM    3  N1  UNL     1      51.796  42.193  68.582  1.00  0.00    -0.275 N 
ATOM      4  H1  UNL     1      52.161  42.651  67.748  1.00  0.00     0.173 HD
HETATM    5  C2  UNL     1      50.777  42.755  69.232  1.00  0.00     0.269 A 
HETATM    6  O2  UNL     1      50.239  43.833  68.864  1.00  0.00    -0.267 OA
HETATM    7  C3  UNL     1      50.262  42.164  70.356  1.00  0.00     0.144 A 
HETATM    8  C4  UNL     1      49.204  42.741  71.037  1.00  0.00     0.265 A 
HETATM    9  O3  UNL     1      48.697  43.819  70.630  1.00  0.00    -0.267 OA
HETATM   10  N2  UNL     1      48.746  42.111  72.132  1.00  0.00    -0.319 N 
ATOM     11  H2  UNL     1      47.967  42.504  72.661  1.00  0.00     0.169 HD
HETATM   12  C5  UNL     1      49.321  40.952  72.533  1.00  0.00     0.184 A 
HETATM   13  N3  UNL     1      50.350  40.390  71.872  1.00  0.00    -0.337 N 
ATOM     14  H3  UNL     1      50.755  39.516  72.207  1.00  0.00     0.168 HD
HETATM   15  C6  UNL     1      50.844  40.984  70.769  1.00  0.00     0.131 A 
HETATM   16  N4  UNL     1      51.871  40.451  70.084  1.00  0.00    -0.293 N 
ATOM     17  H4  UNL     1      52.288  39.577  70.405  1.00  0.00     0.172 HD
ENDROOT
TORSDOF 0
ENDMDL
MODEL 2
REMARK VINA RESULT: -7.065211854      1.427      3.685
REMARK  0 active torsions:
REMARK  status: ('A' for Active; 'I' for Inactive)
ROOT
HETATM    1  O1  UNL     1      48.368  42.425  73.569  1.00  0.00    -0.247 OA
HETATM    2  C1  UNL     1      49.016  42.436  72.491  1.00  0.00     0.328 A 
HETATM    3  N1  UNL     1      48.908  43.477  71.663  1.00  0.00    -0.275 N 
ATOM      4  H1  UNL     1      48.297  44.251  71.922  1.00  0.00     0.173 HD
HETATM    5  C2  UNL     1      49.573  43.539  70.510  1.00  0.00     0.269 A 
HETATM    6  O2  UNL     1      49.483  44.513  69.717  1.00  0.00    -0.267 OA
HETATM    7  C3  UNL     1      50.404  42.515  70.134  1.00  0.00     0.144 A 
HETATM    8  C4  UNL     1      51.098  42.571  68.938  1.00  0.00     0.265 A 
HETATM    9  O3  UNL     1      50.976  43.567  68.177  1.00  0.00    -0.267 OA
HETATM   10  N2  UNL     1      51.896  41.535  68.627  1.00  0.00    -0.319 N 
ATOM     11  H2  UNL     1      52.425  41.540  67.755  1.00  0.00     0.169 HD
HETATM   12  C5  UNL     1      51.997  40.485  69.477  1.00  0.00     0.184 A 
HETATM   13  N3  UNL     1      51.323  40.429  70.640  1.00  0.00    -0.337 N 
ATOM     14  H3  UNL     1      51.427  39.620  71.252  1.00  0.00     0.168 HD
HETATM   15  C6  UNL     1      50.511  41.444  70.995  1.00  0.00     0.131 A 
HETATM   16  N4  UNL     1      49.822  41.421  72.149  1.00  0.00    -0.293 N 
ATOM     17  H4  UNL     1      49.914  40.620  72.773  1.00  0.00     0.172 HD
ENDROOT
TORSDOF 0
ENDMDL
MODEL 3
REMARK VINA RESULT: -6.587316429      1.983      4.406
REMARK  0 active torsions:
REMARK  status: ('A' for Active; 'I' for Inactive)
ROOT
HETATM    1  O1  UNL     1      48.333  42.341  73.868  1.00  0.00    -0.247 OA
HETATM    2  C1  UNL     1      48.960  42.331  72.778  1.00  0.00     0.328 A 
HETATM    3  N1  UNL     1      49.636  41.240  72.412  1.00  0.00    -0.275 N 
ATOM      4  H1  UNL     1      49.632  40.428  73.027  1.00  0.00     0.173 HD
HETATM    5  C2  UNL     1      50.317  41.178  71.267  1.00  0.00     0.269 A 
HETATM    6  O2  UNL     1      50.961  40.157  70.907  1.00  0.00    -0.267 OA
HETATM    7  C3  UNL     1      50.341  42.252  70.417  1.00  0.00     0.144 A 
HETATM    8  C4  UNL     1      51.046  42.196  69.227  1.00  0.00     0.265 A 
HETATM    9  O3  UNL     1      51.674  41.153  68.907  1.00  0.00    -0.267 OA
HETATM   10  N2  UNL     1      51.030  43.284  68.437  1.00  0.00    -0.319 N 
ATOM     11  H2  UNL     1      51.537  43.281  67.552  1.00  0.00     0.169 HD
HETATM   12  C5  UNL     1      50.340  44.384  68.820  1.00  0.00     0.184 A 
HETATM   13  N3  UNL     1      49.654  44.441  69.977  1.00  0.00    -0.337 N 
ATOM     14  H3  UNL     1      49.147  45.289  70.229  1.00  0.00     0.168 HD
HETATM   15  C6  UNL     1      49.640  43.375  70.802  1.00  0.00     0.131 A 
HETATM   16  N4  UNL     1      48.967  43.397  71.965  1.00  0.00    -0.293 N 
ATOM     17  H4  UNL     1      48.454  44.237  72.233  1.00  0.00     0.172 HD
ENDROOT
TORSDOF 0
ENDMDL
MODEL 4
REMARK VINA RESULT: -6.543967311      2.083      4.155
REMARK  0 active torsions:
REMARK  status: ('A' for Active; 'I' for Inactive)
ROOT
HETATM    1  O1  UNL     1      48.248  43.380  72.078  1.00  0.00    -0.247 OA
HETATM    2  C1  UNL     1      49.384  42.963  71.732  1.00  0.00     0.328 A 
HETATM    3  N1  UNL     1      50.481  43.541  72.225  1.00  0.00    -0.275 N 
ATOM      4  H1  UNL     1      50.378  44.317  72.878  1.00  0.00     0.173 HD
HETATM    5  C2  UNL     1      51.707  43.138  71.891  1.00  0.00     0.269 A 
HETATM    6  O2  UNL     1      52.753  43.673  72.345  1.00  0.00    -0.267 OA
HETATM    7  C3  UNL     1      51.879  42.097  71.016  1.00  0.00     0.144 A 
HETATM    8  C4  UNL     1      53.148  41.673  70.664  1.00  0.00     0.265 A 
HETATM    9  O3  UNL     1      54.165  42.237  71.145  1.00  0.00    -0.267 OA
HETATM   10  N2  UNL     1      53.249  40.647  69.801  1.00  0.00    -0.319 N 
ATOM     11  H2  UNL     1      54.167  40.305  69.517  1.00  0.00     0.169 HD
HETATM   12  C5  UNL     1      52.128  40.069  69.309  1.00  0.00     0.184 A 
HETATM   13  N3  UNL     1      50.892  40.480  69.650  1.00  0.00    -0.337 N 
ATOM     14  H3  UNL     1      50.073  40.018  69.257  1.00  0.00     0.168 HD
HETATM   15  C6  UNL     1      50.741  41.505  70.512  1.00  0.00     0.131 A 
HETATM   16  N4  UNL     1      49.523  41.943  70.874  1.00  0.00    -0.293 N 
ATOM     17  H4  UNL     1      48.692  41.491  70.491  1.00  0.00     0.172 HD
ENDROOT
TORSDOF 0
ENDMDL
MODEL 5
REMARK VINA RESULT: -6.457908463      2.350      4.321
REMARK  0 active torsions:
REMARK  status: ('A' for Active; 'I' for Inactive)
ROOT
HETATM    1  O1  UNL     1      48.266  43.233  72.055  1.00  0.00    -0.247 OA
HETATM    2  C1  UNL     1      49.416  42.908  71.663  1.00  0.00     0.328 A 
HETATM    3  N1  UNL     1      49.563  41.893  70.809  1.00  0.00    -0.275 N 
ATOM      4  H1  UNL     1      48.734  41.396  70.486  1.00  0.00     0.173 HD
HETATM    5  C2  UNL     1      50.760  41.508  70.363  1.00  0.00     0.269 A 
HETATM    6  O2  UNL     1      50.917  40.553  69.557  1.00  0.00    -0.267 OA
HETATM    7  C3  UNL     1      51.894  42.157  70.777  1.00  0.00     0.144 A 
HETATM    8  C4  UNL     1      53.139  41.763  70.319  1.00  0.00     0.265 A 
HETATM    9  O3  UNL     1      53.247  40.803  69.513  1.00  0.00    -0.267 OA
HETATM   10  N2  UNL     1      54.213  42.440  70.763  1.00  0.00    -0.319 N 
ATOM     11  H2  UNL     1      55.147  42.181  70.449  1.00  0.00     0.169 HD
HETATM   12  C5  UNL     1      54.049  43.467  71.630  1.00  0.00     0.184 A 
HETATM   13  N3  UNL     1      52.839  43.851  72.077  1.00  0.00    -0.337 N 
ATOM     14  H3  UNL     1      52.759  44.631  72.729  1.00  0.00     0.168 HD
HETATM   15  C6  UNL     1      51.733  43.204  71.659  1.00  0.00     0.131 A 
HETATM   16  N4  UNL     1      50.509  43.560  72.084  1.00  0.00    -0.293 N 
ATOM     17  H4  UNL     1      50.410  44.337  72.737  1.00  0.00     0.172 HD
ENDROOT
TORSDOF 0
ENDMDL
