MODEL 1
REMARK VINA RESULT: -6.899028985      0.000      0.000
REMARK  1 active torsions:
REMARK  status: ('A' for Active; 'I' for Inactive)
REMARK    1  A    between atoms: N1_1  and  C1_4 
ROOT
HETATM    1  C1  UNL     1      52.390  41.054  69.010  1.00  0.00     0.680 A 
HETATM    2  N2  UNL     1      51.827  42.199  68.585  1.00  0.00    -0.155 N 
ATOM      3  H2  UNL     1      52.199  42.653  67.751  1.00  0.00     0.187 HD
HETATM    4  C2  UNL     1      50.787  42.764  69.228  1.00  0.00     0.279 A 
HETATM    5  O1  UNL     1      50.264  43.835  68.827  1.00  0.00    -0.266 OA
HETATM    6  C3  UNL     1      50.255  42.173  70.366  1.00  0.00     0.145 A 
HETATM    7  C4  UNL     1      49.191  42.720  71.051  1.00  0.00     0.265 A 
HETATM    8  O2  UNL     1      48.664  43.791  70.655  1.00  0.00    -0.267 OA
HETATM    9  N3  UNL     1      48.753  42.059  72.149  1.00  0.00    -0.319 N 
ATOM     10  H3  UNL     1      47.967  42.444  72.672  1.00  0.00     0.169 HD
HETATM   11  C5  UNL     1      49.313  40.916  72.574  1.00  0.00     0.184 A 
HETATM   12  N4  UNL     1      50.349  40.413  71.880  1.00  0.00    -0.337 N 
ATOM     13  H4  UNL     1      50.773  39.544  72.205  1.00  0.00     0.168 HD
HETATM   14  C6  UNL     1      50.859  41.000  70.769  1.00  0.00     0.143 A 
HETATM   15  N5  UNL     1      51.898  40.462  70.104  1.00  0.00    -0.176 N 
ATOM     16  H5  UNL     1      52.314  39.593  70.438  1.00  0.00     0.186 HD
ENDROOT
BRANCH   1  17
HETATM   17  N1  UNL     1      53.403  40.526  68.364  1.00  0.00    -0.234 N 
ATOM     18  H12 UNL     1      53.843  39.668  68.697  1.00  0.00     0.174 HD
ATOM     19  H11 UNL     1      53.767  40.968  67.520  1.00  0.00     0.174 HD
ENDBRANCH   1  17
TORSDOF 1
ENDMDL
MODEL 2
REMARK VINA RESULT: -6.796334025      0.961      3.694
REMARK  1 active torsions:
REMARK  status: ('A' for Active; 'I' for Inactive)
REMARK    1  A    between atoms: N1_1  and  C1_4 
ROOT
HETATM    1  C1  UNL     1      49.147  42.118  72.522  1.00  0.00     0.680 A 
HETATM    2  N2  UNL     1      48.958  43.219  71.773  1.00  0.00    -0.155 N 
ATOM      3  H2  UNL     1      48.320  43.941  72.107  1.00  0.00     0.187 HD
HETATM    4  C2  UNL     1      49.585  43.396  70.595  1.00  0.00     0.279 A 
HETATM    5  O1  UNL     1      49.405  44.427  69.897  1.00  0.00    -0.266 OA
HETATM    6  C3  UNL     1      50.461  42.434  70.109  1.00  0.00     0.145 A 
HETATM    7  C4  UNL     1      51.122  42.578  68.908  1.00  0.00     0.265 A 
HETATM    8  O2  UNL     1      50.946  43.606  68.206  1.00  0.00    -0.267 OA
HETATM    9  N3  UNL     1      51.953  41.576  68.532  1.00  0.00    -0.319 N 
ATOM     10  H3  UNL     1      52.453  41.660  67.647  1.00  0.00     0.169 HD
HETATM   11  C5  UNL     1      52.143  40.477  69.278  1.00  0.00     0.184 A 
HETATM   12  N4  UNL     1      51.480  40.373  70.444  1.00  0.00    -0.337 N 
ATOM     13  H4  UNL     1      51.626  39.537  71.010  1.00  0.00     0.168 HD
HETATM   14  C6  UNL     1      50.628  41.320  70.907  1.00  0.00     0.143 A 
HETATM   15  N5  UNL     1      49.985  41.174  72.080  1.00  0.00    -0.176 N 
ATOM     16  H5  UNL     1      50.138  40.335  72.638  1.00  0.00     0.186 HD
ENDROOT
BRANCH   1  17
HETATM   17  N1  UNL     1      48.521  41.973  73.667  1.00  0.00    -0.234 N 
ATOM     18  H12 UNL     1      48.245  42.788  74.216  1.00  0.00     0.174 HD
ATOM     19  H11 UNL     1      48.302  41.044  74.025  1.00  0.00     0.174 HD
ENDBRANCH   1  17
TORSDOF 1
ENDMDL
MODEL 3
REMARK VINA RESULT: -6.653723478      0.784      3.559
REMARK  1 active torsions:
REMARK  status: ('A' for Active; 'I' for Inactive)
REMARK    1  A    between atoms: N1_1  and  C1_4 
ROOT
HETATM    1  C1  UNL     1      49.568  40.635  72.204  1.00  0.00     0.680 A 
HETATM    2  N2  UNL     1      48.905  41.798  72.078  1.00  0.00    -0.155 N 
ATOM      3  H2  UNL     1      48.161  42.018  72.740  1.00  0.00     0.187 HD
HETATM    4  C2  UNL     1      49.194  42.682  71.104  1.00  0.00     0.279 A 
HETATM    5  O1  UNL     1      48.571  43.769  70.990  1.00  0.00    -0.266 OA
HETATM    6  C3  UNL     1      50.201  42.417  70.186  1.00  0.00     0.145 A 
HETATM    7  C4  UNL     1      50.527  43.295  69.175  1.00  0.00     0.265 A 
HETATM    8  O2  UNL     1      49.908  44.383  69.056  1.00  0.00    -0.267 OA
HETATM    9  N3  UNL     1      51.527  42.934  68.336  1.00  0.00    -0.319 N 
ATOM     10  H3  UNL     1      51.787  43.568  67.581  1.00  0.00     0.169 HD
HETATM   11  C5  UNL     1      52.190  41.774  68.460  1.00  0.00     0.184 A 
HETATM   12  N4  UNL     1      51.843  40.942  69.459  1.00  0.00    -0.337 N 
ATOM     13  H4  UNL     1      52.349  40.061  69.552  1.00  0.00     0.168 HD
HETATM   14  C6  UNL     1      50.858  41.214  70.349  1.00  0.00     0.143 A 
HETATM   15  N5  UNL     1      50.544  40.352  71.334  1.00  0.00    -0.176 N 
ATOM     16  H5  UNL     1      51.055  39.474  71.418  1.00  0.00     0.186 HD
ENDROOT
BRANCH   1  17
HETATM   17  N1  UNL     1      49.263  39.792  73.164  1.00  0.00    -0.234 N 
ATOM     18  H12 UNL     1      49.931  39.588  73.908  1.00  0.00     0.174 HD
ATOM     19  H11 UNL     1      48.355  39.329  73.179  1.00  0.00     0.174 HD
ENDBRANCH   1  17
TORSDOF 1
ENDMDL
MODEL 4
REMARK VINA RESULT: -6.249056551      1.664      2.816
REMARK  1 active torsions:
REMARK  status: ('A' for Active; 'I' for Inactive)
REMARK    1  A    between atoms: N1_1  and  C1_4 
ROOT
HETATM    1  C1  UNL     1      52.183  40.397  69.732  1.00  0.00     0.680 A 
HETATM    2  N2  UNL     1      51.442  40.160  70.830  1.00  0.00    -0.155 N 
ATOM      3  H2  UNL     1      51.606  39.306  71.362  1.00  0.00     0.187 HD
HETATM    4  C2  UNL     1      50.490  41.017  71.246  1.00  0.00     0.279 A 
HETATM    5  O1  UNL     1      49.799  40.791  72.272  1.00  0.00    -0.266 OA
HETATM    6  C3  UNL     1      50.240  42.189  70.546  1.00  0.00     0.145 A 
HETATM    7  C4  UNL     1      49.275  43.092  70.939  1.00  0.00     0.265 A 
HETATM    8  O2  UNL     1      48.582  42.872  71.965  1.00  0.00    -0.267 OA
HETATM    9  N3  UNL     1      49.117  44.203  70.181  1.00  0.00    -0.319 N 
ATOM     10  H3  UNL     1      48.409  44.885  70.453  1.00  0.00     0.169 HD
HETATM   11  C5  UNL     1      49.855  44.441  69.086  1.00  0.00     0.184 A 
HETATM   12  N4  UNL     1      50.787  43.537  68.733  1.00  0.00    -0.337 N 
ATOM     13  H4  UNL     1      51.347  43.720  67.900  1.00  0.00     0.168 HD
HETATM   14  C6  UNL     1      51.021  42.396  69.426  1.00  0.00     0.143 A 
HETATM   15  N5  UNL     1      51.964  41.518  69.037  1.00  0.00    -0.176 N 
ATOM     16  H5  UNL     1      52.519  41.711  68.203  1.00  0.00     0.186 HD
ENDROOT
BRANCH   1  17
HETATM   17  N1  UNL     1      53.103  39.542  69.350  1.00  0.00    -0.234 N 
ATOM     18  H12 UNL     1      53.056  39.105  68.429  1.00  0.00     0.174 HD
ATOM     19  H11 UNL     1      53.878  39.302  69.968  1.00  0.00     0.174 HD
ENDBRANCH   1  17
TORSDOF 1
ENDMDL
MODEL 5
REMARK VINA RESULT: -6.185824989      2.167      4.282
REMARK  1 active torsions:
REMARK  status: ('A' for Active; 'I' for Inactive)
REMARK    1  A    between atoms: N1_1  and  C1_4 
ROOT
HETATM    1  C1  UNL     1      49.265  41.856  72.566  1.00  0.00     0.680 A 
HETATM    2  N2  UNL     1      50.039  40.880  72.056  1.00  0.00    -0.155 N 
ATOM      3  H2  UNL     1      50.141  40.008  72.576  1.00  0.00     0.187 HD
HETATM    4  C2  UNL     1      50.681  41.020  70.881  1.00  0.00     0.279 A 
HETATM    5  O1  UNL     1      51.402  40.105  70.408  1.00  0.00    -0.266 OA
HETATM    6  C3  UNL     1      50.563  42.193  70.147  1.00  0.00     0.145 A 
HETATM    7  C4  UNL     1      51.204  42.374  68.940  1.00  0.00     0.265 A 
HETATM    8  O2  UNL     1      51.927  41.463  68.462  1.00  0.00    -0.267 OA
HETATM    9  N3  UNL     1      51.018  43.559  68.310  1.00  0.00    -0.319 N 
ATOM     10  H3  UNL     1      51.482  43.716  67.415  1.00  0.00     0.169 HD
HETATM   11  C5  UNL     1      50.247  44.533  68.817  1.00  0.00     0.184 A 
HETATM   12  N4  UNL     1      49.638  44.319  69.997  1.00  0.00    -0.337 N 
ATOM     13  H4  UNL     1      49.053  45.061  70.380  1.00  0.00     0.168 HD
HETATM   14  C6  UNL     1      49.761  43.169  70.704  1.00  0.00     0.143 A 
HETATM   15  N5  UNL     1      49.134  42.997  71.881  1.00  0.00    -0.176 N 
ATOM     16  H5  UNL     1      48.550  43.745  72.256  1.00  0.00     0.186 HD
ENDROOT
BRANCH   1  17
HETATM   17  N1  UNL     1      48.652  41.691  73.715  1.00  0.00    -0.234 N 
ATOM     18  H12 UNL     1      48.067  40.871  73.879  1.00  0.00     0.174 HD
ATOM     19  H11 UNL     1      48.751  42.380  74.460  1.00  0.00     0.174 HD
ENDBRANCH   1  17
TORSDOF 1
ENDMDL
