MODEL 1
REMARK VINA RESULT: -7.670535778      0.000      0.000
REMARK  0 active torsions:
REMARK  status: ('A' for Active; 'I' for Inactive)
ROOT
HETATM    1  O1  UNL     1      51.916  40.251  69.673  1.00  0.00    -0.264 OA
HETATM    2  C1  UNL     1      51.039  40.707  70.470  1.00  0.00     0.287 A 
HETATM    3  N1  UNL     1      50.582  40.014  71.518  1.00  0.00    -0.262 N 
ATOM      4  H1  UNL     1      50.962  39.081  71.673  1.00  0.00     0.190 HD
HETATM    5  N2  UNL     1      49.673  40.455  72.366  1.00  0.00    -0.263 N 
ATOM      6  H2  UNL     1      49.366  39.876  73.148  1.00  0.00     0.190 HD
HETATM    7  C2  UNL     1      49.160  41.683  72.177  1.00  0.00     0.278 A 
HETATM    8  O2  UNL     1      48.286  42.145  72.965  1.00  0.00    -0.266 OA
HETATM    9  C3  UNL     1      49.583  42.454  71.119  1.00  0.00     0.133 A 
HETATM   10  C4  UNL     1      49.053  43.714  70.930  1.00  0.00     0.264 A 
HETATM   11  O3  UNL     1      48.183  44.151  71.729  1.00  0.00    -0.267 OA
HETATM   12  N3  UNL     1      49.474  44.458  69.891  1.00  0.00    -0.319 N 
ATOM     13  H3  UNL     1      49.094  45.391  69.734  1.00  0.00     0.169 HD
HETATM   14  C5  UNL     1      50.406  43.953  69.060  1.00  0.00     0.184 A 
HETATM   15  N4  UNL     1      50.945  42.726  69.213  1.00  0.00    -0.347 N 
ATOM     16  H4  UNL     1      51.648  42.384  68.558  1.00  0.00     0.167 HD
HETATM   17  C6  UNL     1      50.541  41.963  70.243  1.00  0.00     0.124 A 
ENDROOT
TORSDOF 0
ENDMDL
MODEL 2
REMARK VINA RESULT: -7.638544090      0.879      3.119
REMARK  0 active torsions:
REMARK  status: ('A' for Active; 'I' for Inactive)
ROOT
HETATM    1  O1  UNL     1      48.144  42.738  72.735  1.00  0.00    -0.264 OA
HETATM    2  C1  UNL     1      49.008  42.087  72.071  1.00  0.00     0.287 A 
HETATM    3  N1  UNL     1      49.407  40.857  72.409  1.00  0.00    -0.262 N 
ATOM      4  H1  UNL     1      48.991  40.434  73.238  1.00  0.00     0.190 HD
HETATM    5  N2  UNL     1      50.300  40.152  71.744  1.00  0.00    -0.263 N 
ATOM      6  H2  UNL     1      50.561  39.216  72.054  1.00  0.00     0.190 HD
HETATM    7  C2  UNL     1      50.860  40.693  70.648  1.00  0.00     0.278 A 
HETATM    8  O2  UNL     1      51.722  40.053  69.980  1.00  0.00    -0.266 OA
HETATM    9  C3  UNL     1      50.499  41.956  70.239  1.00  0.00     0.133 A 
HETATM   10  C4  UNL     1      51.077  42.507  69.114  1.00  0.00     0.264 A 
HETATM   11  O3  UNL     1      51.933  41.849  68.466  1.00  0.00    -0.267 OA
HETATM   12  N3  UNL     1      50.715  43.744  68.725  1.00  0.00    -0.319 N 
ATOM     13  H3  UNL     1      51.131  44.168  67.896  1.00  0.00     0.169 HD
HETATM   14  C5  UNL     1      49.796  44.414  69.446  1.00  0.00     0.184 A 
HETATM   15  N4  UNL     1      49.211  43.908  70.550  1.00  0.00    -0.347 N 
ATOM     16  H4  UNL     1      48.519  44.452  71.066  1.00  0.00     0.167 HD
HETATM   17  C6  UNL     1      49.555  42.674  70.960  1.00  0.00     0.124 A 
ENDROOT
TORSDOF 0
ENDMDL
MODEL 3
REMARK VINA RESULT: -7.236853681      1.091      3.009
REMARK  0 active torsions:
REMARK  status: ('A' for Active; 'I' for Inactive)
ROOT
HETATM    1  O1  UNL     1      52.210  40.117  69.636  1.00  0.00    -0.264 OA
HETATM    2  C1  UNL     1      51.488  41.159  69.703  1.00  0.00     0.287 A 
HETATM    3  N1  UNL     1      51.562  42.150  68.809  1.00  0.00    -0.262 N 
ATOM      4  H1  UNL     1      52.232  42.053  68.046  1.00  0.00     0.190 HD
HETATM    5  N2  UNL     1      50.829  43.245  68.845  1.00  0.00    -0.263 N 
ATOM      6  H2  UNL     1      50.934  43.966  68.130  1.00  0.00     0.190 HD
HETATM    7  C2  UNL     1      49.941  43.392  69.844  1.00  0.00     0.278 A 
HETATM    8  O2  UNL     1      49.218  44.426  69.918  1.00  0.00    -0.266 OA
HETATM    9  C3  UNL     1      49.809  42.412  70.801  1.00  0.00     0.133 A 
HETATM   10  C4  UNL     1      48.897  42.567  71.824  1.00  0.00     0.264 A 
HETATM   11  O3  UNL     1      48.188  43.607  71.875  1.00  0.00    -0.267 OA
HETATM   12  N3  UNL     1      48.778  41.602  72.754  1.00  0.00    -0.319 N 
ATOM     13  H3  UNL     1      48.109  41.699  73.518  1.00  0.00     0.169 HD
HETATM   14  C5  UNL     1      49.554  40.506  72.662  1.00  0.00     0.184 A 
HETATM   15  N4  UNL     1      50.457  40.320  71.678  1.00  0.00    -0.347 N 
ATOM     16  H4  UNL     1      51.025  39.473  71.648  1.00  0.00     0.167 HD
HETATM   17  C6  UNL     1      50.595  41.270  70.736  1.00  0.00     0.124 A 
ENDROOT
TORSDOF 0
ENDMDL
MODEL 4
REMARK VINA RESULT: -6.828503089      0.991      4.385
REMARK  0 active torsions:
REMARK  status: ('A' for Active; 'I' for Inactive)
ROOT
HETATM    1  O1  UNL     1      48.087  44.214  71.747  1.00  0.00    -0.264 OA
HETATM    2  C1  UNL     1      48.962  43.756  70.949  1.00  0.00     0.287 A 
HETATM    3  N1  UNL     1      49.393  44.432  69.880  1.00  0.00    -0.262 N 
ATOM      4  H1  UNL     1      48.993  45.354  69.708  1.00  0.00     0.190 HD
HETATM    5  N2  UNL     1      50.300  43.989  69.031  1.00  0.00    -0.263 N 
ATOM      6  H2  UNL     1      50.586  44.556  68.233  1.00  0.00     0.190 HD
HETATM    7  C2  UNL     1      50.837  42.775  69.240  1.00  0.00     0.278 A 
HETATM    8  O2  UNL     1      51.709  42.310  68.451  1.00  0.00    -0.266 OA
HETATM    9  C3  UNL     1      50.442  42.021  70.321  1.00  0.00     0.133 A 
HETATM   10  C4  UNL     1      50.997  40.775  70.531  1.00  0.00     0.264 A 
HETATM   11  O3  UNL     1      51.864  40.335  69.731  1.00  0.00    -0.267 OA
HETATM   12  N3  UNL     1      50.602  40.047  71.592  1.00  0.00    -0.319 N 
ATOM     13  H3  UNL     1      51.000  39.124  71.764  1.00  0.00     0.169 HD
HETATM   14  C5  UNL     1      49.672  40.555  72.424  1.00  0.00     0.184 A 
HETATM   15  N4  UNL     1      49.108  41.767  72.250  1.00  0.00    -0.347 N 
ATOM     16  H4  UNL     1      48.407  42.111  72.906  1.00  0.00     0.167 HD
HETATM   17  C6  UNL     1      49.486  42.514  71.197  1.00  0.00     0.124 A 
ENDROOT
TORSDOF 0
ENDMDL
MODEL 5
REMARK VINA RESULT: -6.814504366      1.538      3.232
REMARK  0 active torsions:
REMARK  status: ('A' for Active; 'I' for Inactive)
ROOT
HETATM    1  O1  UNL     1      50.721  44.015  68.366  1.00  0.00    -0.264 OA
HETATM    2  C1  UNL     1      50.179  43.671  69.461  1.00  0.00     0.287 A 
HETATM    3  N1  UNL     1      49.344  44.466  70.139  1.00  0.00    -0.262 N 
ATOM      4  H1  UNL     1      49.143  45.386  69.748  1.00  0.00     0.190 HD
HETATM    5  N2  UNL     1      48.763  44.143  71.277  1.00  0.00    -0.263 N 
ATOM      6  H2  UNL     1      48.135  44.796  71.745  1.00  0.00     0.190 HD
HETATM    7  C2  UNL     1      49.017  42.934  71.808  1.00  0.00     0.278 A 
HETATM    8  O2  UNL     1      48.482  42.582  72.898  1.00  0.00    -0.266 OA
HETATM    9  C3  UNL     1      49.867  42.062  71.166  1.00  0.00     0.133 A 
HETATM   10  C4  UNL     1      50.124  40.823  71.715  1.00  0.00     0.264 A 
HETATM   11  O3  UNL     1      49.579  40.496  72.802  1.00  0.00    -0.267 OA
HETATM   12  N3  UNL     1      50.957  39.979  71.078  1.00  0.00    -0.319 N 
ATOM     13  H3  UNL     1      51.160  39.058  71.469  1.00  0.00     0.169 HD
HETATM   14  C5  UNL     1      51.519  40.366  69.918  1.00  0.00     0.184 A 
HETATM   15  N4  UNL     1      51.291  41.569  69.352  1.00  0.00    -0.347 N 
ATOM     16  H4  UNL     1      51.740  41.821  68.471  1.00  0.00     0.167 HD
HETATM   17  C6  UNL     1      50.463  42.431  69.969  1.00  0.00     0.124 A 
ENDROOT
TORSDOF 0
ENDMDL
