MODEL 1
REMARK VINA RESULT: -7.317032270      0.000      0.000
REMARK  1 active torsions:
REMARK  status: ('A' for Active; 'I' for Inactive)
REMARK    1  A    between atoms: N1_1  and  C1_4 
ROOT
HETATM    1  C1  UNL     1      52.405  40.561  68.900  1.00  0.00     0.680 A 
HETATM    2  N2  UNL     1      52.025  41.758  68.421  1.00  0.00    -0.155 N 
ATOM      3  H2  UNL     1      52.458  42.093  67.560  1.00  0.00     0.187 HD
HETATM    4  C2  UNL     1      51.104  42.538  69.015  1.00  0.00     0.273 A 
HETATM    5  O1  UNL     1      50.765  43.653  68.552  1.00  0.00    -0.267 OA
HETATM    6  C3  UNL     1      50.510  42.094  70.185  1.00  0.00     0.084 A 
HETATM    7  C4  UNL     1      49.559  42.869  70.825  1.00  0.00     0.096 A 
HETATM    8  C5  UNL     1      49.016  42.348  71.987  1.00  0.00     0.260 A 
HETATM    9  O2  UNL     1      48.142  43.001  72.625  1.00  0.00    -0.267 OA
HETATM   10  N3  UNL     1      49.425  41.141  72.435  1.00  0.00    -0.265 N 
ATOM     11  H3  UNL     1      49.018  40.768  73.292  1.00  0.00     0.190 HD
HETATM   12  N4  UNL     1      50.338  40.428  71.794  1.00  0.00    -0.281 N 
ATOM     13  H4  UNL     1      50.612  39.522  72.173  1.00  0.00     0.188 HD
HETATM   14  C6  UNL     1      50.913  40.860  70.662  1.00  0.00     0.151 A 
HETATM   15  N5  UNL     1      51.839  40.108  70.036  1.00  0.00    -0.174 N 
ATOM     16  H5  UNL     1      52.109  39.201  70.418  1.00  0.00     0.186 HD
ENDROOT
BRANCH   1  17
HETATM   17  N1  UNL     1      53.305  39.829  68.290  1.00  0.00    -0.234 N 
ATOM     18  H12 UNL     1      53.918  40.260  67.597  1.00  0.00     0.174 HD
ATOM     19  H11 UNL     1      53.414  38.835  68.490  1.00  0.00     0.174 HD
ENDBRANCH   1  17
TORSDOF 1
ENDMDL
MODEL 2
REMARK VINA RESULT: -6.611964541      1.459      4.108
REMARK  1 active torsions:
REMARK  status: ('A' for Active; 'I' for Inactive)
REMARK    1  A    between atoms: N1_1  and  C1_4 
ROOT
HETATM    1  C1  UNL     1      49.096  42.387  72.363  1.00  0.00     0.680 A 
HETATM    2  N2  UNL     1      49.098  43.380  71.457  1.00  0.00    -0.155 N 
ATOM      3  H2  UNL     1      48.515  44.198  71.636  1.00  0.00     0.187 HD
HETATM    4  C2  UNL     1      49.827  43.353  70.326  1.00  0.00     0.273 A 
HETATM    5  O1  UNL     1      49.814  44.289  69.493  1.00  0.00    -0.267 OA
HETATM    6  C3  UNL     1      50.622  42.247  70.073  1.00  0.00     0.084 A 
HETATM    7  C4  UNL     1      51.385  42.183  68.920  1.00  0.00     0.096 A 
HETATM    8  C5  UNL     1      52.149  41.042  68.747  1.00  0.00     0.260 A 
HETATM    9  O2  UNL     1      52.872  40.915  67.718  1.00  0.00    -0.267 OA
HETATM   10  N3  UNL     1      52.119  40.067  69.682  1.00  0.00    -0.265 N 
ATOM     11  H3  UNL     1      52.686  39.231  69.543  1.00  0.00     0.190 HD
HETATM   12  N4  UNL     1      51.376  40.164  70.773  1.00  0.00    -0.281 N 
ATOM     13  H4  UNL     1      51.388  39.401  71.448  1.00  0.00     0.188 HD
HETATM   14  C6  UNL     1      50.606  41.235  71.017  1.00  0.00     0.151 A 
HETATM   15  N5  UNL     1      49.862  41.302  72.138  1.00  0.00    -0.174 N 
ATOM     16  H5  UNL     1      49.879  40.536  72.812  1.00  0.00     0.186 HD
ENDROOT
BRANCH   1  17
HETATM   17  N1  UNL     1      48.372  42.452  73.454  1.00  0.00    -0.234 N 
ATOM     18  H12 UNL     1      47.814  43.286  73.638  1.00  0.00     0.174 HD
ATOM     19  H11 UNL     1      48.348  41.686  74.128  1.00  0.00     0.174 HD
ENDBRANCH   1  17
TORSDOF 1
ENDMDL
MODEL 3
REMARK VINA RESULT: -6.345658101      1.330      3.929
REMARK  1 active torsions:
REMARK  status: ('A' for Active; 'I' for Inactive)
REMARK    1  A    between atoms: N1_1  and  C1_4 
ROOT
HETATM    1  C1  UNL     1      49.490  40.411  72.486  1.00  0.00     0.680 A 
HETATM    2  N2  UNL     1      48.762  41.529  72.648  1.00  0.00    -0.155 N 
ATOM      3  H2  UNL     1      48.115  41.574  73.435  1.00  0.00     0.187 HD
HETATM    4  C2  UNL     1      48.840  42.592  71.827  1.00  0.00     0.273 A 
HETATM    5  O1  UNL     1      48.150  43.626  71.994  1.00  0.00    -0.267 OA
HETATM    6  C3  UNL     1      49.714  42.542  70.754  1.00  0.00     0.084 A 
HETATM    7  C4  UNL     1      49.821  43.616  69.888  1.00  0.00     0.096 A 
HETATM    8  C5  UNL     1      50.720  43.481  68.843  1.00  0.00     0.260 A 
HETATM    9  O2  UNL     1      50.871  44.421  68.013  1.00  0.00    -0.267 OA
HETATM   10  N3  UNL     1      51.434  42.341  68.716  1.00  0.00    -0.265 N 
ATOM     11  H3  UNL     1      52.092  42.253  67.943  1.00  0.00     0.190 HD
HETATM   12  N4  UNL     1      51.304  41.335  69.566  1.00  0.00    -0.281 N 
ATOM     13  H4  UNL     1      51.866  40.495  69.428  1.00  0.00     0.188 HD
HETATM   14  C6  UNL     1      50.456  41.384  70.604  1.00  0.00     0.151 A 
HETATM   15  N5  UNL     1      50.349  40.341  71.450  1.00  0.00    -0.174 N 
ATOM     16  H5  UNL     1      50.914  39.504  71.308  1.00  0.00     0.186 HD
ENDROOT
BRANCH   1  17
HETATM   17  N1  UNL     1      49.386  39.396  73.310  1.00  0.00    -0.234 N 
ATOM     18  H12 UNL     1      48.470  38.980  73.482  1.00  0.00     0.174 HD
ATOM     19  H11 UNL     1      50.200  39.006  73.785  1.00  0.00     0.174 HD
ENDBRANCH   1  17
TORSDOF 1
ENDMDL
MODEL 4
REMARK VINA RESULT: -6.306002488      2.708      4.388
REMARK  1 active torsions:
REMARK  status: ('A' for Active; 'I' for Inactive)
REMARK    1  A    between atoms: N1_1  and  C1_4 
ROOT
HETATM    1  C1  UNL     1      49.839  41.418  72.001  1.00  0.00     0.680 A 
HETATM    2  N2  UNL     1      50.259  40.692  70.951  1.00  0.00    -0.155 N 
ATOM      3  H2  UNL     1      49.707  39.880  70.674  1.00  0.00     0.187 HD
HETATM    4  C2  UNL     1      51.368  40.978  70.246  1.00  0.00     0.273 A 
HETATM    5  O1  UNL     1      51.743  40.287  69.270  1.00  0.00    -0.267 OA
HETATM    6  C3  UNL     1      52.126  42.078  70.614  1.00  0.00     0.084 A 
HETATM    7  C4  UNL     1      53.274  42.403  69.913  1.00  0.00     0.096 A 
HETATM    8  C5  UNL     1      53.969  43.518  70.348  1.00  0.00     0.260 A 
HETATM    9  O2  UNL     1      55.027  43.875  69.755  1.00  0.00    -0.267 OA
HETATM   10  N3  UNL     1      53.513  44.221  71.408  1.00  0.00    -0.265 N 
ATOM     11  H3  UNL     1      54.034  45.040  71.720  1.00  0.00     0.190 HD
HETATM   12  N4  UNL     1      52.410  43.878  72.054  1.00  0.00    -0.281 N 
ATOM     13  H4  UNL     1      52.107  44.442  72.847  1.00  0.00     0.188 HD
HETATM   14  C6  UNL     1      51.677  42.813  71.697  1.00  0.00     0.151 A 
HETATM   15  N5  UNL     1      50.559  42.493  72.377  1.00  0.00    -0.174 N 
ATOM     16  H5  UNL     1      50.260  43.061  73.170  1.00  0.00     0.186 HD
ENDROOT
BRANCH   1  17
HETATM   17  N1  UNL     1      48.750  41.106  72.663  1.00  0.00    -0.234 N 
ATOM     18  H12 UNL     1      48.539  40.126  72.850  1.00  0.00     0.174 HD
ATOM     19  H11 UNL     1      48.105  41.821  73.000  1.00  0.00     0.174 HD
ENDBRANCH   1  17
TORSDOF 1
ENDMDL
MODEL 5
REMARK VINA RESULT: -6.183962145      2.421      2.597
REMARK  1 active torsions:
REMARK  status: ('A' for Active; 'I' for Inactive)
REMARK    1  A    between atoms: N1_1  and  C1_4 
ROOT
HETATM    1  C1  UNL     1      54.172  41.143  70.830  1.00  0.00     0.680 A 
HETATM    2  N2  UNL     1      53.450  40.510  69.890  1.00  0.00    -0.155 N 
ATOM      3  H2  UNL     1      53.893  39.755  69.368  1.00  0.00     0.187 HD
HETATM    4  C2  UNL     1      52.172  40.820  69.600  1.00  0.00     0.273 A 
HETATM    5  O1  UNL     1      51.516  40.217  68.719  1.00  0.00    -0.267 OA
HETATM    6  C3  UNL     1      51.560  41.844  70.303  1.00  0.00     0.084 A 
HETATM    7  C4  UNL     1      50.248  42.191  70.032  1.00  0.00     0.096 A 
HETATM    8  C5  UNL     1      49.715  43.226  70.782  1.00  0.00     0.260 A 
HETATM    9  O2  UNL     1      48.522  43.597  70.590  1.00  0.00    -0.267 OA
HETATM   10  N3  UNL     1      50.474  43.836  71.718  1.00  0.00    -0.265 N 
ATOM     11  H3  UNL     1      50.071  44.597  72.263  1.00  0.00     0.190 HD
HETATM   12  N4  UNL     1      51.727  43.476  71.948  1.00  0.00    -0.281 N 
ATOM     13  H4  UNL     1      52.258  43.967  72.666  1.00  0.00     0.188 HD
HETATM   14  C6  UNL     1      52.319  42.484  71.267  1.00  0.00     0.151 A 
HETATM   15  N5  UNL     1      53.596  42.143  71.527  1.00  0.00    -0.174 N 
ATOM     16  H5  UNL     1      54.124  42.637  72.247  1.00  0.00     0.186 HD
ENDROOT
BRANCH   1  17
HETATM   17  N1  UNL     1      55.415  40.811  71.084  1.00  0.00    -0.234 N 
ATOM     18  H12 UNL     1      55.695  39.831  71.027  1.00  0.00     0.174 HD
ATOM     19  H11 UNL     1      56.115  41.508  71.336  1.00  0.00     0.174 HD
ENDBRANCH   1  17
TORSDOF 1
ENDMDL
