MODEL 1
REMARK VINA RESULT: -6.739571337      0.000      0.000
REMARK  1 active torsions:
REMARK  status: ('A' for Active; 'I' for Inactive)
REMARK    1  A    between atoms: N1_1  and  C1_4 
ROOT
HETATM    1  C1  UNL     1      50.637  43.059  69.492  1.00  0.00     0.134 A 
HETATM    2  N2  UNL     1      51.440  42.484  68.574  1.00  0.00    -0.293 N 
ATOM      3  H2  UNL     1      51.724  43.036  67.764  1.00  0.00     0.172 HD
HETATM    4  C2  UNL     1      51.885  41.218  68.673  1.00  0.00     0.327 A 
HETATM    5  O1  UNL     1      52.639  40.733  67.773  1.00  0.00    -0.247 OA
HETATM    6  N3  UNL     1      51.502  40.510  69.744  1.00  0.00    -0.292 N 
ATOM      7  H3  UNL     1      51.826  39.548  69.845  1.00  0.00     0.172 HD
HETATM    8  C3  UNL     1      50.700  41.036  70.694  1.00  0.00     0.140 A 
HETATM    9  N4  UNL     1      50.340  40.280  71.759  1.00  0.00    -0.345 N 
ATOM     10  H4  UNL     1      50.680  39.321  71.830  1.00  0.00     0.167 HD
HETATM   11  C4  UNL     1      49.546  40.768  72.722  1.00  0.00     0.164 A 
HETATM   12  C5  UNL     1      49.100  42.068  72.600  1.00  0.00     0.261 A 
HETATM   13  O2  UNL     1      48.341  42.579  73.492  1.00  0.00    -0.267 OA
HETATM   14  N5  UNL     1      49.449  42.832  71.548  1.00  0.00    -0.316 N 
ATOM     15  H5  UNL     1      49.106  43.789  71.482  1.00  0.00     0.169 HD
HETATM   16  C6  UNL     1      50.253  42.335  70.577  1.00  0.00     0.124 A 
ENDROOT
BRANCH   1  17
HETATM   17  N1  UNL     1      50.273  44.252  69.309  1.00  0.00    -0.383 N 
ATOM     18  H12 UNL     1      50.712  45.039  69.787  1.00  0.00     0.157 HD
ATOM     19  H11 UNL     1      49.511  44.432  68.656  1.00  0.00     0.157 HD
ENDBRANCH   1  17
TORSDOF 1
ENDMDL
MODEL 2
REMARK VINA RESULT: -6.714253470      2.296      4.506
REMARK  1 active torsions:
REMARK  status: ('A' for Active; 'I' for Inactive)
REMARK    1  A    between atoms: N1_1  and  C1_4 
ROOT
HETATM    1  C1  UNL     1      50.522  41.349  71.264  1.00  0.00     0.134 A 
HETATM    2  N2  UNL     1      49.384  42.060  71.128  1.00  0.00    -0.293 N 
ATOM      3  H2  UNL     1      48.498  41.603  71.341  1.00  0.00     0.172 HD
HETATM    4  C2  UNL     1      49.362  43.344  70.725  1.00  0.00     0.327 A 
HETATM    5  O1  UNL     1      48.256  43.961  70.615  1.00  0.00    -0.247 OA
HETATM    6  N3  UNL     1      50.537  43.928  70.452  1.00  0.00    -0.292 N 
ATOM      7  H3  UNL     1      50.549  44.901  70.146  1.00  0.00     0.172 HD
HETATM    8  C3  UNL     1      51.705  43.263  70.571  1.00  0.00     0.140 A 
HETATM    9  N4  UNL     1      52.868  43.895  70.283  1.00  0.00    -0.345 N 
ATOM     10  H4  UNL     1      52.845  44.868  69.978  1.00  0.00     0.167 HD
HETATM   11  C4  UNL     1      54.047  43.268  70.391  1.00  0.00     0.164 A 
HETATM   12  C5  UNL     1      54.047  41.952  70.804  1.00  0.00     0.261 A 
HETATM   13  O2  UNL     1      55.146  41.310  70.922  1.00  0.00    -0.267 OA
HETATM   14  N5  UNL     1      52.901  41.309  71.094  1.00  0.00    -0.316 N 
ATOM     15  H5  UNL     1      52.929  40.336  71.398  1.00  0.00     0.169 HD
HETATM   16  C6  UNL     1      51.711  41.947  70.985  1.00  0.00     0.124 A 
ENDROOT
BRANCH   1  17
HETATM   17  N1  UNL     1      50.438  40.151  71.647  1.00  0.00    -0.383 N 
ATOM     18  H12 UNL     1      49.572  39.748  72.002  1.00  0.00     0.157 HD
ATOM     19  H11 UNL     1      51.272  39.566  71.598  1.00  0.00     0.157 HD
ENDBRANCH   1  17
TORSDOF 1
ENDMDL
MODEL 3
REMARK VINA RESULT: -6.585412353      0.854      4.033
REMARK  1 active torsions:
REMARK  status: ('A' for Active; 'I' for Inactive)
REMARK    1  A    between atoms: N1_1  and  C1_4 
ROOT
HETATM    1  C1  UNL     1      49.903  43.499  70.296  1.00  0.00     0.134 A 
HETATM    2  N2  UNL     1      49.173  43.576  71.427  1.00  0.00    -0.293 N 
ATOM      3  H2  UNL     1      48.677  44.445  71.626  1.00  0.00     0.172 HD
HETATM    4  C2  UNL     1      49.066  42.563  72.306  1.00  0.00     0.327 A 
HETATM    5  O1  UNL     1      48.362  42.698  73.356  1.00  0.00    -0.247 OA
HETATM    6  N3  UNL     1      49.723  41.429  72.026  1.00  0.00    -0.292 N 
ATOM      7  H3  UNL     1      49.658  40.644  72.675  1.00  0.00     0.172 HD
HETATM    8  C3  UNL     1      50.468  41.297  70.909  1.00  0.00     0.140 A 
HETATM    9  N4  UNL     1      51.114  40.131  70.669  1.00  0.00    -0.345 N 
ATOM     10  H4  UNL     1      51.030  39.366  71.338  1.00  0.00     0.167 HD
HETATM   11  C4  UNL     1      51.862  39.963  69.570  1.00  0.00     0.164 A 
HETATM   12  C5  UNL     1      51.959  41.015  68.683  1.00  0.00     0.261 A 
HETATM   13  O2  UNL     1      52.661  40.904  67.620  1.00  0.00    -0.267 OA
HETATM   14  N5  UNL     1      51.323  42.180  68.906  1.00  0.00    -0.316 N 
ATOM     15  H5  UNL     1      51.412  42.942  68.234  1.00  0.00     0.169 HD
HETATM   16  C6  UNL     1      50.567  42.346  70.018  1.00  0.00     0.124 A 
ENDROOT
BRANCH   1  17
HETATM   17  N1  UNL     1      49.941  44.504  69.536  1.00  0.00    -0.383 N 
ATOM     18  H12 UNL     1      50.454  45.353  69.774  1.00  0.00     0.157 HD
ATOM     19  H11 UNL     1      49.438  44.462  68.650  1.00  0.00     0.157 HD
ENDBRANCH   1  17
TORSDOF 1
ENDMDL
MODEL 4
REMARK VINA RESULT: -6.550033613      1.226      4.563
REMARK  1 active torsions:
REMARK  status: ('A' for Active; 'I' for Inactive)
REMARK    1  A    between atoms: N1_1  and  C1_4 
ROOT
HETATM    1  C1  UNL     1      49.743  40.933  71.942  1.00  0.00     0.134 A 
HETATM    2  N2  UNL     1      48.909  41.946  72.254  1.00  0.00    -0.293 N 
ATOM      3  H2  UNL     1      48.272  41.826  73.041  1.00  0.00     0.172 HD
HETATM    4  C2  UNL     1      48.876  43.108  71.577  1.00  0.00     0.327 A 
HETATM    5  O1  UNL     1      48.066  44.026  71.919  1.00  0.00    -0.247 OA
HETATM    6  N3  UNL     1      49.722  43.249  70.547  1.00  0.00    -0.292 N 
ATOM      7  H3  UNL     1      49.720  44.121  70.017  1.00  0.00     0.172 HD
HETATM    8  C3  UNL     1      50.578  42.267  70.191  1.00  0.00     0.140 A 
HETATM    9  N4  UNL     1      51.414  42.455  69.143  1.00  0.00    -0.345 N 
ATOM     10  H4  UNL     1      51.386  43.338  68.633  1.00  0.00     0.167 HD
HETATM   11  C4  UNL     1      52.278  41.504  68.762  1.00  0.00     0.164 A 
HETATM   12  C5  UNL     1      52.294  40.320  69.468  1.00  0.00     0.261 A 
HETATM   13  O2  UNL     1      53.099  39.382  69.144  1.00  0.00    -0.267 OA
HETATM   14  N5  UNL     1      51.470  40.117  70.513  1.00  0.00    -0.316 N 
ATOM     15  H5  UNL     1      51.502  39.232  71.019  1.00  0.00     0.169 HD
HETATM   16  C6  UNL     1      50.598  41.081  70.896  1.00  0.00     0.124 A 
ENDROOT
BRANCH   1  17
HETATM   17  N1  UNL     1      49.697  39.883  72.638  1.00  0.00    -0.383 N 
ATOM     18  H12 UNL     1      48.819  39.425  72.883  1.00  0.00     0.157 HD
ATOM     19  H11 UNL     1      50.574  39.478  72.964  1.00  0.00     0.157 HD
ENDBRANCH   1  17
TORSDOF 1
ENDMDL
MODEL 5
REMARK VINA RESULT: -6.404848720      1.784      4.273
REMARK  1 active torsions:
REMARK  status: ('A' for Active; 'I' for Inactive)
REMARK    1  A    between atoms: N1_1  and  C1_4 
ROOT
HETATM    1  C1  UNL     1      51.741  43.244  71.699  1.00  0.00     0.134 A 
HETATM    2  N2  UNL     1      50.499  43.601  72.085  1.00  0.00    -0.293 N 
ATOM      3  H2  UNL     1      50.398  44.372  72.745  1.00  0.00     0.172 HD
HETATM    4  C2  UNL     1      49.385  42.989  71.642  1.00  0.00     0.327 A 
HETATM    5  O1  UNL     1      48.242  43.370  72.044  1.00  0.00    -0.247 OA
HETATM    6  N3  UNL     1      49.538  41.979  70.774  1.00  0.00    -0.292 N 
ATOM      7  H3  UNL     1      48.710  41.498  70.421  1.00  0.00     0.172 HD
HETATM    8  C3  UNL     1      50.757  41.581  70.354  1.00  0.00     0.140 A 
HETATM    9  N4  UNL     1      50.861  40.555  69.476  1.00  0.00    -0.345 N 
ATOM     10  H4  UNL     1      50.014  40.095  69.143  1.00  0.00     0.167 HD
HETATM   11  C4  UNL     1      52.054  40.134  69.035  1.00  0.00     0.164 A 
HETATM   12  C5  UNL     1      53.183  40.774  69.503  1.00  0.00     0.261 A 
HETATM   13  O2  UNL     1      54.344  40.409  69.114  1.00  0.00    -0.267 OA
HETATM   14  N5  UNL     1      53.097  41.795  70.376  1.00  0.00    -0.316 N 
ATOM     15  H5  UNL     1      53.947  42.251  70.706  1.00  0.00     0.169 HD
HETATM   16  C6  UNL     1      51.889  42.219  70.818  1.00  0.00     0.124 A 
ENDROOT
BRANCH   1  17
HETATM   17  N1  UNL     1      52.722  43.880  72.171  1.00  0.00    -0.383 N 
ATOM     18  H12 UNL     1      53.556  44.088  71.624  1.00  0.00     0.157 HD
ATOM     19  H11 UNL     1      52.673  44.198  73.139  1.00  0.00     0.157 HD
ENDBRANCH   1  17
TORSDOF 1
ENDMDL
