MODEL 1
REMARK VINA RESULT: -7.337395058      0.000      0.000
REMARK  1 active torsions:
REMARK  status: ('A' for Active; 'I' for Inactive)
REMARK       I    between atoms: N2_4  and  C1_6 
REMARK       I    between atoms: C1_6  and  N3_8 
REMARK    1  A    between atoms: N3_8  and  C2_10 
ROOT
HETATM    1  C2  UNL     1      50.795  42.453  71.572  1.00  0.00     0.704 A 
HETATM    2  N4  UNL     1      50.424  43.677  71.146  1.00  0.00    -0.129 N 
ATOM      3  H4  UNL     1      49.977  44.308  71.810  1.00  0.00     0.205 HD
HETATM    4  N5  UNL     1      50.612  44.096  69.912  1.00  0.00    -0.247 N 
ATOM      5  H5  UNL     1      50.317  45.030  69.627  1.00  0.00     0.191 HD
HETATM    6  C3  UNL     1      51.208  43.258  69.027  1.00  0.00     0.329 A 
HETATM    7  O2  UNL     1      51.405  43.627  67.831  1.00  0.00    -0.261 OA
HETATM    8  C4  UNL     1      51.603  41.995  69.422  1.00  0.00     0.329 A 
HETATM    9  O3  UNL     1      52.164  41.197  68.600  1.00  0.00    -0.261 OA
HETATM   10  N6  UNL     1      51.375  41.637  70.707  1.00  0.00    -0.150 N 
ATOM     11  H6  UNL     1      51.660  40.709  71.019  1.00  0.00     0.188 HD
ENDROOT
BRANCH   1  12
HETATM   12  N3  UNL     1      50.579  42.128  72.768  1.00  0.00    -0.139 N 
HETATM   13  C1  UNL     1      49.422  41.643  73.362  1.00  0.00     0.352 C 
HETATM   14  N2  UNL     1      48.905  40.339  73.276  1.00  0.00    -0.258 N 
HETATM   15  O1  UNL     1      48.745  42.462  74.066  1.00  0.00    -0.245 OA
HETATM   16  N1  UNL     1      49.560  39.286  73.168  1.00  0.00    -0.341 N 
ATOM     17  H2  UNL     1      47.889  40.245  73.305  1.00  0.00     0.191 HD
ATOM     18  H12 UNL     1      50.574  39.399  73.140  1.00  0.00     0.177 HD
ATOM     19  H11 UNL     1      49.185  38.340  73.105  1.00  0.00     0.177 HD
ATOM     20  H3  UNL     1      51.375  42.238  73.397  1.00  0.00     0.189 HD
ENDBRANCH   1  12
TORSDOF 1
ENDMDL
MODEL 2
REMARK VINA RESULT: -6.947351359      2.020      2.607
REMARK  1 active torsions:
REMARK  status: ('A' for Active; 'I' for Inactive)
REMARK       I    between atoms: N2_4  and  C1_6 
REMARK       I    between atoms: C1_6  and  N3_8 
REMARK    1  A    between atoms: N3_8  and  C2_10 
ROOT
HETATM    1  C2  UNL     1      51.700  42.335  72.161  1.00  0.00     0.704 A 
HETATM    2  N4  UNL     1      52.111  41.108  71.784  1.00  0.00    -0.129 N 
ATOM      3  H4  UNL     1      51.624  40.295  72.161  1.00  0.00     0.205 HD
HETATM    4  N5  UNL     1      53.112  40.910  70.951  1.00  0.00    -0.247 N 
ATOM      5  H5  UNL     1      53.394  39.965  70.690  1.00  0.00     0.191 HD
HETATM    6  C3  UNL     1      53.760  41.991  70.449  1.00  0.00     0.329 A 
HETATM    7  O2  UNL     1      54.728  41.837  69.645  1.00  0.00    -0.261 OA
HETATM    8  C4  UNL     1      53.372  43.265  70.810  1.00  0.00     0.329 A 
HETATM    9  O3  UNL     1      53.972  44.290  70.345  1.00  0.00    -0.261 OA
HETATM   10  N6  UNL     1      52.334  43.388  71.670  1.00  0.00    -0.150 N 
ATOM     11  H6  UNL     1      52.031  44.321  71.948  1.00  0.00     0.188 HD
ENDROOT
BRANCH   1  12
HETATM   12  N3  UNL     1      50.735  42.440  72.962  1.00  0.00    -0.139 N 
HETATM   13  C1  UNL     1      49.387  42.171  72.767  1.00  0.00     0.352 C 
HETATM   14  N2  UNL     1      48.769  40.909  72.728  1.00  0.00    -0.258 N 
HETATM   15  O1  UNL     1      48.614  43.171  72.605  1.00  0.00    -0.245 OA
HETATM   16  N1  UNL     1      49.111  39.895  73.365  1.00  0.00    -0.341 N 
ATOM     17  H2  UNL     1      47.958  40.814  72.117  1.00  0.00     0.191 HD
ATOM     18  H12 UNL     1      49.925  40.009  73.970  1.00  0.00     0.177 HD
ATOM     19  H11 UNL     1      48.663  38.980  73.337  1.00  0.00     0.177 HD
ATOM     20  H3  UNL     1      50.979  42.774  73.893  1.00  0.00     0.189 HD
ENDBRANCH   1  12
TORSDOF 1
ENDMDL
MODEL 3
REMARK VINA RESULT: -6.762529877      1.916      4.818
REMARK  1 active torsions:
REMARK  status: ('A' for Active; 'I' for Inactive)
REMARK       I    between atoms: N2_4  and  C1_6 
REMARK       I    between atoms: C1_6  and  N3_8 
REMARK    1  A    between atoms: N3_8  and  C2_10 
ROOT
HETATM    1  C2  UNL     1      50.704  40.637  70.734  1.00  0.00     0.704 A 
HETATM    2  N4  UNL     1      50.515  39.987  71.900  1.00  0.00    -0.129 N 
ATOM      3  H4  UNL     1      50.928  39.061  72.011  1.00  0.00     0.205 HD
HETATM    4  N5  UNL     1      49.824  40.491  72.901  1.00  0.00    -0.247 N 
ATOM      5  H5  UNL     1      49.704  39.966  73.768  1.00  0.00     0.191 HD
HETATM    6  C3  UNL     1      49.276  41.723  72.754  1.00  0.00     0.329 A 
HETATM    7  O2  UNL     1      48.604  42.239  73.697  1.00  0.00    -0.261 OA
HETATM    8  C4  UNL     1      49.444  42.424  71.576  1.00  0.00     0.329 A 
HETATM    9  O3  UNL     1      48.933  43.583  71.424  1.00  0.00    -0.261 OA
HETATM   10  N6  UNL     1      50.167  41.839  70.593  1.00  0.00    -0.150 N 
ATOM     11  H6  UNL     1      50.304  42.340  69.716  1.00  0.00     0.188 HD
ENDROOT
BRANCH   1  12
HETATM   12  N3  UNL     1      51.377  40.087  69.825  1.00  0.00    -0.139 N 
HETATM   13  C1  UNL     1      52.517  40.534  69.170  1.00  0.00     0.352 C 
HETATM   14  N2  UNL     1      53.833  40.544  69.663  1.00  0.00    -0.258 N 
HETATM   15  O1  UNL     1      52.364  40.988  67.988  1.00  0.00    -0.245 OA
HETATM   16  N1  UNL     1      54.335  39.724  70.453  1.00  0.00    -0.341 N 
ATOM     17  H2  UNL     1      54.437  41.300  69.341  1.00  0.00     0.191 HD
ATOM     18  H12 UNL     1      53.716  38.975  70.765  1.00  0.00     0.177 HD
ATOM     19  H11 UNL     1      55.290  39.731  70.811  1.00  0.00     0.177 HD
ATOM     20  H3  UNL     1      51.034  39.175  69.524  1.00  0.00     0.189 HD
ENDBRANCH   1  12
TORSDOF 1
ENDMDL
MODEL 4
REMARK VINA RESULT: -6.720968439      2.053      2.084
REMARK  1 active torsions:
REMARK  status: ('A' for Active; 'I' for Inactive)
REMARK       I    between atoms: N2_4  and  C1_6 
REMARK       I    between atoms: C1_6  and  N3_8 
REMARK    1  A    between atoms: N3_8  and  C2_10 
ROOT
HETATM    1  C2  UNL     1      51.728  42.388  72.289  1.00  0.00     0.704 A 
HETATM    2  N4  UNL     1      52.389  43.544  72.076  1.00  0.00    -0.129 N 
ATOM      3  H4  UNL     1      52.083  44.377  72.579  1.00  0.00     0.205 HD
HETATM    4  N5  UNL     1      53.409  43.647  71.250  1.00  0.00    -0.247 N 
ATOM      5  H5  UNL     1      53.882  44.542  71.116  1.00  0.00     0.191 HD
HETATM    6  C3  UNL     1      53.816  42.540  70.582  1.00  0.00     0.329 A 
HETATM    7  O2  UNL     1      54.794  42.603  69.778  1.00  0.00    -0.261 OA
HETATM    8  C4  UNL     1      53.167  41.335  70.769  1.00  0.00     0.329 A 
HETATM    9  O3  UNL     1      53.540  40.286  70.147  1.00  0.00    -0.261 OA
HETATM   10  N6  UNL     1      52.128  41.309  71.635  1.00  0.00    -0.150 N 
ATOM     11  H6  UNL     1      51.636  40.429  71.789  1.00  0.00     0.188 HD
ENDROOT
BRANCH   1  12
HETATM   12  N3  UNL     1      50.763  42.371  73.095  1.00  0.00    -0.139 N 
HETATM   13  C1  UNL     1      49.437  42.014  72.886  1.00  0.00     0.352 C 
HETATM   14  N2  UNL     1      48.915  40.714  72.770  1.00  0.00    -0.258 N 
HETATM   15  O1  UNL     1      48.591  42.961  72.786  1.00  0.00    -0.245 OA
HETATM   16  N1  UNL     1      49.336  39.691  73.342  1.00  0.00    -0.341 N 
ATOM     17  H2  UNL     1      48.110  40.596  72.155  1.00  0.00     0.191 HD
ATOM     18  H12 UNL     1      50.142  39.828  73.952  1.00  0.00     0.177 HD
ATOM     19  H11 UNL     1      48.958  38.748  73.258  1.00  0.00     0.177 HD
ATOM     20  H3  UNL     1      50.987  42.665  74.046  1.00  0.00     0.189 HD
ENDBRANCH   1  12
TORSDOF 1
ENDMDL
MODEL 5
REMARK VINA RESULT: -6.451399990      4.431      5.890
REMARK  1 active torsions:
REMARK  status: ('A' for Active; 'I' for Inactive)
REMARK       I    between atoms: N2_4  and  C1_6 
REMARK       I    between atoms: C1_6  and  N3_8 
REMARK    1  A    between atoms: N3_8  and  C2_10 
ROOT
HETATM    1  C2  UNL     1      53.756  39.063  69.519  1.00  0.00     0.704 A 
HETATM    2  N4  UNL     1      53.340  38.536  68.350  1.00  0.00    -0.129 N 
ATOM      3  H4  UNL     1      52.625  39.033  67.820  1.00  0.00     0.205 HD
HETATM    4  N5  UNL     1      53.814  37.409  67.861  1.00  0.00    -0.247 N 
ATOM      5  H5  UNL     1      53.473  37.042  66.972  1.00  0.00     0.191 HD
HETATM    6  C3  UNL     1      54.766  36.747  68.565  1.00  0.00     0.329 A 
HETATM    7  O2  UNL     1      55.244  35.659  68.124  1.00  0.00    -0.261 OA
HETATM    8  C4  UNL     1      55.220  37.251  69.767  1.00  0.00     0.329 A 
HETATM    9  O3  UNL     1      56.114  36.638  70.439  1.00  0.00    -0.261 OA
HETATM   10  N6  UNL     1      54.684  38.414  70.204  1.00  0.00    -0.150 N 
ATOM     11  H6  UNL     1      55.007  38.805  71.089  1.00  0.00     0.188 HD
ENDROOT
BRANCH   1  12
HETATM   12  N3  UNL     1      53.253  40.145  69.918  1.00  0.00    -0.139 N 
HETATM   13  C1  UNL     1      51.979  40.659  69.717  1.00  0.00     0.352 C 
HETATM   14  N2  UNL     1      50.793  40.270  70.362  1.00  0.00    -0.258 N 
HETATM   15  O1  UNL     1      51.860  41.590  68.854  1.00  0.00    -0.245 OA
HETATM   16  N1  UNL     1      50.685  39.855  71.531  1.00  0.00    -0.341 N 
ATOM     17  H2  UNL     1      49.933  40.334  69.817  1.00  0.00     0.191 HD
ATOM     18  H12 UNL     1      51.556  39.797  72.060  1.00  0.00     0.177 HD
ATOM     19  H11 UNL     1      49.825  39.572  71.999  1.00  0.00     0.177 HD
ATOM     20  H3  UNL     1      53.875  40.732  70.473  1.00  0.00     0.189 HD
ENDBRANCH   1  12
TORSDOF 1
ENDMDL
