MODEL 1
REMARK VINA RESULT: -5.041753302      0.000      0.000
REMARK  4 active torsions:
REMARK  status: ('A' for Active; 'I' for Inactive)
REMARK    1  A    between atoms: N3_4  and  N4_6 
REMARK    2  A    between atoms: N4_6  and  C2_8 
REMARK    3  A    between atoms: C2_8  and  N5_10 
REMARK    4  A    between atoms: C3_12  and  O1_14 
ROOT
HETATM    1  C2  UNL     1      51.717  40.814  70.425  1.00  0.00     0.193 C 
HETATM    2  S1  UNL     1      52.139  40.124  69.005  1.00  0.00    -0.039 SA
ENDROOT
BRANCH   1   3
HETATM    3  N4  UNL     1      50.351  40.854  70.770  1.00  0.00    -0.274 N 
ATOM      4  H4  UNL     1      49.664  40.692  70.033  1.00  0.00     0.189 HD
BRANCH   3   5
HETATM    5  N3  UNL     1      49.891  41.099  72.051  1.00  0.00    -0.274 N 
HETATM    6  C1  UNL     1      49.233  42.158  72.321  1.00  0.00     0.215 C 
HETATM    7  N1  UNL     1      48.977  43.085  71.288  1.00  0.00    -0.065 NA
HETATM    8  N2  UNL     1      48.784  42.364  73.647  1.00  0.00    -0.065 NA
ATOM      9  H3  UNL     1      50.082  40.423  72.791  1.00  0.00     0.189 HD
ENDBRANCH   3   5
ENDBRANCH   1   3
BRANCH   1  10
HETATM   10  N5  UNL     1      52.695  41.360  71.295  1.00  0.00    -0.300 N 
HETATM   11  C3  UNL     1      52.784  42.661  71.410  1.00  0.00     0.231 C 
HETATM   12  N6  UNL     1      53.776  43.161  72.293  1.00  0.00    -0.056 NA
ATOM     13  H5  UNL     1      53.318  40.749  71.823  1.00  0.00     0.171 HD
BRANCH  11  14
HETATM   14  O1  UNL     1      51.934  43.489  70.692  1.00  0.00    -0.335 OA
ATOM     15  H1  UNL     1      51.346  44.083  71.144  1.00  0.00     0.220 HD
ENDBRANCH  11  14
ENDBRANCH   1  10
TORSDOF 4
ENDMDL
MODEL 2
REMARK VINA RESULT: -5.038070581      2.127      2.767
REMARK  4 active torsions:
REMARK  status: ('A' for Active; 'I' for Inactive)
REMARK    1  A    between atoms: N3_4  and  N4_6 
REMARK    2  A    between atoms: N4_6  and  C2_8 
REMARK    3  A    between atoms: C2_8  and  N5_10 
REMARK    4  A    between atoms: C3_12  and  O1_14 
ROOT
HETATM    1  C2  UNL     1      52.426  42.906  70.849  1.00  0.00     0.193 C 
HETATM    2  S1  UNL     1      53.854  43.221  71.579  1.00  0.00    -0.039 SA
ENDROOT
BRANCH   1   3
HETATM    3  N4  UNL     1      51.275  43.571  71.318  1.00  0.00    -0.274 N 
ATOM      4  H4  UNL     1      50.892  44.328  70.753  1.00  0.00     0.189 HD
BRANCH   3   5
HETATM    5  N3  UNL     1      50.636  43.251  72.503  1.00  0.00    -0.274 N 
HETATM    6  C1  UNL     1      49.472  42.729  72.501  1.00  0.00     0.215 C 
HETATM    7  N1  UNL     1      48.837  42.479  71.265  1.00  0.00    -0.065 NA
HETATM    8  N2  UNL     1      48.860  42.420  73.738  1.00  0.00    -0.065 NA
ATOM      9  H3  UNL     1      51.102  43.436  73.391  1.00  0.00     0.189 HD
ENDBRANCH   3   5
ENDBRANCH   1   3
BRANCH   1  10
HETATM   10  N5  UNL     1      52.339  41.990  69.771  1.00  0.00    -0.300 N 
HETATM   11  C3  UNL     1      51.861  40.792  69.994  1.00  0.00     0.231 C 
HETATM   12  N6  UNL     1      51.793  39.912  68.884  1.00  0.00    -0.056 NA
ATOM     13  H5  UNL     1      52.644  42.260  68.835  1.00  0.00     0.171 HD
BRANCH  11  14
HETATM   14  O1  UNL     1      51.448  40.427  71.267  1.00  0.00    -0.335 OA
ATOM     15  H1  UNL     1      51.140  39.545  71.438  1.00  0.00     0.220 HD
ENDBRANCH  11  14
ENDBRANCH   1  10
TORSDOF 4
ENDMDL
MODEL 3
REMARK VINA RESULT: -4.801260181      0.685      1.045
REMARK  4 active torsions:
REMARK  status: ('A' for Active; 'I' for Inactive)
REMARK    1  A    between atoms: N3_4  and  N4_6 
REMARK    2  A    between atoms: N4_6  and  C2_8 
REMARK    3  A    between atoms: C2_8  and  N5_10 
REMARK    4  A    between atoms: C3_12  and  O1_14 
ROOT
HETATM    1  C2  UNL     1      51.687  40.791  70.447  1.00  0.00     0.193 C 
HETATM    2  S1  UNL     1      52.204  40.163  69.030  1.00  0.00    -0.039 SA
ENDROOT
BRANCH   1   3
HETATM    3  N4  UNL     1      50.301  40.802  70.708  1.00  0.00    -0.274 N 
ATOM      4  H4  UNL     1      49.802  39.912  70.699  1.00  0.00     0.189 HD
BRANCH   3   5
HETATM    5  N3  UNL     1      49.582  41.953  70.975  1.00  0.00    -0.274 N 
HETATM    6  C1  UNL     1      49.280  42.275  72.172  1.00  0.00     0.215 C 
HETATM    7  N1  UNL     1      49.691  41.436  73.230  1.00  0.00    -0.065 NA
HETATM    8  N2  UNL     1      48.543  43.462  72.395  1.00  0.00    -0.065 NA
ATOM      9  H3  UNL     1      49.289  42.553  70.204  1.00  0.00     0.189 HD
ENDBRANCH   3   5
ENDBRANCH   1   3
BRANCH   1  10
HETATM   10  N5  UNL     1      52.601  41.312  71.397  1.00  0.00    -0.300 N 
HETATM   11  C3  UNL     1      52.833  42.600  71.413  1.00  0.00     0.231 C 
HETATM   12  N6  UNL     1      53.755  43.075  72.381  1.00  0.00    -0.056 NA
ATOM     13  H5  UNL     1      53.072  40.693  72.058  1.00  0.00     0.171 HD
BRANCH  11  14
HETATM   14  O1  UNL     1      52.192  43.440  70.514  1.00  0.00    -0.335 OA
ATOM     15  H1  UNL     1      52.228  44.382  70.626  1.00  0.00     0.220 HD
ENDBRANCH  11  14
ENDBRANCH   1  10
TORSDOF 4
ENDMDL
MODEL 4
REMARK VINA RESULT: -4.696742633      2.134      4.129
REMARK  4 active torsions:
REMARK  status: ('A' for Active; 'I' for Inactive)
REMARK    1  A    between atoms: N3_4  and  N4_6 
REMARK    2  A    between atoms: N4_6  and  C2_8 
REMARK    3  A    between atoms: C2_8  and  N5_10 
REMARK    4  A    between atoms: C3_12  and  O1_14 
ROOT
HETATM    1  C2  UNL     1      52.136  42.661  71.546  1.00  0.00     0.193 C 
HETATM    2  S1  UNL     1      53.271  43.545  70.771  1.00  0.00    -0.039 SA
ENDROOT
BRANCH   1   3
HETATM    3  N4  UNL     1      52.320  41.266  71.633  1.00  0.00    -0.274 N 
ATOM      4  H4  UNL     1      51.768  40.749  72.318  1.00  0.00     0.189 HD
BRANCH   3   5
HETATM    5  N3  UNL     1      53.208  40.560  70.840  1.00  0.00    -0.274 N 
HETATM    6  C1  UNL     1      52.818  39.986  69.770  1.00  0.00     0.215 C 
HETATM    7  N1  UNL     1      51.459  40.080  69.400  1.00  0.00    -0.065 NA
HETATM    8  N2  UNL     1      53.763  39.276  68.992  1.00  0.00    -0.065 NA
ATOM      9  H3  UNL     1      54.188  40.498  71.116  1.00  0.00     0.189 HD
ENDBRANCH   3   5
ENDBRANCH   1   3
BRANCH   1  10
HETATM   10  N5  UNL     1      50.994  43.273  72.121  1.00  0.00    -0.300 N 
HETATM   11  C3  UNL     1      49.806  42.836  71.787  1.00  0.00     0.231 C 
HETATM   12  N6  UNL     1      48.694  43.480  72.388  1.00  0.00    -0.056 NA
ATOM     13  H5  UNL     1      51.096  44.042  72.784  1.00  0.00     0.171 HD
BRANCH  11  14
HETATM   14  O1  UNL     1      49.670  41.791  70.885  1.00  0.00    -0.335 OA
ATOM     15  H1  UNL     1      48.848  41.652  70.431  1.00  0.00     0.220 HD
ENDBRANCH  11  14
ENDBRANCH   1  10
TORSDOF 4
ENDMDL
MODEL 5
REMARK VINA RESULT: -4.694212602      2.195      2.455
REMARK  4 active torsions:
REMARK  status: ('A' for Active; 'I' for Inactive)
REMARK    1  A    between atoms: N3_4  and  N4_6 
REMARK    2  A    between atoms: N4_6  and  C2_8 
REMARK    3  A    between atoms: C2_8  and  N5_10 
REMARK    4  A    between atoms: C3_12  and  O1_14 
ROOT
HETATM    1  C2  UNL     1      51.009  41.972  69.733  1.00  0.00     0.193 C 
HETATM    2  S1  UNL     1      50.952  43.556  69.339  1.00  0.00    -0.039 SA
ENDROOT
BRANCH   1   3
HETATM    3  N4  UNL     1      49.977  41.444  70.535  1.00  0.00    -0.274 N 
ATOM      4  H4  UNL     1      49.617  40.517  70.308  1.00  0.00     0.189 HD
BRANCH   3   5
HETATM    5  N3  UNL     1      49.425  42.115  71.612  1.00  0.00    -0.274 N 
HETATM    6  C1  UNL     1      49.395  41.582  72.771  1.00  0.00     0.215 C 
HETATM    7  N1  UNL     1      49.934  40.289  72.943  1.00  0.00    -0.065 NA
HETATM    8  N2  UNL     1      48.821  42.308  73.841  1.00  0.00    -0.065 NA
ATOM      9  H3  UNL     1      49.038  43.048  71.477  1.00  0.00     0.189 HD
ENDBRANCH   3   5
ENDBRANCH   1   3
BRANCH   1  10
HETATM   10  N5  UNL     1      52.067  41.141  69.283  1.00  0.00    -0.300 N 
HETATM   11  C3  UNL     1      52.879  40.616  70.165  1.00  0.00     0.231 C 
HETATM   12  N6  UNL     1      53.921  39.792  69.668  1.00  0.00    -0.056 NA
ATOM     13  H5  UNL     1      52.193  40.955  68.288  1.00  0.00     0.171 HD
BRANCH  11  14
HETATM   14  O1  UNL     1      52.705  40.870  71.518  1.00  0.00    -0.335 OA
ATOM     15  H1  UNL     1      51.835  40.866  71.900  1.00  0.00     0.220 HD
ENDBRANCH  11  14
ENDBRANCH   1  10
TORSDOF 4
ENDMDL
