MODEL 1
REMARK VINA RESULT: -4.580345551      0.000      0.000
REMARK  2 active torsions:
REMARK  status: ('A' for Active; 'I' for Inactive)
REMARK    1  A    between atoms: N3_4  and  S1_6 
REMARK    2  A    between atoms: S1_6  and  N4_9 
ROOT
HETATM    1  S1  UNL     1      50.864  42.779  70.322  1.00  0.00     0.327 S 
HETATM    2  O1  UNL     1      49.776  43.755  69.937  1.00  0.00    -0.182 OA
HETATM    3  O2  UNL     1      51.455  42.127  69.109  1.00  0.00    -0.182 OA
ENDROOT
BRANCH   1   4
HETATM    4  N3  UNL     1      52.072  43.664  71.152  1.00  0.00    -0.243 N 
HETATM    5  C1  UNL     1      53.074  43.119  71.744  1.00  0.00     0.211 C 
HETATM    6  N1  UNL     1      54.035  43.922  72.413  1.00  0.00    -0.066 NA
HETATM    7  N2  UNL     1      53.224  41.700  71.730  1.00  0.00    -0.066 NA
ATOM      8  H3  UNL     1      51.992  44.681  71.178  1.00  0.00     0.182 HD
ENDBRANCH   1   4
BRANCH   1   9
HETATM    9  N4  UNL     1      50.181  41.539  71.302  1.00  0.00    -0.243 N 
HETATM   10  C2  UNL     1      49.598  41.761  72.426  1.00  0.00     0.211 C 
HETATM   11  N5  UNL     1      49.079  40.645  73.132  1.00  0.00    -0.066 NA
HETATM   12  N6  UNL     1      49.439  43.042  73.006  1.00  0.00    -0.066 NA
ATOM     13  H4  UNL     1      50.242  40.577  70.972  1.00  0.00     0.182 HD
ENDBRANCH   1   9
TORSDOF 2
ENDMDL
MODEL 2
REMARK VINA RESULT: -4.516640741      2.806      3.944
REMARK  2 active torsions:
REMARK  status: ('A' for Active; 'I' for Inactive)
REMARK    1  A    between atoms: N3_4  and  S1_6 
REMARK    2  A    between atoms: S1_6  and  N4_9 
ROOT
HETATM    1  S1  UNL     1      52.804  42.564  70.719  1.00  0.00     0.327 S 
HETATM    2  O1  UNL     1      53.441  43.881  70.343  1.00  0.00    -0.182 OA
HETATM    3  O2  UNL     1      53.557  41.900  71.832  1.00  0.00    -0.182 OA
ENDROOT
BRANCH   1   4
HETATM    4  N3  UNL     1      51.201  42.898  71.220  1.00  0.00    -0.243 N 
HETATM    5  C1  UNL     1      50.308  43.411  70.452  1.00  0.00     0.211 C 
HETATM    6  N1  UNL     1      48.998  43.659  70.943  1.00  0.00    -0.066 NA
HETATM    7  N2  UNL     1      50.629  43.734  69.100  1.00  0.00    -0.066 NA
ATOM      8  H3  UNL     1      50.941  42.677  72.181  1.00  0.00     0.182 HD
ENDBRANCH   1   4
BRANCH   1   9
HETATM    9  N4  UNL     1      52.851  41.512  69.356  1.00  0.00    -0.243 N 
HETATM   10  C2  UNL     1      52.102  40.474  69.233  1.00  0.00     0.211 C 
HETATM   11  N5  UNL     1      52.245  39.694  68.056  1.00  0.00    -0.066 NA
HETATM   12  N6  UNL     1      51.146  40.058  70.190  1.00  0.00    -0.066 NA
ATOM     13  H4  UNL     1      53.508  41.724  68.606  1.00  0.00     0.182 HD
ENDBRANCH   1   9
TORSDOF 2
ENDMDL
MODEL 3
REMARK VINA RESULT: -4.483156926      1.978      3.427
REMARK  2 active torsions:
REMARK  status: ('A' for Active; 'I' for Inactive)
REMARK    1  A    between atoms: N3_4  and  S1_6 
REMARK    2  A    between atoms: S1_6  and  N4_9 
ROOT
HETATM    1  S1  UNL     1      51.292  43.492  70.050  1.00  0.00     0.327 S 
HETATM    2  O1  UNL     1      50.353  44.421  69.317  1.00  0.00    -0.182 OA
HETATM    3  O2  UNL     1      52.701  44.003  70.001  1.00  0.00    -0.182 OA
ENDROOT
BRANCH   1   4
HETATM    4  N3  UNL     1      50.761  43.409  71.676  1.00  0.00    -0.243 N 
HETATM    5  C1  UNL     1      49.632  42.909  72.031  1.00  0.00     0.211 C 
HETATM    6  N1  UNL     1      49.262  42.876  73.402  1.00  0.00    -0.066 NA
HETATM    7  N2  UNL     1      48.744  42.382  71.047  1.00  0.00    -0.066 NA
ATOM      8  H3  UNL     1      51.375  43.777  72.403  1.00  0.00     0.182 HD
ENDBRANCH   1   4
BRANCH   1   9
HETATM    9  N4  UNL     1      51.268  41.952  69.281  1.00  0.00    -0.243 N 
HETATM   10  C2  UNL     1      51.835  40.906  69.766  1.00  0.00     0.211 C 
HETATM   11  N5  UNL     1      51.737  39.699  69.027  1.00  0.00    -0.066 NA
HETATM   12  N6  UNL     1      52.550  40.876  70.988  1.00  0.00    -0.066 NA
ATOM     13  H4  UNL     1      50.776  41.865  68.393  1.00  0.00     0.182 HD
ENDBRANCH   1   9
TORSDOF 2
ENDMDL
MODEL 4
REMARK VINA RESULT: -4.481842168      1.316      1.560
REMARK  2 active torsions:
REMARK  status: ('A' for Active; 'I' for Inactive)
REMARK    1  A    between atoms: N3_4  and  S1_6 
REMARK    2  A    between atoms: S1_6  and  N4_9 
ROOT
HETATM    1  S1  UNL     1      51.343  43.306  70.191  1.00  0.00     0.327 S 
HETATM    2  O1  UNL     1      50.418  44.085  69.287  1.00  0.00    -0.182 OA
HETATM    3  O2  UNL     1      51.419  41.868  69.774  1.00  0.00    -0.182 OA
ENDROOT
BRANCH   1   4
HETATM    4  N3  UNL     1      52.893  44.025  70.077  1.00  0.00    -0.243 N 
HETATM    5  C1  UNL     1      53.855  43.777  70.891  1.00  0.00     0.211 C 
HETATM    6  N1  UNL     1      55.114  44.416  70.730  1.00  0.00    -0.066 NA
HETATM    7  N2  UNL     1      53.662  42.855  71.963  1.00  0.00    -0.066 NA
ATOM      8  H3  UNL     1      53.062  44.688  69.320  1.00  0.00     0.182 HD
ENDBRANCH   1   4
BRANCH   1   9
HETATM    9  N4  UNL     1      50.725  43.352  71.798  1.00  0.00    -0.243 N 
HETATM   10  C2  UNL     1      49.569  42.898  72.128  1.00  0.00     0.211 C 
HETATM   11  N5  UNL     1      49.184  43.000  73.490  1.00  0.00    -0.066 NA
HETATM   12  N6  UNL     1      48.655  42.303  71.226  1.00  0.00    -0.066 NA
ATOM     13  H4  UNL     1      51.309  43.762  72.526  1.00  0.00     0.182 HD
ENDBRANCH   1   9
TORSDOF 2
ENDMDL
MODEL 5
REMARK VINA RESULT: -4.475101107      1.309      4.151
REMARK  2 active torsions:
REMARK  status: ('A' for Active; 'I' for Inactive)
REMARK    1  A    between atoms: N3_4  and  S1_6 
REMARK    2  A    between atoms: S1_6  and  N4_9 
ROOT
HETATM    1  S1  UNL     1      51.308  43.321  70.210  1.00  0.00     0.327 S 
HETATM    2  O1  UNL     1      51.387  41.875  69.780  1.00  0.00    -0.182 OA
HETATM    3  O2  UNL     1      50.385  44.098  69.319  1.00  0.00    -0.182 OA
ENDROOT
BRANCH   1   4
HETATM    4  N3  UNL     1      50.718  43.344  71.817  1.00  0.00    -0.243 N 
HETATM    5  C1  UNL     1      49.558  42.908  72.156  1.00  0.00     0.211 C 
HETATM    6  N1  UNL     1      49.141  42.961  73.513  1.00  0.00    -0.066 NA
HETATM    7  N2  UNL     1      48.684  42.366  71.168  1.00  0.00    -0.066 NA
ATOM      8  H3  UNL     1      51.322  43.724  72.546  1.00  0.00     0.182 HD
ENDBRANCH   1   4
BRANCH   1   9
HETATM    9  N4  UNL     1      52.873  44.028  70.084  1.00  0.00    -0.243 N 
HETATM   10  C2  UNL     1      53.843  43.754  70.881  1.00  0.00     0.211 C 
HETATM   11  N5  UNL     1      55.082  44.410  70.663  1.00  0.00    -0.066 NA
HETATM   12  N6  UNL     1      53.759  42.842  71.961  1.00  0.00    -0.066 NA
ATOM     13  H4  UNL     1      53.039  44.700  69.336  1.00  0.00     0.182 HD
ENDBRANCH   1   9
TORSDOF 2
ENDMDL
