MODEL 1
REMARK VINA RESULT: -7.489833729      0.000      0.000
REMARK  6 active torsions:
REMARK  status: ('A' for Active; 'I' for Inactive)
REMARK    1  A    between atoms: C2_2  and  O2_4 
REMARK    2  A    between atoms: O2_4  and  C3_5 
REMARK    3  A    between atoms: C5_9  and  O5_10 
REMARK    4  A    between atoms: O5_10  and  S1_11 
REMARK    5  A    between atoms: S1_11  and  N1_12 
REMARK    6  A    between atoms: C6_17  and  O8_18 
ROOT
HETATM    1  C3  UNL     1      34.288  43.752  21.362  1.00  0.00     0.192 C 
HETATM    2  C4  UNL     1      33.734  44.377  20.102  1.00  0.00     0.245 C 
HETATM    3  O3  UNL     1      32.910  43.471  19.459  1.00  0.00    -0.236 OA
HETATM    4  O4  UNL     1      32.759  42.347  20.149  1.00  0.00    -0.204 OA
HETATM    5  C5  UNL     1      32.113  42.689  21.332  1.00  0.00     0.348 C 
HETATM    6  C6  UNL     1      33.166  43.284  22.246  1.00  0.00     0.209 C 
ENDROOT
BRANCH   5   7
HETATM    7  O5  UNL     1      31.448  41.632  21.911  1.00  0.00    -0.221 OA
BRANCH   7   8
HETATM    8  S1  UNL     1      30.064  42.043  22.717  1.00  0.00     0.358 S 
HETATM    9  O6  UNL     1      29.354  40.845  23.301  1.00  0.00    -0.176 OA
HETATM   10  O7  UNL     1      30.426  42.957  23.873  1.00  0.00    -0.176 OA
BRANCH   8  11
HETATM   11  N1  UNL     1      29.020  42.883  21.628  1.00  0.00    -0.306 N 
ATOM     12  H12 UNL     1      29.295  43.236  20.712  1.00  0.00     0.171 HD
ATOM     13  H11 UNL     1      28.098  42.963  22.056  1.00  0.00     0.171 HD
ENDBRANCH   8  11
ENDBRANCH   7   8
ENDBRANCH   5   7
BRANCH   6  14
HETATM   14  O8  UNL     1      33.649  42.308  23.138  1.00  0.00    -0.388 OA
ATOM     15  H8  UNL     1      32.938  42.009  23.693  1.00  0.00     0.210 HD
ENDBRANCH   6  14
BRANCH   1  16
HETATM   16  O2  UNL     1      35.236  44.543  22.002  1.00  0.00    -0.311 OA
BRANCH  16  17
HETATM   17  C2  UNL     1      36.577  44.206  22.138  1.00  0.00     0.255 C 
HETATM   18  C1  UNL     1      37.071  42.828  22.259  1.00  0.00     0.126 C 
HETATM   19  O1  UNL     1      37.380  45.176  22.155  1.00  0.00    -0.266 OA
ENDBRANCH  16  17
ENDBRANCH   1  16
TORSDOF 6
ENDMDL
MODEL 2
REMARK VINA RESULT: -7.333781849      1.041      1.328
REMARK  6 active torsions:
REMARK  status: ('A' for Active; 'I' for Inactive)
REMARK    1  A    between atoms: C2_2  and  O2_4 
REMARK    2  A    between atoms: O2_4  and  C3_5 
REMARK    3  A    between atoms: C5_9  and  O5_10 
REMARK    4  A    between atoms: O5_10  and  S1_11 
REMARK    5  A    between atoms: S1_11  and  N1_12 
REMARK    6  A    between atoms: C6_17  and  O8_18 
ROOT
HETATM    1  C3  UNL     1      34.305  43.777  21.375  1.00  0.00     0.192 C 
HETATM    2  C4  UNL     1      33.855  44.485  20.117  1.00  0.00     0.245 C 
HETATM    3  O3  UNL     1      33.026  43.652  19.387  1.00  0.00    -0.236 OA
HETATM    4  O4  UNL     1      32.781  42.508  20.014  1.00  0.00    -0.204 OA
HETATM    5  C5  UNL     1      32.086  42.829  21.175  1.00  0.00     0.348 C 
HETATM    6  C6  UNL     1      33.112  43.329  22.172  1.00  0.00     0.209 C 
ENDROOT
BRANCH   5   7
HETATM    7  O5  UNL     1      31.338  41.783  21.666  1.00  0.00    -0.221 OA
BRANCH   7   8
HETATM    8  S1  UNL     1      29.755  42.149  21.976  1.00  0.00     0.358 S 
HETATM    9  O6  UNL     1      29.286  43.376  21.231  1.00  0.00    -0.176 OA
HETATM   10  O7  UNL     1      28.889  40.990  21.523  1.00  0.00    -0.176 OA
BRANCH   8  11
HETATM   11  N1  UNL     1      29.564  42.375  23.677  1.00  0.00    -0.306 N 
ATOM     12  H12 UNL     1      29.497  43.281  24.142  1.00  0.00     0.171 HD
ATOM     13  H11 UNL     1      29.531  41.460  24.126  1.00  0.00     0.171 HD
ENDBRANCH   8  11
ENDBRANCH   7   8
ENDBRANCH   5   7
BRANCH   6  14
HETATM   14  O8  UNL     1      33.495  42.291  23.043  1.00  0.00    -0.388 OA
ATOM     15  H8  UNL     1      34.442  42.275  23.117  1.00  0.00     0.210 HD
ENDBRANCH   6  14
BRANCH   1  16
HETATM   16  O2  UNL     1      35.251  44.489  22.103  1.00  0.00    -0.311 OA
BRANCH  16  17
HETATM   17  C2  UNL     1      36.601  44.164  22.165  1.00  0.00     0.255 C 
HETATM   18  C1  UNL     1      37.112  42.796  22.324  1.00  0.00     0.126 C 
HETATM   19  O1  UNL     1      37.397  45.136  22.076  1.00  0.00    -0.266 OA
ENDBRANCH  16  17
ENDBRANCH   1  16
TORSDOF 6
ENDMDL
MODEL 3
REMARK VINA RESULT: -7.190827687      1.497      1.577
REMARK  6 active torsions:
REMARK  status: ('A' for Active; 'I' for Inactive)
REMARK    1  A    between atoms: C2_2  and  O2_4 
REMARK    2  A    between atoms: O2_4  and  C3_5 
REMARK    3  A    between atoms: C5_9  and  O5_10 
REMARK    4  A    between atoms: O5_10  and  S1_11 
REMARK    5  A    between atoms: S1_11  and  N1_12 
REMARK    6  A    between atoms: C6_17  and  O8_18 
ROOT
HETATM    1  C3  UNL     1      34.665  43.893  21.155  1.00  0.00     0.192 C 
HETATM    2  C4  UNL     1      34.208  45.305  21.449  1.00  0.00     0.245 C 
HETATM    3  O3  UNL     1      32.826  45.341  21.510  1.00  0.00    -0.236 OA
HETATM    4  O4  UNL     1      32.283  44.137  21.384  1.00  0.00    -0.204 OA
HETATM    5  C5  UNL     1      32.703  43.393  22.482  1.00  0.00     0.348 C 
HETATM    6  C6  UNL     1      34.121  42.948  22.189  1.00  0.00     0.209 C 
ENDROOT
BRANCH   5   7
HETATM    7  O5  UNL     1      31.867  42.337  22.773  1.00  0.00    -0.221 OA
BRANCH   7   8
HETATM    8  S1  UNL     1      30.275  42.744  22.951  1.00  0.00     0.358 S 
HETATM    9  O6  UNL     1      29.442  42.375  21.747  1.00  0.00    -0.176 OA
HETATM   10  O7  UNL     1      29.708  41.988  24.137  1.00  0.00    -0.176 OA
BRANCH   8  11
HETATM   11  N1  UNL     1      30.169  44.442  23.251  1.00  0.00    -0.306 N 
ATOM     12  H12 UNL     1      30.800  44.968  23.855  1.00  0.00     0.171 HD
ATOM     13  H11 UNL     1      29.379  44.817  22.727  1.00  0.00     0.171 HD
ENDBRANCH   8  11
ENDBRANCH   7   8
ENDBRANCH   5   7
BRANCH   6  14
HETATM   14  O8  UNL     1      34.127  41.638  21.673  1.00  0.00    -0.388 OA
ATOM     15  H8  UNL     1      33.347  41.180  21.966  1.00  0.00     0.210 HD
ENDBRANCH   6  14
BRANCH   1  16
HETATM   16  O2  UNL     1      36.034  43.789  20.940  1.00  0.00    -0.311 OA
BRANCH  16  17
HETATM   17  C2  UNL     1      36.984  43.713  21.951  1.00  0.00     0.255 C 
HETATM   18  C1  UNL     1      37.470  42.453  22.531  1.00  0.00     0.126 C 
HETATM   19  O1  UNL     1      37.427  44.818  22.363  1.00  0.00    -0.266 OA
ENDBRANCH  16  17
ENDBRANCH   1  16
TORSDOF 6
ENDMDL
MODEL 4
REMARK VINA RESULT: -7.118962808      1.706      2.221
REMARK  6 active torsions:
REMARK  status: ('A' for Active; 'I' for Inactive)
REMARK    1  A    between atoms: C2_2  and  O2_4 
REMARK    2  A    between atoms: O2_4  and  C3_5 
REMARK    3  A    between atoms: C5_9  and  O5_10 
REMARK    4  A    between atoms: O5_10  and  S1_11 
REMARK    5  A    between atoms: S1_11  and  N1_12 
REMARK    6  A    between atoms: C6_17  and  O8_18 
ROOT
HETATM    1  C3  UNL     1      34.781  44.165  22.138  1.00  0.00     0.192 C 
HETATM    2  C4  UNL     1      35.104  42.735  21.766  1.00  0.00     0.245 C 
HETATM    3  O3  UNL     1      34.359  41.873  22.551  1.00  0.00    -0.236 OA
HETATM    4  O4  UNL     1      33.512  42.517  23.344  1.00  0.00    -0.204 OA
HETATM    5  C5  UNL     1      32.606  43.170  22.515  1.00  0.00     0.348 C 
HETATM    6  C6  UNL     1      33.305  44.414  22.003  1.00  0.00     0.209 C 
ENDROOT
BRANCH   5   7
HETATM    7  O5  UNL     1      31.410  43.454  23.136  1.00  0.00    -0.221 OA
BRANCH   7   8
HETATM    8  S1  UNL     1      30.211  42.349  22.864  1.00  0.00     0.358 S 
HETATM    9  O6  UNL     1      30.735  41.045  22.313  1.00  0.00    -0.176 OA
HETATM   10  O7  UNL     1      29.528  42.037  24.182  1.00  0.00    -0.176 OA
BRANCH   8  11
HETATM   11  N1  UNL     1      29.062  43.039  21.774  1.00  0.00    -0.306 N 
ATOM     12  H12 UNL     1      28.064  42.829  21.769  1.00  0.00     0.171 HD
ATOM     13  H11 UNL     1      29.550  43.680  21.150  1.00  0.00     0.171 HD
ENDBRANCH   8  11
ENDBRANCH   7   8
ENDBRANCH   5   7
BRANCH   6  14
HETATM   14  O8  UNL     1      32.947  45.532  22.781  1.00  0.00    -0.388 OA
ATOM     15  H8  UNL     1      32.201  45.311  23.326  1.00  0.00     0.210 HD
ENDBRANCH   6  14
BRANCH   1  16
HETATM   16  O2  UNL     1      35.585  45.099  21.495  1.00  0.00    -0.311 OA
BRANCH  16  17
HETATM   17  C2  UNL     1      36.316  46.086  22.144  1.00  0.00     0.255 C 
HETATM   18  C1  UNL     1      37.759  46.003  22.408  1.00  0.00     0.126 C 
HETATM   19  O1  UNL     1      35.656  47.095  22.512  1.00  0.00    -0.266 OA
ENDBRANCH  16  17
ENDBRANCH   1  16
TORSDOF 6
ENDMDL
MODEL 5
REMARK VINA RESULT: -7.052903992      1.362      1.832
REMARK  6 active torsions:
REMARK  status: ('A' for Active; 'I' for Inactive)
REMARK    1  A    between atoms: C2_2  and  O2_4 
REMARK    2  A    between atoms: O2_4  and  C3_5 
REMARK    3  A    between atoms: C5_9  and  O5_10 
REMARK    4  A    between atoms: O5_10  and  S1_11 
REMARK    5  A    between atoms: S1_11  and  N1_12 
REMARK    6  A    between atoms: C6_17  and  O8_18 
ROOT
HETATM    1  C3  UNL     1      33.376  43.738  21.773  1.00  0.00     0.192 C 
HETATM    2  C4  UNL     1      32.863  44.647  20.680  1.00  0.00     0.245 C 
HETATM    3  O3  UNL     1      31.558  44.307  20.368  1.00  0.00    -0.236 OA
HETATM    4  O4  UNL     1      31.085  43.349  21.156  1.00  0.00    -0.204 OA
HETATM    5  C5  UNL     1      31.054  43.871  22.445  1.00  0.00     0.348 C 
HETATM    6  C6  UNL     1      32.473  43.810  22.973  1.00  0.00     0.209 C 
ENDROOT
BRANCH   5   7
HETATM    7  O5  UNL     1      30.156  43.230  23.269  1.00  0.00    -0.221 OA
BRANCH   7   8
HETATM    8  S1  UNL     1      29.697  41.727  22.755  1.00  0.00     0.358 S 
HETATM    9  O6  UNL     1      30.861  40.898  22.267  1.00  0.00    -0.176 OA
HETATM   10  O7  UNL     1      29.074  40.982  23.921  1.00  0.00    -0.176 OA
BRANCH   8  11
HETATM   11  N1  UNL     1      28.525  41.907  21.499  1.00  0.00    -0.306 N 
ATOM     12  H12 UNL     1      28.663  41.629  20.528  1.00  0.00     0.171 HD
ATOM     13  H11 UNL     1      27.687  42.332  21.895  1.00  0.00     0.171 HD
ENDBRANCH   8  11
ENDBRANCH   7   8
ENDBRANCH   5   7
BRANCH   6  14
HETATM   14  O8  UNL     1      32.653  42.657  23.762  1.00  0.00    -0.388 OA
ATOM     15  H8  UNL     1      32.007  42.649  24.458  1.00  0.00     0.210 HD
ENDBRANCH   6  14
BRANCH   1  16
HETATM   16  O2  UNL     1      34.725  43.919  22.054  1.00  0.00    -0.311 OA
BRANCH  16  17
HETATM   17  C2  UNL     1      35.625  42.884  22.283  1.00  0.00     0.255 C 
HETATM   18  C1  UNL     1      37.081  43.013  22.137  1.00  0.00     0.126 C 
HETATM   19  O1  UNL     1      35.113  41.789  22.635  1.00  0.00    -0.266 OA
ENDBRANCH  16  17
ENDBRANCH   1  16
TORSDOF 6
ENDMDL
