MODEL 1
REMARK VINA RESULT: -6.728523301      0.000      0.000
REMARK  5 active torsions:
REMARK  status: ('A' for Active; 'I' for Inactive)
REMARK    1  A    between atoms: O1_2  and  C2_3 
REMARK    2  A    between atoms: C2_3  and  C3_5 
REMARK    3  A    between atoms: C3_5  and  O3_6 
REMARK    4  A    between atoms: C3_5  and  C4_8 
REMARK    5  A    between atoms: C3_5  and  C6_11 
ROOT
HETATM    1  C4  UNL     1      33.277  45.043  22.637  1.00  0.00     0.175 C 
HETATM    2  C5  UNL     1      33.033  45.873  21.499  1.00  0.00     0.062 C 
HETATM    3  N1  UNL     1      32.857  46.568  20.585  1.00  0.00    -0.197 NA
ENDROOT
BRANCH   1   4
HETATM    4  C3  UNL     1      33.100  43.589  22.402  1.00  0.00     0.185 C 
BRANCH   4   5
HETATM    5  C2  UNL     1      34.369  42.840  22.241  1.00  0.00     0.297 C 
HETATM    6  O2  UNL     1      34.446  41.691  22.747  1.00  0.00    -0.262 OA
BRANCH   5   7
HETATM    7  O1  UNL     1      35.471  43.324  21.570  1.00  0.00    -0.324 OA
HETATM    8  C1  UNL     1      36.793  43.241  22.019  1.00  0.00     0.213 C 
ENDBRANCH   5   7
ENDBRANCH   4   5
BRANCH   4   9
HETATM    9  O3  UNL     1      32.566  43.109  23.666  1.00  0.00    -0.376 OA
ATOM     10  H3  UNL     1      31.754  42.678  23.424  1.00  0.00     0.211 HD
ENDBRANCH   4   9
BRANCH   4  11
HETATM   11  C6  UNL     1      32.107  43.152  21.407  1.00  0.00     0.198 C 
HETATM   12  O4  UNL     1      32.642  42.692  20.204  1.00  0.00    -0.377 OA
HETATM   13  C7  UNL     1      31.452  42.467  19.475  1.00  0.00     0.203 C 
HETATM   14  C8  UNL     1      30.672  41.592  20.421  1.00  0.00     0.179 C 
HETATM   15  O5  UNL     1      29.315  41.776  20.329  1.00  0.00    -0.357 OA
HETATM   16  C10 UNL     1      31.075  42.169  21.787  1.00  0.00     0.187 C 
HETATM   17  C9  UNL     1      29.032  42.857  21.159  1.00  0.00     0.339 C 
HETATM   18  O6  UNL     1      29.897  42.795  22.222  1.00  0.00    -0.356 OA
ENDBRANCH   4  11
ENDBRANCH   1   4
TORSDOF 5
ENDMDL
MODEL 2
REMARK VINA RESULT: -6.726222738      1.158      1.849
REMARK  5 active torsions:
REMARK  status: ('A' for Active; 'I' for Inactive)
REMARK    1  A    between atoms: O1_2  and  C2_3 
REMARK    2  A    between atoms: C2_3  and  C3_5 
REMARK    3  A    between atoms: C3_5  and  O3_6 
REMARK    4  A    between atoms: C3_5  and  C4_8 
REMARK    5  A    between atoms: C3_5  and  C6_11 
ROOT
HETATM    1  C4  UNL     1      33.215  44.655  20.514  1.00  0.00     0.175 C 
HETATM    2  C5  UNL     1      33.158  46.083  20.561  1.00  0.00     0.062 C 
HETATM    3  N1  UNL     1      33.099  47.243  20.571  1.00  0.00    -0.197 NA
ENDROOT
BRANCH   1   4
HETATM    4  C3  UNL     1      33.006  43.976  21.816  1.00  0.00     0.185 C 
BRANCH   4   5
HETATM    5  C2  UNL     1      34.184  43.220  22.304  1.00  0.00     0.297 C 
HETATM    6  O2  UNL     1      33.995  42.073  22.782  1.00  0.00    -0.262 OA
BRANCH   5   7
HETATM    7  O1  UNL     1      35.477  43.698  22.265  1.00  0.00    -0.324 OA
HETATM    8  C1  UNL     1      36.631  42.908  22.258  1.00  0.00     0.213 C 
ENDBRANCH   5   7
ENDBRANCH   4   5
BRANCH   4   9
HETATM    9  O3  UNL     1      32.884  45.081  22.753  1.00  0.00    -0.376 OA
ATOM     10  H3  UNL     1      32.724  45.836  22.199  1.00  0.00     0.211 HD
ENDBRANCH   4   9
BRANCH   4  11
HETATM   11  C6  UNL     1      31.771  43.201  22.016  1.00  0.00     0.198 C 
HETATM   12  O4  UNL     1      31.207  43.310  23.287  1.00  0.00    -0.377 OA
HETATM   13  C7  UNL     1      30.141  42.390  23.162  1.00  0.00     0.203 C 
HETATM   14  C8  UNL     1      29.459  42.876  21.911  1.00  0.00     0.179 C 
HETATM   15  O5  UNL     1      28.876  41.865  21.188  1.00  0.00    -0.357 OA
HETATM   16  C10 UNL     1      30.652  43.351  21.067  1.00  0.00     0.187 C 
HETATM   17  C9  UNL     1      29.892  41.351  20.388  1.00  0.00     0.339 C 
HETATM   18  O6  UNL     1      30.708  42.396  20.041  1.00  0.00    -0.356 OA
ENDBRANCH   4  11
ENDBRANCH   1   4
TORSDOF 5
ENDMDL
MODEL 3
REMARK VINA RESULT: -6.722499972      2.200      3.048
REMARK  5 active torsions:
REMARK  status: ('A' for Active; 'I' for Inactive)
REMARK    1  A    between atoms: O1_2  and  C2_3 
REMARK    2  A    between atoms: C2_3  and  C3_5 
REMARK    3  A    between atoms: C3_5  and  O3_6 
REMARK    4  A    between atoms: C3_5  and  C4_8 
REMARK    5  A    between atoms: C3_5  and  C6_11 
ROOT
HETATM    1  C4  UNL     1      34.549  43.859  21.966  1.00  0.00     0.175 C 
HETATM    2  C5  UNL     1      35.934  43.669  21.666  1.00  0.00     0.062 C 
HETATM    3  N1  UNL     1      37.058  43.486  21.438  1.00  0.00    -0.197 NA
ENDROOT
BRANCH   1   4
HETATM    4  C3  UNL     1      33.771  44.560  20.915  1.00  0.00     0.185 C 
BRANCH   4   5
HETATM    5  C2  UNL     1      33.478  45.980  21.219  1.00  0.00     0.297 C 
HETATM    6  O2  UNL     1      32.733  46.614  20.428  1.00  0.00    -0.262 OA
BRANCH   5   7
HETATM    7  O1  UNL     1      33.971  46.651  22.318  1.00  0.00    -0.324 OA
HETATM    8  C1  UNL     1      35.068  47.518  22.311  1.00  0.00     0.213 C 
ENDBRANCH   5   7
ENDBRANCH   4   5
BRANCH   4   9
HETATM    9  O3  UNL     1      34.700  44.624  19.798  1.00  0.00    -0.376 OA
ATOM     10  H3  UNL     1      35.425  44.074  20.070  1.00  0.00     0.211 HD
ENDBRANCH   4   9
BRANCH   4  11
HETATM   11  C6  UNL     1      32.585  43.892  20.353  1.00  0.00     0.198 C 
HETATM   12  O4  UNL     1      32.800  43.227  19.146  1.00  0.00    -0.377 OA
HETATM   13  C7  UNL     1      31.480  42.811  18.856  1.00  0.00     0.203 C 
HETATM   14  C8  UNL     1      31.091  42.109  20.130  1.00  0.00     0.179 C 
HETATM   15  O5  UNL     1      29.752  42.212  20.414  1.00  0.00    -0.357 OA
HETATM   16  C10 UNL     1      31.805  42.961  21.190  1.00  0.00     0.187 C 
HETATM   17  C9  UNL     1      29.611  43.423  21.086  1.00  0.00     0.339 C 
HETATM   18  O6  UNL     1      30.742  43.609  21.837  1.00  0.00    -0.356 OA
ENDBRANCH   4  11
ENDBRANCH   1   4
TORSDOF 5
ENDMDL
MODEL 4
REMARK VINA RESULT: -6.633673474      2.309      3.396
REMARK  5 active torsions:
REMARK  status: ('A' for Active; 'I' for Inactive)
REMARK    1  A    between atoms: O1_2  and  C2_3 
REMARK    2  A    between atoms: C2_3  and  C3_5 
REMARK    3  A    between atoms: C3_5  and  O3_6 
REMARK    4  A    between atoms: C3_5  and  C4_8 
REMARK    5  A    between atoms: C3_5  and  C6_11 
ROOT
HETATM    1  C4  UNL     1      34.782  43.889  21.285  1.00  0.00     0.175 C 
HETATM    2  C5  UNL     1      34.710  42.674  22.036  1.00  0.00     0.062 C 
HETATM    3  N1  UNL     1      34.679  41.695  22.660  1.00  0.00    -0.197 NA
ENDROOT
BRANCH   1   4
HETATM    4  C3  UNL     1      33.471  44.505  20.965  1.00  0.00     0.185 C 
BRANCH   4   5
HETATM    5  C2  UNL     1      33.401  45.961  21.235  1.00  0.00     0.297 C 
HETATM    6  O2  UNL     1      32.812  46.690  20.397  1.00  0.00    -0.262 OA
BRANCH   5   7
HETATM    7  O1  UNL     1      33.941  46.565  22.350  1.00  0.00    -0.324 OA
HETATM    8  C1  UNL     1      35.021  47.455  22.345  1.00  0.00     0.213 C 
ENDBRANCH   5   7
ENDBRANCH   4   5
BRANCH   4   9
HETATM    9  O3  UNL     1      33.404  44.413  19.515  1.00  0.00    -0.376 OA
ATOM     10  H3  UNL     1      33.176  43.505  19.353  1.00  0.00     0.211 HD
ENDBRANCH   4   9
BRANCH   4  11
HETATM   11  C6  UNL     1      32.244  43.831  21.421  1.00  0.00     0.198 C 
HETATM   12  O4  UNL     1      31.762  44.259  22.657  1.00  0.00    -0.377 OA
HETATM   13  C7  UNL     1      30.683  43.361  22.824  1.00  0.00     0.203 C 
HETATM   14  C8  UNL     1      29.928  43.543  21.534  1.00  0.00     0.179 C 
HETATM   15  O5  UNL     1      29.293  42.401  21.116  1.00  0.00    -0.357 OA
HETATM   16  C10 UNL     1      31.069  43.772  20.531  1.00  0.00     0.187 C 
HETATM   17  C9  UNL     1      30.253  41.684  20.407  1.00  0.00     0.339 C 
HETATM   18  O6  UNL     1      31.054  42.595  19.768  1.00  0.00    -0.356 OA
ENDBRANCH   4  11
ENDBRANCH   1   4
TORSDOF 5
ENDMDL
MODEL 5
REMARK VINA RESULT: -6.585555529      1.165      1.819
REMARK  5 active torsions:
REMARK  status: ('A' for Active; 'I' for Inactive)
REMARK    1  A    between atoms: O1_2  and  C2_3 
REMARK    2  A    between atoms: C2_3  and  C3_5 
REMARK    3  A    between atoms: C3_5  and  O3_6 
REMARK    4  A    between atoms: C3_5  and  C4_8 
REMARK    5  A    between atoms: C3_5  and  C6_11 
ROOT
HETATM    1  C4  UNL     1      32.789  45.114  21.641  1.00  0.00     0.175 C 
HETATM    2  C5  UNL     1      33.504  46.144  22.327  1.00  0.00     0.062 C 
HETATM    3  N1  UNL     1      34.065  47.002  22.873  1.00  0.00    -0.197 NA
ENDROOT
BRANCH   1   4
HETATM    4  C3  UNL     1      32.722  43.815  22.354  1.00  0.00     0.185 C 
BRANCH   4   5
HETATM    5  C2  UNL     1      33.973  43.023  22.295  1.00  0.00     0.297 C 
HETATM    6  O2  UNL     1      34.013  41.933  22.920  1.00  0.00    -0.262 OA
BRANCH   5   7
HETATM    7  O1  UNL     1      35.096  43.407  21.595  1.00  0.00    -0.324 OA
HETATM    8  C1  UNL     1      36.369  43.592  22.145  1.00  0.00     0.213 C 
ENDBRANCH   5   7
ENDBRANCH   4   5
BRANCH   4   9
HETATM    9  O3  UNL     1      32.619  44.206  23.751  1.00  0.00    -0.376 OA
ATOM     10  H3  UNL     1      31.703  44.065  23.962  1.00  0.00     0.211 HD
ENDBRANCH   4   9
BRANCH   4  11
HETATM   11  C6  UNL     1      31.548  42.952  22.139  1.00  0.00     0.198 C 
HETATM   12  O4  UNL     1      30.824  42.646  23.290  1.00  0.00    -0.377 OA
HETATM   13  C7  UNL     1      29.871  41.752  22.750  1.00  0.00     0.203 C 
HETATM   14  C8  UNL     1      29.307  42.554  21.607  1.00  0.00     0.179 C 
HETATM   15  O5  UNL     1      28.915  41.778  20.545  1.00  0.00    -0.357 OA
HETATM   16  C10 UNL     1      30.546  43.322  21.121  1.00  0.00     0.187 C 
HETATM   17  C9  UNL     1      30.066  41.581  19.788  1.00  0.00     0.339 C 
HETATM   18  O6  UNL     1      30.819  42.723  19.882  1.00  0.00    -0.356 OA
ENDBRANCH   4  11
ENDBRANCH   1   4
TORSDOF 5
ENDMDL
