MODEL 1
REMARK VINA RESULT: -7.254596495      0.000      0.000
REMARK  6 active torsions:
REMARK  status: ('A' for Active; 'I' for Inactive)
REMARK    1  A    between atoms: C2_2  and  O2_4 
REMARK    2  A    between atoms: O2_4  and  C3_5 
REMARK    3  A    between atoms: C5_8  and  C6_9 
REMARK    4  A    between atoms: C6_9  and  C7_11 
REMARK    5  A    between atoms: C7_11  and  C8_16 
REMARK    6  A    between atoms: N1_12  and  O5_14 
ROOT
HETATM    1  C3  UNL     1      34.643  43.843  21.606  1.00  0.00     0.179 C 
HETATM    2  C4  UNL     1      34.044  42.593  22.218  1.00  0.00     0.206 C 
HETATM    3  O3  UNL     1      32.687  42.860  22.385  1.00  0.00    -0.351 OA
HETATM    4  C5  UNL     1      32.041  43.008  21.147  1.00  0.00     0.337 C 
HETATM    5  O7  UNL     1      32.433  44.267  20.689  1.00  0.00    -0.351 OA
HETATM    6  C9  UNL     1      33.794  44.213  20.416  1.00  0.00     0.206 C 
ENDROOT
BRANCH   4   7
HETATM    7  C6  UNL     1      30.580  42.928  21.377  1.00  0.00     0.237 C 
HETATM    8  O4  UNL     1      29.830  43.314  20.418  1.00  0.00    -0.285 OA
BRANCH   7   9
HETATM    9  C7  UNL     1      29.937  42.454  22.577  1.00  0.00     0.170 C 
HETATM   10  N1  UNL     1      29.776  43.126  23.653  1.00  0.00    -0.261 N 
ATOM     11  H1  UNL     1      29.300  42.643  24.414  1.00  0.00     0.194 HD
BRANCH  10  12
HETATM   12  O5  UNL     1      30.157  44.393  23.906  1.00  0.00    -0.289 OA
ATOM     13  H5  UNL     1      30.903  44.689  24.413  1.00  0.00     0.244 HD
ENDBRANCH  10  12
BRANCH   9  14
HETATM   14  C8  UNL     1      29.413  41.082  22.591  1.00  0.00     0.287 C 
HETATM   15  N2  UNL     1      29.020  40.441  23.788  1.00  0.00    -0.056 NA
HETATM   16  O6  UNL     1      29.292  40.415  21.526  1.00  0.00    -0.269 OA
ENDBRANCH   9  14
ENDBRANCH   7   9
ENDBRANCH   4   7
BRANCH   1  17
HETATM   17  O2  UNL     1      35.958  43.675  21.174  1.00  0.00    -0.312 OA
BRANCH  17  18
HETATM   18  C2  UNL     1      37.044  43.721  22.033  1.00  0.00     0.255 C 
HETATM   19  C1  UNL     1      37.647  42.486  22.544  1.00  0.00     0.126 C 
HETATM   20  O1  UNL     1      37.470  44.870  22.340  1.00  0.00    -0.266 OA
ENDBRANCH  17  18
ENDBRANCH   1  17
TORSDOF 6
ENDMDL
MODEL 2
REMARK VINA RESULT: -7.042039131      3.384      6.489
REMARK  6 active torsions:
REMARK  status: ('A' for Active; 'I' for Inactive)
REMARK    1  A    between atoms: C2_2  and  O2_4 
REMARK    2  A    between atoms: O2_4  and  C3_5 
REMARK    3  A    between atoms: C5_8  and  C6_9 
REMARK    4  A    between atoms: C6_9  and  C7_11 
REMARK    5  A    between atoms: C7_11  and  C8_16 
REMARK    6  A    between atoms: N1_12  and  O5_14 
ROOT
HETATM    1  C3  UNL     1      31.594  42.792  22.700  1.00  0.00     0.179 C 
HETATM    2  C4  UNL     1      30.920  43.877  21.884  1.00  0.00     0.206 C 
HETATM    3  O3  UNL     1      31.718  45.010  22.018  1.00  0.00    -0.351 OA
HETATM    4  C5  UNL     1      32.972  44.824  21.414  1.00  0.00     0.337 C 
HETATM    5  O7  UNL     1      33.669  43.990  22.289  1.00  0.00    -0.351 OA
HETATM    6  C9  UNL     1      33.042  42.750  22.281  1.00  0.00     0.206 C 
ENDROOT
BRANCH   4   7
HETATM    7  C6  UNL     1      33.618  46.150  21.273  1.00  0.00     0.237 C 
HETATM    8  O4  UNL     1      33.001  47.012  20.560  1.00  0.00    -0.285 OA
BRANCH   7   9
HETATM    9  C7  UNL     1      34.869  46.548  21.867  1.00  0.00     0.170 C 
HETATM   10  N1  UNL     1      35.954  45.870  21.848  1.00  0.00    -0.261 N 
ATOM     11  H1  UNL     1      36.754  46.295  22.317  1.00  0.00     0.194 HD
BRANCH  10  12
HETATM   12  O5  UNL     1      36.171  44.666  21.286  1.00  0.00    -0.289 OA
ATOM     13  H5  UNL     1      35.971  43.809  21.643  1.00  0.00     0.244 HD
ENDBRANCH  10  12
BRANCH   9  14
HETATM   14  C8  UNL     1      34.930  47.841  22.561  1.00  0.00     0.287 C 
HETATM   15  N2  UNL     1      35.385  49.016  21.920  1.00  0.00    -0.056 NA
HETATM   16  O6  UNL     1      34.577  47.955  23.768  1.00  0.00    -0.269 OA
ENDBRANCH   9  14
ENDBRANCH   7   9
ENDBRANCH   4   7
BRANCH   1  17
HETATM   17  O2  UNL     1      31.043  41.527  22.506  1.00  0.00    -0.312 OA
BRANCH  17  18
HETATM   18  C2  UNL     1      29.710  41.240  22.758  1.00  0.00     0.255 C 
HETATM   19  C1  UNL     1      28.805  40.869  21.666  1.00  0.00     0.126 C 
HETATM   20  O1  UNL     1      29.337  41.317  23.962  1.00  0.00    -0.266 OA
ENDBRANCH  17  18
ENDBRANCH   1  17
TORSDOF 6
ENDMDL
MODEL 3
REMARK VINA RESULT: -7.038383104      2.998      6.372
REMARK  6 active torsions:
REMARK  status: ('A' for Active; 'I' for Inactive)
REMARK    1  A    between atoms: C2_2  and  O2_4 
REMARK    2  A    between atoms: O2_4  and  C3_5 
REMARK    3  A    between atoms: C5_8  and  C6_9 
REMARK    4  A    between atoms: C6_9  and  C7_11 
REMARK    5  A    between atoms: C7_11  and  C8_16 
REMARK    6  A    between atoms: N1_12  and  O5_14 
ROOT
HETATM    1  C3  UNL     1      30.793  43.089  22.356  1.00  0.00     0.179 C 
HETATM    2  C4  UNL     1      32.168  42.507  22.608  1.00  0.00     0.206 C 
HETATM    3  O3  UNL     1      33.066  43.345  21.951  1.00  0.00    -0.351 OA
HETATM    4  C5  UNL     1      33.095  44.621  22.537  1.00  0.00     0.337 C 
HETATM    5  O7  UNL     1      31.914  45.232  22.116  1.00  0.00    -0.351 OA
HETATM    6  C9  UNL     1      30.853  44.555  22.706  1.00  0.00     0.206 C 
ENDROOT
BRANCH   4   7
HETATM    7  C6  UNL     1      34.298  45.330  22.040  1.00  0.00     0.237 C 
HETATM    8  O4  UNL     1      34.387  46.571  22.328  1.00  0.00    -0.285 OA
BRANCH   7   9
HETATM    9  C7  UNL     1      35.366  44.744  21.270  1.00  0.00     0.170 C 
HETATM   10  N1  UNL     1      35.306  44.424  20.033  1.00  0.00    -0.261 N 
ATOM     11  H1  UNL     1      36.153  44.019  19.635  1.00  0.00     0.194 HD
BRANCH  10  12
HETATM   12  O5  UNL     1      34.264  44.556  19.191  1.00  0.00    -0.289 OA
ATOM     13  H5  UNL     1      33.400  44.902  19.379  1.00  0.00     0.244 HD
ENDBRANCH  10  12
BRANCH   9  14
HETATM   14  C8  UNL     1      36.645  44.482  21.941  1.00  0.00     0.287 C 
HETATM   15  N2  UNL     1      37.006  43.192  22.392  1.00  0.00    -0.056 NA
HETATM   16  O6  UNL     1      37.481  45.406  22.144  1.00  0.00    -0.269 OA
ENDBRANCH   9  14
ENDBRANCH   7   9
ENDBRANCH   4   7
BRANCH   1  17
HETATM   17  O2  UNL     1      29.789  42.495  23.120  1.00  0.00    -0.312 OA
BRANCH  17  18
HETATM   18  C2  UNL     1      29.267  41.244  22.835  1.00  0.00     0.255 C 
HETATM   19  C1  UNL     1      28.894  40.883  21.464  1.00  0.00     0.126 C 
HETATM   20  O1  UNL     1      29.139  40.453  23.812  1.00  0.00    -0.266 OA
ENDBRANCH  17  18
ENDBRANCH   1  17
TORSDOF 6
ENDMDL
MODEL 4
REMARK VINA RESULT: -6.941530377      3.274      6.491
REMARK  6 active torsions:
REMARK  status: ('A' for Active; 'I' for Inactive)
REMARK    1  A    between atoms: C2_2  and  O2_4 
REMARK    2  A    between atoms: O2_4  and  C3_5 
REMARK    3  A    between atoms: C5_8  and  C6_9 
REMARK    4  A    between atoms: C6_9  and  C7_11 
REMARK    5  A    between atoms: C7_11  and  C8_16 
REMARK    6  A    between atoms: N1_12  and  O5_14 
ROOT
HETATM    1  C3  UNL     1      31.843  42.703  21.877  1.00  0.00     0.179 C 
HETATM    2  C4  UNL     1      33.199  42.452  21.251  1.00  0.00     0.206 C 
HETATM    3  O3  UNL     1      33.744  43.708  20.999  1.00  0.00    -0.351 OA
HETATM    4  C5  UNL     1      34.014  44.395  22.193  1.00  0.00     0.337 C 
HETATM    5  O7  UNL     1      32.765  44.814  22.653  1.00  0.00    -0.351 OA
HETATM    6  C9  UNL     1      32.044  43.681  23.008  1.00  0.00     0.206 C 
ENDROOT
BRANCH   4   7
HETATM    7  C6  UNL     1      34.904  45.538  21.877  1.00  0.00     0.237 C 
HETATM    8  O4  UNL     1      36.160  45.324  21.969  1.00  0.00    -0.285 OA
BRANCH   7   9
HETATM    9  C7  UNL     1      34.478  46.855  21.479  1.00  0.00     0.170 C 
HETATM   10  N1  UNL     1      33.654  47.121  20.537  1.00  0.00    -0.261 N 
ATOM     11  H1  UNL     1      33.458  48.110  20.381  1.00  0.00     0.194 HD
BRANCH  10  12
HETATM   12  O5  UNL     1      33.014  46.259  19.726  1.00  0.00    -0.289 OA
ATOM     13  H5  UNL     1      33.251  45.997  18.844  1.00  0.00     0.244 HD
ENDBRANCH  10  12
BRANCH   9  14
HETATM   14  C8  UNL     1      35.024  48.011  22.201  1.00  0.00     0.287 C 
HETATM   15  N2  UNL     1      35.491  49.165  21.529  1.00  0.00    -0.056 NA
HETATM   16  O6  UNL     1      35.100  48.022  23.461  1.00  0.00    -0.269 OA
ENDBRANCH   9  14
ENDBRANCH   7   9
ENDBRANCH   4   7
BRANCH   1  17
HETATM   17  O2  UNL     1      31.245  41.553  22.390  1.00  0.00    -0.312 OA
BRANCH  17  18
HETATM   18  C2  UNL     1      29.877  41.437  22.580  1.00  0.00     0.255 C 
HETATM   19  C1  UNL     1      28.964  41.393  21.434  1.00  0.00     0.126 C 
HETATM   20  O1  UNL     1      29.480  41.371  23.777  1.00  0.00    -0.266 OA
ENDBRANCH  17  18
ENDBRANCH   1  17
TORSDOF 6
ENDMDL
MODEL 5
REMARK VINA RESULT: -6.875018573      2.979      6.528
REMARK  6 active torsions:
REMARK  status: ('A' for Active; 'I' for Inactive)
REMARK    1  A    between atoms: C2_2  and  O2_4 
REMARK    2  A    between atoms: O2_4  and  C3_5 
REMARK    3  A    between atoms: C5_8  and  C6_9 
REMARK    4  A    between atoms: C6_9  and  C7_11 
REMARK    5  A    between atoms: C7_11  and  C8_16 
REMARK    6  A    between atoms: N1_12  and  O5_14 
ROOT
HETATM    1  C3  UNL     1      31.506  42.409  22.223  1.00  0.00     0.179 C 
HETATM    2  C4  UNL     1      32.428  43.142  23.176  1.00  0.00     0.206 C 
HETATM    3  O3  UNL     1      33.677  43.163  22.561  1.00  0.00    -0.351 OA
HETATM    4  C5  UNL     1      33.658  43.946  21.396  1.00  0.00     0.337 C 
HETATM    5  O7  UNL     1      32.990  43.165  20.453  1.00  0.00    -0.351 OA
HETATM    6  C9  UNL     1      31.668  43.042  20.864  1.00  0.00     0.206 C 
ENDROOT
BRANCH   4   7
HETATM    7  C6  UNL     1      35.059  44.221  21.000  1.00  0.00     0.237 C 
HETATM    8  O4  UNL     1      35.291  44.314  19.748  1.00  0.00    -0.285 OA
BRANCH   7   9
HETATM    9  C7  UNL     1      36.173  44.391  21.899  1.00  0.00     0.170 C 
HETATM   10  N1  UNL     1      36.794  43.452  22.506  1.00  0.00    -0.261 N 
ATOM     11  H1  UNL     1      37.563  43.742  23.110  1.00  0.00     0.194 HD
BRANCH  10  12
HETATM   12  O5  UNL     1      36.558  42.128  22.447  1.00  0.00    -0.289 OA
ATOM     13  H5  UNL     1      37.041  41.428  22.870  1.00  0.00     0.244 HD
ENDBRANCH  10  12
BRANCH   9  14
HETATM   14  C8  UNL     1      36.656  45.754  22.158  1.00  0.00     0.287 C 
HETATM   15  N2  UNL     1      35.775  46.853  22.276  1.00  0.00    -0.056 NA
HETATM   16  O6  UNL     1      37.887  46.000  22.287  1.00  0.00    -0.269 OA
ENDBRANCH   9  14
ENDBRANCH   7   9
ENDBRANCH   4   7
BRANCH   1  17
HETATM   17  O2  UNL     1      30.162  42.481  22.585  1.00  0.00    -0.312 OA
BRANCH  17  18
HETATM   18  C2  UNL     1      29.331  41.372  22.619  1.00  0.00     0.255 C 
HETATM   19  C1  UNL     1      28.578  40.965  21.429  1.00  0.00     0.126 C 
HETATM   20  O1  UNL     1      29.268  40.751  23.717  1.00  0.00    -0.266 OA
ENDBRANCH  17  18
ENDBRANCH   1  17
TORSDOF 6
ENDMDL
