MODEL 1
REMARK VINA RESULT: -6.177773632      0.000      0.000
REMARK  4 active torsions:
REMARK  status: ('A' for Active; 'I' for Inactive)
REMARK    1  A    between atoms: C1_2  and  N1_3 
REMARK    2  A    between atoms: C1_2  and  N2_12 
REMARK    3  A    between atoms: N1_3  and  C2_5 
REMARK    4  A    between atoms: N2_12  and  C9_14 
ROOT
HETATM    1  S1  UNL     1      -1.057   3.803   6.678  1.00  0.00    -0.041 SA
HETATM    2  C1  UNL     1      -1.190   5.401   6.917  1.00  0.00     0.168 C 
ENDROOT
BRANCH   2   3
HETATM    3  N1  UNL     1      -2.178   5.907   7.777  1.00  0.00    -0.363 N 
ATOM      4  H1  UNL     1      -1.874   6.246   8.689  1.00  0.00     0.162 HD
BRANCH   3   5
HETATM    5  C2  UNL     1      -3.600   5.990   7.476  1.00  0.00     0.083 C 
HETATM    6  C3  UNL     1      -3.710   6.348   6.002  1.00  0.00     0.025 C 
HETATM    7  C4  UNL     1      -5.006   6.961   5.609  1.00  0.00     0.002 C 
HETATM    8  C5  UNL     1      -4.964   8.486   5.607  1.00  0.00     0.000 C 
HETATM    9  C6  UNL     1      -4.849   9.077   6.970  1.00  0.00     0.000 C 
HETATM   10  C7  UNL     1      -3.809   8.412   7.841  1.00  0.00     0.002 C 
HETATM   11  C8  UNL     1      -4.301   7.067   8.288  1.00  0.00     0.025 C 
ENDBRANCH   3   5
ENDBRANCH   2   3
BRANCH   2  12
HETATM   12  N2  UNL     1      -0.293   6.249   6.227  1.00  0.00    -0.363 N 
ATOM     13  H2  UNL     1      -0.045   6.005   5.268  1.00  0.00     0.162 HD
BRANCH  12  14
HETATM   14  C9  UNL     1       0.289   7.436   6.795  1.00  0.00     0.083 C 
HETATM   15  C10 UNL     1      -0.437   8.642   6.243  1.00  0.00     0.025 C 
HETATM   16  C11 UNL     1       0.639   9.701   6.186  1.00  0.00     0.002 C 
HETATM   17  C12 UNL     1       1.785   8.905   5.558  1.00  0.00     0.002 C 
HETATM   18  C13 UNL     1       1.704   7.585   6.251  1.00  0.00     0.025 C 
ENDBRANCH  12  14
ENDBRANCH   2  12
TORSDOF 4
ENDMDL
MODEL 2
REMARK VINA RESULT: -6.158325432      3.123      5.458
REMARK  4 active torsions:
REMARK  status: ('A' for Active; 'I' for Inactive)
REMARK    1  A    between atoms: C1_2  and  N1_3 
REMARK    2  A    between atoms: C1_2  and  N2_12 
REMARK    3  A    between atoms: N1_3  and  C2_5 
REMARK    4  A    between atoms: N2_12  and  C9_14 
ROOT
HETATM    1  S1  UNL     1      -7.338   9.087   5.564  1.00  0.00    -0.041 SA
HETATM    2  C1  UNL     1      -5.872   8.866   6.219  1.00  0.00     0.168 C 
ENDROOT
BRANCH   2   3
HETATM    3  N1  UNL     1      -4.724   9.330   5.557  1.00  0.00    -0.363 N 
ATOM      4  H1  UNL     1      -4.469   8.865   4.686  1.00  0.00     0.162 HD
BRANCH   3   5
HETATM    5  C2  UNL     1      -3.868  10.417   6.007  1.00  0.00     0.083 C 
HETATM    6  C3  UNL     1      -3.199  10.984   4.765  1.00  0.00     0.025 C 
HETATM    7  C4  UNL     1      -1.945  11.738   5.027  1.00  0.00     0.002 C 
HETATM    8  C5  UNL     1      -0.694  10.881   4.871  1.00  0.00     0.000 C 
HETATM    9  C6  UNL     1      -0.550   9.845   5.933  1.00  0.00     0.000 C 
HETATM   10  C7  UNL     1      -1.818   9.076   6.216  1.00  0.00     0.002 C 
HETATM   11  C8  UNL     1      -2.786   9.943   6.965  1.00  0.00     0.025 C 
ENDBRANCH   3   5
ENDBRANCH   2   3
BRANCH   2  12
HETATM   12  N2  UNL     1      -5.797   8.187   7.458  1.00  0.00    -0.363 N 
ATOM     13  H2  UNL     1      -6.080   8.690   8.298  1.00  0.00     0.162 HD
BRANCH  12  14
HETATM   14  C9  UNL     1      -5.347   6.827   7.603  1.00  0.00     0.083 C 
HETATM   15  C10 UNL     1      -4.003   6.836   8.294  1.00  0.00     0.025 C 
HETATM   16  C11 UNL     1      -3.294   5.644   7.694  1.00  0.00     0.002 C 
HETATM   17  C12 UNL     1      -3.607   5.848   6.210  1.00  0.00     0.002 C 
HETATM   18  C13 UNL     1      -5.039   6.272   6.219  1.00  0.00     0.025 C 
ENDBRANCH  12  14
ENDBRANCH   2  12
TORSDOF 4
ENDMDL
MODEL 3
REMARK VINA RESULT: -6.115663485      2.690      4.342
REMARK  4 active torsions:
REMARK  status: ('A' for Active; 'I' for Inactive)
REMARK    1  A    between atoms: C1_2  and  N1_3 
REMARK    2  A    between atoms: C1_2  and  N2_12 
REMARK    3  A    between atoms: N1_3  and  C2_5 
REMARK    4  A    between atoms: N2_12  and  C9_14 
ROOT
HETATM    1  S1  UNL     1      -5.617   8.582   6.834  1.00  0.00    -0.041 SA
HETATM    2  C1  UNL     1      -4.124   8.511   7.462  1.00  0.00     0.168 C 
ENDROOT
BRANCH   2   3
HETATM    3  N1  UNL     1      -3.752   7.432   8.281  1.00  0.00    -0.363 N 
ATOM      4  H1  UNL     1      -3.561   7.636   9.262  1.00  0.00     0.162 HD
BRANCH   3   5
HETATM    5  C2  UNL     1      -3.616   6.049   7.848  1.00  0.00     0.083 C 
HETATM    6  C3  UNL     1      -3.030   5.284   9.024  1.00  0.00     0.025 C 
HETATM    7  C4  UNL     1      -2.357   4.010   8.660  1.00  0.00     0.002 C 
HETATM    8  C5  UNL     1      -0.851   4.166   8.475  1.00  0.00     0.000 C 
HETATM    9  C6  UNL     1      -0.482   4.959   7.268  1.00  0.00     0.000 C 
HETATM   10  C7  UNL     1      -1.281   6.231   7.102  1.00  0.00     0.002 C 
HETATM   11  C8  UNL     1      -2.677   5.904   6.661  1.00  0.00     0.025 C 
ENDBRANCH   3   5
ENDBRANCH   2   3
BRANCH   2  12
HETATM   12  N2  UNL     1      -3.233   9.569   7.168  1.00  0.00    -0.363 N 
ATOM     13  H2  UNL     1      -2.993  10.216   7.918  1.00  0.00     0.162 HD
BRANCH  12  14
HETATM   14  C9  UNL     1      -2.644   9.787   5.873  1.00  0.00     0.083 C 
HETATM   15  C10 UNL     1      -1.142   9.859   6.032  1.00  0.00     0.025 C 
HETATM   16  C11 UNL     1      -0.724  10.834   4.956  1.00  0.00     0.002 C 
HETATM   17  C12 UNL     1      -1.760  11.941   5.160  1.00  0.00     0.002 C 
HETATM   18  C13 UNL     1      -3.025  11.184   5.401  1.00  0.00     0.025 C 
ENDBRANCH  12  14
ENDBRANCH   2  12
TORSDOF 4
ENDMDL
MODEL 4
REMARK VINA RESULT: -5.982713093      2.484      4.156
REMARK  4 active torsions:
REMARK  status: ('A' for Active; 'I' for Inactive)
REMARK    1  A    between atoms: C1_2  and  N1_3 
REMARK    2  A    between atoms: C1_2  and  N2_12 
REMARK    3  A    between atoms: N1_3  and  C2_5 
REMARK    4  A    between atoms: N2_12  and  C9_14 
ROOT
HETATM    1  S1  UNL     1       2.599   7.874   5.946  1.00  0.00    -0.041 SA
HETATM    2  C1  UNL     1       1.023   7.695   6.280  1.00  0.00     0.168 C 
ENDROOT
BRANCH   2   3
HETATM    3  N1  UNL     1       0.456   6.412   6.347  1.00  0.00    -0.363 N 
ATOM      4  H1  UNL     1       0.559   5.814   5.528  1.00  0.00     0.162 HD
BRANCH   3   5
HETATM    5  C2  UNL     1      -0.266   5.865   7.486  1.00  0.00     0.083 C 
HETATM    6  C3  UNL     1      -0.020   4.365   7.474  1.00  0.00     0.025 C 
HETATM    7  C4  UNL     1      -1.031   3.565   8.215  1.00  0.00     0.002 C 
HETATM    8  C5  UNL     1      -2.138   3.028   7.315  1.00  0.00     0.000 C 
HETATM    9  C6  UNL     1      -3.043   4.090   6.792  1.00  0.00     0.000 C 
HETATM   10  C7  UNL     1      -2.320   5.304   6.257  1.00  0.00     0.002 C 
HETATM   11  C8  UNL     1      -1.764   6.110   7.393  1.00  0.00     0.025 C 
ENDBRANCH   3   5
ENDBRANCH   2   3
BRANCH   2  12
HETATM   12  N2  UNL     1       0.255   8.865   6.484  1.00  0.00    -0.363 N 
ATOM     13  H2  UNL     1       0.455   9.432   7.307  1.00  0.00     0.162 HD
BRANCH  12  14
HETATM   14  C9  UNL     1      -0.794   9.302   5.600  1.00  0.00     0.083 C 
HETATM   15  C10 UNL     1      -0.448  10.681   5.086  1.00  0.00     0.025 C 
HETATM   16  C11 UNL     1      -1.797  11.339   4.917  1.00  0.00     0.002 C 
HETATM   17  C12 UNL     1      -2.468  10.951   6.236  1.00  0.00     0.002 C 
HETATM   18  C13 UNL     1      -2.054   9.529   6.424  1.00  0.00     0.025 C 
ENDBRANCH  12  14
ENDBRANCH   2  12
TORSDOF 4
ENDMDL
MODEL 5
REMARK VINA RESULT: -5.982066297      2.782      4.305
REMARK  4 active torsions:
REMARK  status: ('A' for Active; 'I' for Inactive)
REMARK    1  A    between atoms: C1_2  and  N1_3 
REMARK    2  A    between atoms: C1_2  and  N2_12 
REMARK    3  A    between atoms: N1_3  and  C2_5 
REMARK    4  A    between atoms: N2_12  and  C9_14 
ROOT
HETATM    1  S1  UNL     1      -6.041   8.509   6.705  1.00  0.00    -0.041 SA
HETATM    2  C1  UNL     1      -4.421   8.466   6.679  1.00  0.00     0.168 C 
ENDROOT
BRANCH   2   3
HETATM    3  N1  UNL     1      -3.722   7.612   7.547  1.00  0.00    -0.363 N 
ATOM      4  H1  UNL     1      -3.337   8.024   8.397  1.00  0.00     0.162 HD
BRANCH   3   5
HETATM    5  C2  UNL     1      -3.501   6.188   7.338  1.00  0.00     0.083 C 
HETATM    6  C3  UNL     1      -3.078   5.614   8.680  1.00  0.00     0.025 C 
HETATM    7  C4  UNL     1      -2.337   4.328   8.598  1.00  0.00     0.002 C 
HETATM    8  C5  UNL     1      -0.824   4.514   8.605  1.00  0.00     0.000 C 
HETATM    9  C6  UNL     1      -0.299   5.146   7.361  1.00  0.00     0.000 C 
HETATM   10  C7  UNL     1      -1.087   6.352   6.907  1.00  0.00     0.002 C 
HETATM   11  C8  UNL     1      -2.400   5.917   6.326  1.00  0.00     0.025 C 
ENDBRANCH   3   5
ENDBRANCH   2   3
BRANCH   2  12
HETATM   12  N2  UNL     1      -3.752   9.320   5.771  1.00  0.00    -0.363 N 
ATOM     13  H2  UNL     1      -3.911   9.179   4.774  1.00  0.00     0.162 HD
BRANCH  12  14
HETATM   14  C9  UNL     1      -2.860  10.377   6.171  1.00  0.00     0.083 C 
HETATM   15  C10 UNL     1      -2.976  11.509   5.175  1.00  0.00     0.025 C 
HETATM   16  C11 UNL     1      -1.585  12.096   5.149  1.00  0.00     0.002 C 
HETATM   17  C12 UNL     1      -0.743  10.822   5.054  1.00  0.00     0.002 C 
HETATM   18  C13 UNL     1      -1.428   9.889   5.997  1.00  0.00     0.025 C 
ENDBRANCH  12  14
ENDBRANCH   2  12
TORSDOF 4
ENDMDL
