MODEL 1
REMARK VINA RESULT: -5.994888961      0.000      0.000
REMARK  3 active torsions:
REMARK  status: ('A' for Active; 'I' for Inactive)
REMARK    1  A    between atoms: C1_2  and  N1_3 
REMARK    2  A    between atoms: C1_2  and  N2_11 
REMARK    3  A    between atoms: N2_11  and  C8_13 
ROOT
HETATM    1  S1  UNL     1      -7.318   9.315   5.929  1.00  0.00    -0.041 SA
HETATM    2  C1  UNL     1      -5.715   9.059   5.809  1.00  0.00     0.173 C 
ENDROOT
BRANCH   2   3
HETATM    3  N1  UNL     1      -5.172   7.820   5.389  1.00  0.00    -0.341 N 
HETATM    4  C2  UNL     1      -4.845   6.956   6.289  1.00  0.00    -0.011 C 
HETATM    5  C3  UNL     1      -4.274   5.661   5.769  1.00  0.00     0.052 C 
HETATM    6  C7  UNL     1      -4.992   7.151   7.742  1.00  0.00     0.052 C 
HETATM    7  C4  UNL     1      -3.479   5.086   6.945  1.00  0.00     0.006 C 
HETATM    8  C5  UNL     1      -2.711   6.257   7.543  1.00  0.00     0.001 C 
HETATM    9  C6  UNL     1      -3.687   6.970   8.482  1.00  0.00     0.006 C 
ATOM     10  H1  UNL     1      -5.042   7.616   4.398  1.00  0.00     0.167 HD
ENDBRANCH   2   3
BRANCH   2  11
HETATM   11  N2  UNL     1      -4.831  10.109   6.141  1.00  0.00    -0.339 N 
ATOM     12  H2  UNL     1      -5.131  10.801   6.828  1.00  0.00     0.164 HD
BRANCH  11  13
HETATM   13  C8  UNL     1      -3.535  10.243   5.557  1.00  0.00     0.286 C 
HETATM   14  C9  UNL     1      -3.261  11.603   4.987  1.00  0.00     0.054 C 
HETATM   15  C10 UNL     1      -1.805  12.011   5.184  1.00  0.00     0.005 C 
HETATM   16  C11 UNL     1      -0.967  10.773   4.941  1.00  0.00     0.028 C 
HETATM   17  C12 UNL     1      -1.291   9.685   5.933  1.00  0.00     0.235 C 
HETATM   18  N3  UNL     1      -2.568   9.894   6.597  1.00  0.00    -0.054 N 
ATOM     19  H32 UNL     1      -2.522  10.580   7.349  1.00  0.00     0.279 HD
ATOM     20  H31 UNL     1      -2.860   9.099   7.165  1.00  0.00     0.279 HD
ENDBRANCH  11  13
ENDBRANCH   2  11
TORSDOF 3
ENDMDL
MODEL 2
REMARK VINA RESULT: -5.960599544      3.130      6.149
REMARK  3 active torsions:
REMARK  status: ('A' for Active; 'I' for Inactive)
REMARK    1  A    between atoms: C1_2  and  N1_3 
REMARK    2  A    between atoms: C1_2  and  N2_11 
REMARK    3  A    between atoms: N2_11  and  C8_13 
ROOT
HETATM    1  S1  UNL     1      -4.244   6.101   6.103  1.00  0.00    -0.041 SA
HETATM    2  C1  UNL     1      -3.184   6.794   7.125  1.00  0.00     0.173 C 
ENDROOT
BRANCH   2   3
HETATM    3  N1  UNL     1      -2.658   8.092   6.911  1.00  0.00    -0.341 N 
HETATM    4  C2  UNL     1      -1.487   8.200   6.383  1.00  0.00    -0.011 C 
HETATM    5  C3  UNL     1      -0.992   9.611   6.186  1.00  0.00     0.052 C 
HETATM    6  C7  UNL     1      -0.635   7.070   5.975  1.00  0.00     0.052 C 
HETATM    7  C4  UNL     1       0.532   9.480   6.102  1.00  0.00     0.006 C 
HETATM    8  C5  UNL     1       0.930   8.510   7.206  1.00  0.00     0.001 C 
HETATM    9  C6  UNL     1       0.726   7.106   6.633  1.00  0.00     0.006 C 
ATOM     10  H1  UNL     1      -3.193   8.921   7.170  1.00  0.00     0.167 HD
ENDBRANCH   2   3
BRANCH   2  11
HETATM   11  N2  UNL     1      -2.768   6.073   8.265  1.00  0.00    -0.339 N 
ATOM     12  H2  UNL     1      -2.754   6.552   9.167  1.00  0.00     0.164 HD
BRANCH  11  13
HETATM   13  C8  UNL     1      -2.365   4.705   8.212  1.00  0.00     0.286 C 
HETATM   14  C9  UNL     1      -0.956   4.466   8.665  1.00  0.00     0.054 C 
HETATM   15  C10 UNL     1      -0.822   3.141   9.410  1.00  0.00     0.005 C 
HETATM   16  C11 UNL     1      -1.690   2.140   8.677  1.00  0.00     0.028 C 
HETATM   17  C12 UNL     1      -3.141   2.548   8.697  1.00  0.00     0.235 C 
HETATM   18  N3  UNL     1      -3.323   3.954   9.022  1.00  0.00    -0.054 N 
ATOM     19  H32 UNL     1      -3.244   4.148  10.021  1.00  0.00     0.279 HD
ATOM     20  H31 UNL     1      -4.284   4.272   8.905  1.00  0.00     0.279 HD
ENDBRANCH  11  13
ENDBRANCH   2  11
TORSDOF 3
ENDMDL
MODEL 3
REMARK VINA RESULT: -5.945395317      1.895      2.680
REMARK  3 active torsions:
REMARK  status: ('A' for Active; 'I' for Inactive)
REMARK    1  A    between atoms: C1_2  and  N1_3 
REMARK    2  A    between atoms: C1_2  and  N2_11 
REMARK    3  A    between atoms: N2_11  and  C8_13 
ROOT
HETATM    1  S1  UNL     1      -4.938   7.295   5.948  1.00  0.00    -0.041 SA
HETATM    2  C1  UNL     1      -3.742   7.647   6.995  1.00  0.00     0.173 C 
ENDROOT
BRANCH   2   3
HETATM    3  N1  UNL     1      -3.157   6.671   7.838  1.00  0.00    -0.341 N 
HETATM    4  C2  UNL     1      -2.203   5.943   7.365  1.00  0.00    -0.011 C 
HETATM    5  C3  UNL     1      -1.629   4.925   8.318  1.00  0.00     0.052 C 
HETATM    6  C7  UNL     1      -1.660   6.043   5.999  1.00  0.00     0.052 C 
HETATM    7  C4  UNL     1      -0.976   3.873   7.417  1.00  0.00     0.006 C 
HETATM    8  C5  UNL     1      -1.962   3.621   6.285  1.00  0.00     0.001 C 
HETATM    9  C6  UNL     1      -1.721   4.728   5.257  1.00  0.00     0.006 C 
ATOM     10  H1  UNL     1      -3.482   6.546   8.796  1.00  0.00     0.167 HD
ENDBRANCH   2   3
BRANCH   2  11
HETATM   11  N2  UNL     1      -3.272   8.976   7.070  1.00  0.00    -0.339 N 
ATOM     12  H2  UNL     1      -3.552   9.548   7.868  1.00  0.00     0.164 HD
BRANCH  11  13
HETATM   13  C8  UNL     1      -2.424   9.555   6.079  1.00  0.00     0.286 C 
HETATM   14  C9  UNL     1      -2.880  10.900   5.596  1.00  0.00     0.054 C 
HETATM   15  C10 UNL     1      -1.700  11.821   5.301  1.00  0.00     0.005 C 
HETATM   16  C11 UNL     1      -0.635  10.968   4.645  1.00  0.00     0.028 C 
HETATM   17  C12 UNL     1      -0.160   9.872   5.566  1.00  0.00     0.235 C 
HETATM   18  N3  UNL     1      -1.084   9.621   6.660  1.00  0.00    -0.054 N 
ATOM     19  H32 UNL     1      -1.006  10.303   7.415  1.00  0.00     0.279 HD
ATOM     20  H31 UNL     1      -0.843   8.796   7.208  1.00  0.00     0.279 HD
ENDBRANCH  11  13
ENDBRANCH   2  11
TORSDOF 3
ENDMDL
MODEL 4
REMARK VINA RESULT: -5.938224766      3.114      6.247
REMARK  3 active torsions:
REMARK  status: ('A' for Active; 'I' for Inactive)
REMARK    1  A    between atoms: C1_2  and  N1_3 
REMARK    2  A    between atoms: C1_2  and  N2_11 
REMARK    3  A    between atoms: N2_11  and  C8_13 
ROOT
HETATM    1  S1  UNL     1      -4.159   5.911   5.904  1.00  0.00    -0.041 SA
HETATM    2  C1  UNL     1      -2.896   6.285   6.860  1.00  0.00     0.173 C 
ENDROOT
BRANCH   2   3
HETATM    3  N1  UNL     1      -1.873   7.179   6.455  1.00  0.00    -0.341 N 
HETATM    4  C2  UNL     1      -2.052   8.442   6.641  1.00  0.00    -0.011 C 
HETATM    5  C3  UNL     1      -0.923   9.331   6.185  1.00  0.00     0.052 C 
HETATM    6  C7  UNL     1      -3.249   9.046   7.251  1.00  0.00     0.052 C 
HETATM    7  C4  UNL     1      -1.568  10.706   5.985  1.00  0.00     0.006 C 
HETATM    8  C5  UNL     1      -2.886  10.450   5.267  1.00  0.00     0.001 C 
HETATM    9  C6  UNL     1      -3.896  10.076   6.353  1.00  0.00     0.006 C 
ATOM     10  H1  UNL     1      -1.016   6.831   6.026  1.00  0.00     0.167 HD
ENDBRANCH   2   3
BRANCH   2  11
HETATM   11  N2  UNL     1      -2.812   5.695   8.139  1.00  0.00    -0.339 N 
ATOM     12  H2  UNL     1      -3.153   6.222   8.944  1.00  0.00     0.164 HD
BRANCH  11  13
HETATM   13  C8  UNL     1      -2.270   4.392   8.356  1.00  0.00     0.286 C 
HETATM   14  C9  UNL     1      -1.013   4.383   9.173  1.00  0.00     0.054 C 
HETATM   15  C10 UNL     1      -0.943   3.160  10.084  1.00  0.00     0.005 C 
HETATM   16  C11 UNL     1      -1.480   1.991   9.285  1.00  0.00     0.028 C 
HETATM   17  C12 UNL     1      -2.919   2.205   8.891  1.00  0.00     0.235 C 
HETATM   18  N3  UNL     1      -3.324   3.598   8.986  1.00  0.00    -0.054 N 
ATOM     19  H32 UNL     1      -3.531   3.892   9.941  1.00  0.00     0.279 HD
ATOM     20  H31 UNL     1      -4.249   3.775   8.594  1.00  0.00     0.279 HD
ENDBRANCH  11  13
ENDBRANCH   2  11
TORSDOF 3
ENDMDL
MODEL 5
REMARK VINA RESULT: -5.859066911      3.054      5.834
REMARK  3 active torsions:
REMARK  status: ('A' for Active; 'I' for Inactive)
REMARK    1  A    between atoms: C1_2  and  N1_3 
REMARK    2  A    between atoms: C1_2  and  N2_11 
REMARK    3  A    between atoms: N2_11  and  C8_13 
ROOT
HETATM    1  S1  UNL     1       1.169   8.684   7.058  1.00  0.00    -0.041 SA
HETATM    2  C1  UNL     1      -0.178   8.781   6.150  1.00  0.00     0.173 C 
ENDROOT
BRANCH   2   3
HETATM    3  N1  UNL     1      -0.573   9.978   5.502  1.00  0.00    -0.341 N 
HETATM    4  C2  UNL     1      -1.691  10.522   5.845  1.00  0.00    -0.011 C 
HETATM    5  C3  UNL     1      -2.047  11.791   5.113  1.00  0.00     0.052 C 
HETATM    6  C7  UNL     1      -2.607   9.997   6.872  1.00  0.00     0.052 C 
HETATM    7  C4  UNL     1      -3.567  11.912   5.260  1.00  0.00     0.006 C 
HETATM    8  C5  UNL     1      -4.124  10.518   5.009  1.00  0.00     0.001 C 
HETATM    9  C6  UNL     1      -4.002   9.766   6.336  1.00  0.00     0.006 C 
ATOM     10  H1  UNL     1       0.012  10.399   4.780  1.00  0.00     0.167 HD
ENDBRANCH   2   3
BRANCH   2  11
HETATM   11  N2  UNL     1      -0.987   7.634   6.006  1.00  0.00    -0.339 N 
ATOM     12  H2  UNL     1      -1.560   7.543   5.166  1.00  0.00     0.164 HD
BRANCH  11  13
HETATM   13  C8  UNL     1      -1.038   6.595   6.983  1.00  0.00     0.286 C 
HETATM   14  C9  UNL     1      -2.412   6.335   7.525  1.00  0.00     0.054 C 
HETATM   15  C10 UNL     1      -2.633   4.851   7.807  1.00  0.00     0.005 C 
HETATM   16  C11 UNL     1      -1.343   4.322   8.396  1.00  0.00     0.028 C 
HETATM   17  C12 UNL     1      -0.197   4.453   7.424  1.00  0.00     0.235 C 
HETATM   18  N3  UNL     1      -0.475   5.400   6.356  1.00  0.00    -0.054 N 
ATOM     19  H32 UNL     1      -1.068   5.015   5.621  1.00  0.00     0.279 HD
ATOM     20  H31 UNL     1       0.339   5.599   5.774  1.00  0.00     0.279 HD
ENDBRANCH  11  13
ENDBRANCH   2  11
TORSDOF 3
ENDMDL
