MODEL 1
REMARK VINA RESULT: -6.221919591      0.000      0.000
REMARK  4 active torsions:
REMARK  status: ('A' for Active; 'I' for Inactive)
REMARK    1  A    between atoms: C5_5  and  N1_6 
REMARK    2  A    between atoms: N1_6  and  C6_8 
REMARK    3  A    between atoms: C6_8  and  N2_10 
REMARK    4  A    between atoms: N2_10  and  C7_12 
ROOT
HETATM    1  N1  UNL     1      -3.200   6.995   7.844  1.00  0.00    -0.363 N 
ATOM      2  H1  UNL     1      -3.112   7.364   8.791  1.00  0.00     0.162 HD
ENDROOT
BRANCH   1   3
HETATM    3  C5  UNL     1      -2.833   7.822   6.716  1.00  0.00     0.084 C 
HETATM    4  C4  UNL     1      -1.397   7.701   6.340  1.00  0.00     0.025 C 
HETATM    5  C3  UNL     1      -0.605   8.960   6.498  1.00  0.00     0.006 C 
HETATM    6  C2  UNL     1      -1.242  10.212   6.001  1.00  0.00    -0.015 C 
HETATM    7  C1  UNL     1      -0.542  10.786   4.786  1.00  0.00     0.010 C 
HETATM    8  C12 UNL     1      -2.692   9.997   5.719  1.00  0.00    -0.013 C 
HETATM    9  C11 UNL     1      -3.253   9.254   6.941  1.00  0.00     0.029 C 
HETATM   10  C13 UNL     1      -3.469  11.270   5.532  1.00  0.00     0.010 C 
ENDBRANCH   1   3
BRANCH   1  11
HETATM   11  C6  UNL     1      -3.679   5.677   7.647  1.00  0.00     0.168 C 
HETATM   12  S1  UNL     1      -5.054   5.465   6.758  1.00  0.00    -0.041 SA
BRANCH  11  13
HETATM   13  N2  UNL     1      -3.015   4.576   8.191  1.00  0.00    -0.359 N 
ATOM     14  H2  UNL     1      -3.427   4.164   9.029  1.00  0.00     0.162 HD
BRANCH  13  15
HETATM   15  C7  UNL     1      -1.817   3.962   7.701  1.00  0.00     0.021 C 
HETATM   16  C8  UNL     1      -1.722   3.959   6.190  1.00  0.00     0.037 C 
HETATM   17  C9  UNL     1      -0.624   4.675   8.296  1.00  0.00     0.037 C 
HETATM   18  C10 UNL     1      -1.772   2.520   8.210  1.00  0.00     0.037 C 
ENDBRANCH  13  15
ENDBRANCH  11  13
ENDBRANCH   1  11
TORSDOF 4
ENDMDL
MODEL 2
REMARK VINA RESULT: -6.177740572      0.048      1.070
REMARK  4 active torsions:
REMARK  status: ('A' for Active; 'I' for Inactive)
REMARK    1  A    between atoms: C5_5  and  N1_6 
REMARK    2  A    between atoms: N1_6  and  C6_8 
REMARK    3  A    between atoms: C6_8  and  N2_10 
REMARK    4  A    between atoms: N2_10  and  C7_12 
ROOT
HETATM    1  N1  UNL     1      -3.193   6.970   7.831  1.00  0.00    -0.363 N 
ATOM      2  H1  UNL     1      -3.078   7.323   8.782  1.00  0.00     0.162 HD
ENDROOT
BRANCH   1   3
HETATM    3  C5  UNL     1      -2.830   7.806   6.709  1.00  0.00     0.084 C 
HETATM    4  C4  UNL     1      -1.393   7.690   6.330  1.00  0.00     0.025 C 
HETATM    5  C3  UNL     1      -0.604   8.950   6.496  1.00  0.00     0.006 C 
HETATM    6  C2  UNL     1      -1.245  10.204   6.009  1.00  0.00    -0.015 C 
HETATM    7  C1  UNL     1      -0.547  10.787   4.796  1.00  0.00     0.010 C 
HETATM    8  C12 UNL     1      -2.694   9.988   5.726  1.00  0.00    -0.013 C 
HETATM    9  C11 UNL     1      -3.252   9.235   6.944  1.00  0.00     0.029 C 
HETATM   10  C13 UNL     1      -3.473  11.261   5.549  1.00  0.00     0.010 C 
ENDBRANCH   1   3
BRANCH   1  11
HETATM   11  C6  UNL     1      -3.708   5.667   7.624  1.00  0.00     0.168 C 
HETATM   12  S1  UNL     1      -5.065   5.494   6.702  1.00  0.00    -0.041 SA
BRANCH  11  13
HETATM   13  N2  UNL     1      -3.090   4.547   8.187  1.00  0.00    -0.359 N 
ATOM     14  H2  UNL     1      -3.577   4.102   8.966  1.00  0.00     0.162 HD
BRANCH  13  15
HETATM   15  C7  UNL     1      -1.847   3.957   7.789  1.00  0.00     0.021 C 
HETATM   16  C8  UNL     1      -0.637   4.686   8.335  1.00  0.00     0.037 C 
HETATM   17  C9  UNL     1      -1.829   2.512   8.232  1.00  0.00     0.037 C 
HETATM   18  C10 UNL     1      -1.784   3.955   6.260  1.00  0.00     0.037 C 
ENDBRANCH  13  15
ENDBRANCH  11  13
ENDBRANCH   1  11
TORSDOF 4
ENDMDL
MODEL 3
REMARK VINA RESULT: -6.156768931      1.039      1.301
REMARK  4 active torsions:
REMARK  status: ('A' for Active; 'I' for Inactive)
REMARK    1  A    between atoms: C5_5  and  N1_6 
REMARK    2  A    between atoms: N1_6  and  C6_8 
REMARK    3  A    between atoms: C6_8  and  N2_10 
REMARK    4  A    between atoms: N2_10  and  C7_12 
ROOT
HETATM    1  N1  UNL     1      -2.806   6.997   7.505  1.00  0.00    -0.363 N 
ATOM      2  H1  UNL     1      -2.958   7.436   8.413  1.00  0.00     0.162 HD
ENDROOT
BRANCH   1   3
HETATM    3  C5  UNL     1      -1.943   7.635   6.536  1.00  0.00     0.084 C 
HETATM    4  C4  UNL     1      -0.561   7.076   6.521  1.00  0.00     0.025 C 
HETATM    5  C3  UNL     1       0.505   8.046   6.919  1.00  0.00     0.006 C 
HETATM    6  C2  UNL     1       0.414   9.412   6.333  1.00  0.00    -0.015 C 
HETATM    7  C1  UNL     1       1.531   9.706   5.352  1.00  0.00     0.010 C 
HETATM    8  C12 UNL     1      -0.917   9.631   5.694  1.00  0.00    -0.013 C 
HETATM    9  C11 UNL     1      -1.957   9.134   6.709  1.00  0.00     0.029 C 
HETATM   10  C13 UNL     1      -1.206  11.070   5.373  1.00  0.00     0.010 C 
ENDBRANCH   1   3
BRANCH   1  11
HETATM   11  C6  UNL     1      -3.442   5.767   7.205  1.00  0.00     0.168 C 
HETATM   12  S1  UNL     1      -4.476   5.709   5.920  1.00  0.00    -0.041 SA
BRANCH  11  13
HETATM   13  N2  UNL     1      -3.210   4.625   7.975  1.00  0.00    -0.359 N 
ATOM     14  H2  UNL     1      -3.933   4.377   8.650  1.00  0.00     0.162 HD
BRANCH  13  15
HETATM   15  C7  UNL     1      -2.065   3.765   7.919  1.00  0.00     0.021 C 
HETATM   16  C8  UNL     1      -1.479   3.639   6.529  1.00  0.00     0.037 C 
HETATM   17  C9  UNL     1      -1.019   4.283   8.880  1.00  0.00     0.037 C 
HETATM   18  C10 UNL     1      -2.480   2.379   8.418  1.00  0.00     0.037 C 
ENDBRANCH  13  15
ENDBRANCH  11  13
ENDBRANCH   1  11
TORSDOF 4
ENDMDL
MODEL 4
REMARK VINA RESULT: -5.985116554      1.867      2.875
REMARK  4 active torsions:
REMARK  status: ('A' for Active; 'I' for Inactive)
REMARK    1  A    between atoms: C5_5  and  N1_6 
REMARK    2  A    between atoms: N1_6  and  C6_8 
REMARK    3  A    between atoms: C6_8  and  N2_10 
REMARK    4  A    between atoms: N2_10  and  C7_12 
ROOT
HETATM    1  N1  UNL     1      -2.517   5.937   7.640  1.00  0.00    -0.363 N 
ATOM      2  H1  UNL     1      -2.233   6.074   8.610  1.00  0.00     0.162 HD
ENDROOT
BRANCH   1   3
HETATM    3  C5  UNL     1      -2.246   6.966   6.661  1.00  0.00     0.084 C 
HETATM    4  C4  UNL     1      -0.817   7.015   6.240  1.00  0.00     0.025 C 
HETATM    5  C3  UNL     1      -0.109   8.285   6.593  1.00  0.00     0.006 C 
HETATM    6  C2  UNL     1      -0.846   9.552   6.330  1.00  0.00    -0.015 C 
HETATM    7  C1  UNL     1      -0.227  10.371   5.215  1.00  0.00     0.010 C 
HETATM    8  C12 UNL     1      -2.287   9.282   6.045  1.00  0.00    -0.013 C 
HETATM    9  C11 UNL     1      -2.754   8.306   7.135  1.00  0.00     0.029 C 
HETATM   10  C13 UNL     1      -3.154  10.509   6.094  1.00  0.00     0.010 C 
ENDBRANCH   1   3
BRANCH   1  11
HETATM   11  C6  UNL     1      -3.175   4.740   7.264  1.00  0.00     0.168 C 
HETATM   12  S1  UNL     1      -2.566   3.305   7.806  1.00  0.00    -0.041 SA
BRANCH  11  13
HETATM   13  N2  UNL     1      -4.311   4.762   6.451  1.00  0.00    -0.359 N 
ATOM     14  H2  UNL     1      -4.185   4.458   5.485  1.00  0.00     0.162 HD
BRANCH  13  15
HETATM   15  C7  UNL     1      -5.633   5.166   6.828  1.00  0.00     0.021 C 
HETATM   16  C8  UNL     1      -5.838   5.216   8.327  1.00  0.00     0.037 C 
HETATM   17  C9  UNL     1      -5.923   6.518   6.217  1.00  0.00     0.037 C 
HETATM   18  C10 UNL     1      -6.629   4.178   6.217  1.00  0.00     0.037 C 
ENDBRANCH  13  15
ENDBRANCH  11  13
ENDBRANCH   1  11
TORSDOF 4
ENDMDL
MODEL 5
REMARK VINA RESULT: -5.960238928      1.825      2.807
REMARK  4 active torsions:
REMARK  status: ('A' for Active; 'I' for Inactive)
REMARK    1  A    between atoms: C5_5  and  N1_6 
REMARK    2  A    between atoms: N1_6  and  C6_8 
REMARK    3  A    between atoms: C6_8  and  N2_10 
REMARK    4  A    between atoms: N2_10  and  C7_12 
ROOT
HETATM    1  N1  UNL     1      -2.298   5.884   7.621  1.00  0.00    -0.363 N 
ATOM      2  H1  UNL     1      -1.949   6.002   8.572  1.00  0.00     0.162 HD
ENDROOT
BRANCH   1   3
HETATM    3  C5  UNL     1      -2.087   6.931   6.646  1.00  0.00     0.084 C 
HETATM    4  C4  UNL     1      -0.666   7.054   6.213  1.00  0.00     0.025 C 
HETATM    5  C3  UNL     1      -0.020   8.356   6.568  1.00  0.00     0.006 C 
HETATM    6  C2  UNL     1      -0.823   9.586   6.318  1.00  0.00    -0.015 C 
HETATM    7  C1  UNL     1      -0.255  10.441   5.202  1.00  0.00     0.010 C 
HETATM    8  C12 UNL     1      -2.250   9.245   6.043  1.00  0.00    -0.013 C 
HETATM    9  C11 UNL     1      -2.659   8.241   7.131  1.00  0.00     0.029 C 
HETATM   10  C13 UNL     1      -3.177  10.426   6.105  1.00  0.00     0.010 C 
ENDBRANCH   1   3
BRANCH   1  11
HETATM   11  C6  UNL     1      -2.985   4.698   7.268  1.00  0.00     0.168 C 
HETATM   12  S1  UNL     1      -2.423   3.260   7.852  1.00  0.00    -0.041 SA
BRANCH  11  13
HETATM   13  N2  UNL     1      -4.112   4.731   6.442  1.00  0.00    -0.359 N 
ATOM     14  H2  UNL     1      -3.984   4.402   5.485  1.00  0.00     0.162 HD
BRANCH  13  15
HETATM   15  C7  UNL     1      -5.426   5.179   6.794  1.00  0.00     0.021 C 
HETATM   16  C8  UNL     1      -5.786   6.517   6.183  1.00  0.00     0.037 C 
HETATM   17  C9  UNL     1      -6.429   4.128   6.375  1.00  0.00     0.037 C 
HETATM   18  C10 UNL     1      -5.505   5.286   8.319  1.00  0.00     0.037 C 
ENDBRANCH  13  15
ENDBRANCH  11  13
ENDBRANCH   1  11
TORSDOF 4
ENDMDL
