MODEL 1
REMARK VINA RESULT: -6.299182357      0.000      0.000
REMARK  10 active torsions:
REMARK  status: ('A' for Active; 'I' for Inactive)
REMARK    1  A    between atoms: C3_3  and  C4_4 
REMARK    2  A    between atoms: C4_4  and  C5_5 
REMARK    3  A    between atoms: C5_5  and  C6_6 
REMARK    4  A    between atoms: C6_6  and  C7_7 
REMARK    5  A    between atoms: C7_7  and  C8_8 
REMARK       I    between atoms: C8_8  and  N1_10 
REMARK    6  A    between atoms: N1_10  and  C9_12 
REMARK    7  A    between atoms: N2_15  and  C12_16 
REMARK    8  A    between atoms: C12_16  and  O2_17 
REMARK    9  A    between atoms: C12_16  and  N3_19 
REMARK   10  A    between atoms: N3_19  and  C13_20 
ROOT
HETATM    1  C1  UNL     1      56.628  12.920   0.010  1.00  0.00     0.012 C 
HETATM    2  C2  UNL     1      56.508  12.353   1.043  1.00  0.00    -0.117 C 
HETATM    3  C3  UNL     1      56.354  11.653   2.305  1.00  0.00     0.093 C 
ENDROOT
BRANCH   3   4
HETATM    4  C4  UNL     1      55.375  10.482   2.232  1.00  0.00     0.012 C 
BRANCH   4   5
HETATM    5  C5  UNL     1      55.736   9.529   1.142  1.00  0.00     0.001 C 
BRANCH   5   6
HETATM    6  C6  UNL     1      54.596   8.681   0.639  1.00  0.00     0.009 C 
BRANCH   6   7
HETATM    7  C7  UNL     1      54.227   9.086  -0.754  1.00  0.00     0.103 C 
BRANCH   7   8
HETATM    8  C8  UNL     1      53.792  10.445  -0.951  1.00  0.00     0.217 C 
HETATM    9  O1  UNL     1      54.321  11.168  -1.876  1.00  0.00    -0.274 OA
HETATM   10  N1  UNL     1      52.793  11.064  -0.196  1.00  0.00    -0.356 N 
ATOM     11  H1  UNL     1      52.337  10.506   0.526  1.00  0.00     0.162 HD
BRANCH  10  12
HETATM   12  C9  UNL     1      52.365  12.404  -0.354  1.00  0.00     0.087 C 
HETATM   13  C10 UNL     1      52.894  13.299   0.713  1.00  0.00     0.045 C 
HETATM   14  C11 UNL     1      52.476  14.719   0.481  1.00  0.00     0.129 C 
HETATM   15  N2  UNL     1      51.510  14.892  -0.563  1.00  0.00    -0.336 N 
HETATM   16  C19 UNL     1      50.632  13.876  -1.105  1.00  0.00     0.129 C 
HETATM   17  C20 UNL     1      50.836  12.567  -0.327  1.00  0.00     0.045 C 
BRANCH  15  18
HETATM   18  C12 UNL     1      51.368  16.240  -1.039  1.00  0.00     0.291 C 
BRANCH  18  19
HETATM   19  O2  UNL     1      50.124  16.525  -1.310  1.00  0.00    -0.322 OA
ATOM     20  H2  UNL     1      49.564  15.761  -1.230  1.00  0.00     0.222 HD
ENDBRANCH  18  19
BRANCH  18  21
HETATM   21  N3  UNL     1      52.426  17.098  -1.172  1.00  0.00    -0.404 NA
BRANCH  21  22
HETATM   22  C13 UNL     1      53.443  17.953  -1.243  1.00  0.00     0.167 C 
HETATM   23  C14 UNL     1      54.579  17.481  -2.167  1.00  0.00     0.039 C 
HETATM   24  C15 UNL     1      55.034  16.177  -1.508  1.00  0.00     0.003 C 
HETATM   25  C16 UNL     1      55.807  16.514  -0.259  1.00  0.00     0.000 C 
HETATM   26  C17 UNL     1      55.066  17.430   0.645  1.00  0.00     0.003 C 
HETATM   27  C18 UNL     1      54.156  18.400   0.034  1.00  0.00     0.039 C 
ENDBRANCH  21  22
ENDBRANCH  18  21
ENDBRANCH  15  18
ENDBRANCH  10  12
ENDBRANCH   7   8
ENDBRANCH   6   7
ENDBRANCH   5   6
ENDBRANCH   4   5
ENDBRANCH   3   4
TORSDOF 10
ENDMDL
MODEL 2
REMARK VINA RESULT: -6.268627685      3.670      5.787
REMARK  10 active torsions:
REMARK  status: ('A' for Active; 'I' for Inactive)
REMARK    1  A    between atoms: C3_3  and  C4_4 
REMARK    2  A    between atoms: C4_4  and  C5_5 
REMARK    3  A    between atoms: C5_5  and  C6_6 
REMARK    4  A    between atoms: C6_6  and  C7_7 
REMARK    5  A    between atoms: C7_7  and  C8_8 
REMARK       I    between atoms: C8_8  and  N1_10 
REMARK    6  A    between atoms: N1_10  and  C9_12 
REMARK    7  A    between atoms: N2_15  and  C12_16 
REMARK    8  A    between atoms: C12_16  and  O2_17 
REMARK    9  A    between atoms: C12_16  and  N3_19 
REMARK   10  A    between atoms: N3_19  and  C13_20 
ROOT
HETATM    1  C1  UNL     1      57.221  11.642   5.251  1.00  0.00     0.012 C 
HETATM    2  C2  UNL     1      57.320  11.325   4.115  1.00  0.00    -0.117 C 
HETATM    3  C3  UNL     1      57.435  10.944   2.720  1.00  0.00     0.093 C 
ENDROOT
BRANCH   3   4
HETATM    4  C4  UNL     1      56.514  11.742   1.796  1.00  0.00     0.012 C 
BRANCH   4   5
HETATM    5  C5  UNL     1      55.789  10.855   0.840  1.00  0.00     0.001 C 
BRANCH   5   6
HETATM    6  C6  UNL     1      54.671  10.049   1.449  1.00  0.00     0.009 C 
BRANCH   6   7
HETATM    7  C7  UNL     1      53.523  10.943   1.802  1.00  0.00     0.103 C 
BRANCH   7   8
HETATM    8  C8  UNL     1      52.731  11.457   0.715  1.00  0.00     0.217 C 
HETATM    9  O1  UNL     1      53.070  11.217  -0.505  1.00  0.00    -0.274 OA
HETATM   10  N1  UNL     1      51.570  12.216   0.882  1.00  0.00    -0.356 N 
ATOM     11  H1  UNL     1      51.263  12.398   1.837  1.00  0.00     0.162 HD
BRANCH  10  12
HETATM   12  C9  UNL     1      50.788  12.751  -0.170  1.00  0.00     0.087 C 
HETATM   13  C10 UNL     1      51.153  14.160  -0.488  1.00  0.00     0.045 C 
HETATM   14  C11 UNL     1      50.353  14.675  -1.646  1.00  0.00     0.129 C 
HETATM   15  N2  UNL     1      49.287  13.812  -2.063  1.00  0.00    -0.336 N 
HETATM   16  C19 UNL     1      48.666  12.764  -1.280  1.00  0.00     0.129 C 
HETATM   17  C20 UNL     1      49.279  12.758   0.129  1.00  0.00     0.045 C 
BRANCH  15  18
HETATM   18  C12 UNL     1      48.749  14.100  -3.364  1.00  0.00     0.291 C 
BRANCH  18  19
HETATM   19  O2  UNL     1      49.605  14.749  -4.104  1.00  0.00    -0.322 OA
ATOM     20  H2  UNL     1      49.167  15.316  -4.729  1.00  0.00     0.222 HD
ENDBRANCH  18  19
BRANCH  18  21
HETATM   21  N3  UNL     1      47.493  13.717  -3.752  1.00  0.00    -0.404 NA
BRANCH  21  22
HETATM   22  C13 UNL     1      46.274  13.390  -4.173  1.00  0.00     0.167 C 
HETATM   23  C14 UNL     1      45.893  14.043  -5.514  1.00  0.00     0.039 C 
HETATM   24  C15 UNL     1      45.956  15.538  -5.195  1.00  0.00     0.003 C 
HETATM   25  C16 UNL     1      44.759  15.901  -4.354  1.00  0.00     0.000 C 
HETATM   26  C17 UNL     1      44.609  15.026  -3.163  1.00  0.00     0.003 C 
HETATM   27  C18 UNL     1      45.062  13.640  -3.275  1.00  0.00     0.039 C 
ENDBRANCH  21  22
ENDBRANCH  18  21
ENDBRANCH  15  18
ENDBRANCH  10  12
ENDBRANCH   7   8
ENDBRANCH   6   7
ENDBRANCH   5   6
ENDBRANCH   4   5
ENDBRANCH   3   4
TORSDOF 10
ENDMDL
MODEL 3
REMARK VINA RESULT: -6.221971017      3.470      5.921
REMARK  10 active torsions:
REMARK  status: ('A' for Active; 'I' for Inactive)
REMARK    1  A    between atoms: C3_3  and  C4_4 
REMARK    2  A    between atoms: C4_4  and  C5_5 
REMARK    3  A    between atoms: C5_5  and  C6_6 
REMARK    4  A    between atoms: C6_6  and  C7_7 
REMARK    5  A    between atoms: C7_7  and  C8_8 
REMARK       I    between atoms: C8_8  and  N1_10 
REMARK    6  A    between atoms: N1_10  and  C9_12 
REMARK    7  A    between atoms: N2_15  and  C12_16 
REMARK    8  A    between atoms: C12_16  and  O2_17 
REMARK    9  A    between atoms: C12_16  and  N3_19 
REMARK   10  A    between atoms: N3_19  and  C13_20 
ROOT
HETATM    1  C1  UNL     1      58.110  10.839   2.655  1.00  0.00     0.012 C 
HETATM    2  C2  UNL     1      57.683  11.058   3.738  1.00  0.00    -0.117 C 
HETATM    3  C3  UNL     1      57.151  11.329   5.060  1.00  0.00     0.093 C 
ENDROOT
BRANCH   3   4
HETATM    4  C4  UNL     1      55.744  11.926   5.035  1.00  0.00     0.012 C 
BRANCH   4   5
HETATM    5  C5  UNL     1      54.800  11.081   4.248  1.00  0.00     0.001 C 
BRANCH   5   6
HETATM    6  C6  UNL     1      54.082  11.802   3.137  1.00  0.00     0.009 C 
BRANCH   6   7
HETATM    7  C7  UNL     1      53.645  10.827   2.087  1.00  0.00     0.103 C 
BRANCH   7   8
HETATM    8  C8  UNL     1      52.851  11.342   1.001  1.00  0.00     0.217 C 
HETATM    9  O1  UNL     1      53.227  11.165  -0.219  1.00  0.00    -0.274 OA
HETATM   10  N1  UNL     1      51.652  12.037   1.169  1.00  0.00    -0.356 N 
ATOM     11  H1  UNL     1      51.315  12.169   2.122  1.00  0.00     0.162 HD
BRANCH  10  12
HETATM   12  C9  UNL     1      50.866  12.573   0.120  1.00  0.00     0.087 C 
HETATM   13  C10 UNL     1      51.255  13.970  -0.223  1.00  0.00     0.045 C 
HETATM   14  C11 UNL     1      50.450  14.484  -1.378  1.00  0.00     0.129 C 
HETATM   15  N2  UNL     1      49.362  13.637  -1.769  1.00  0.00    -0.336 N 
HETATM   16  C19 UNL     1      48.731  12.613  -0.963  1.00  0.00     0.129 C 
HETATM   17  C20 UNL     1      49.362  12.615   0.438  1.00  0.00     0.045 C 
BRANCH  15  18
HETATM   18  C12 UNL     1      48.813  13.917  -3.067  1.00  0.00     0.291 C 
BRANCH  18  19
HETATM   19  O2  UNL     1      49.665  14.554  -3.822  1.00  0.00    -0.322 OA
ATOM     20  H2  UNL     1      49.259  15.291  -4.264  1.00  0.00     0.222 HD
ENDBRANCH  18  19
BRANCH  18  21
HETATM   21  N3  UNL     1      47.551  13.539  -3.439  1.00  0.00    -0.404 NA
BRANCH  21  22
HETATM   22  C13 UNL     1      46.349  13.147  -3.853  1.00  0.00     0.167 C 
HETATM   23  C14 UNL     1      45.204  14.047  -3.354  1.00  0.00     0.039 C 
HETATM   24  C15 UNL     1      45.306  13.915  -1.833  1.00  0.00     0.003 C 
HETATM   25  C16 UNL     1      44.791  12.556  -1.433  1.00  0.00     0.000 C 
HETATM   26  C17 UNL     1      45.440  11.453  -2.188  1.00  0.00     0.003 C 
HETATM   27  C18 UNL     1      45.866  11.726  -3.560  1.00  0.00     0.039 C 
ENDBRANCH  21  22
ENDBRANCH  18  21
ENDBRANCH  15  18
ENDBRANCH  10  12
ENDBRANCH   7   8
ENDBRANCH   6   7
ENDBRANCH   5   6
ENDBRANCH   4   5
ENDBRANCH   3   4
TORSDOF 10
ENDMDL
MODEL 4
REMARK VINA RESULT: -6.202558812      3.702      5.953
REMARK  10 active torsions:
REMARK  status: ('A' for Active; 'I' for Inactive)
REMARK    1  A    between atoms: C3_3  and  C4_4 
REMARK    2  A    between atoms: C4_4  and  C5_5 
REMARK    3  A    between atoms: C5_5  and  C6_6 
REMARK    4  A    between atoms: C6_6  and  C7_7 
REMARK    5  A    between atoms: C7_7  and  C8_8 
REMARK       I    between atoms: C8_8  and  N1_10 
REMARK    6  A    between atoms: N1_10  and  C9_12 
REMARK    7  A    between atoms: N2_15  and  C12_16 
REMARK    8  A    between atoms: C12_16  and  O2_17 
REMARK    9  A    between atoms: C12_16  and  N3_19 
REMARK   10  A    between atoms: N3_19  and  C13_20 
ROOT
HETATM    1  C1  UNL     1      54.353   9.300  -2.732  1.00  0.00     0.012 C 
HETATM    2  C2  UNL     1      54.542   8.645  -1.764  1.00  0.00    -0.117 C 
HETATM    3  C3  UNL     1      54.769   7.849  -0.573  1.00  0.00     0.093 C 
ENDROOT
BRANCH   3   4
HETATM    4  C4  UNL     1      54.373   8.565   0.718  1.00  0.00     0.012 C 
BRANCH   4   5
HETATM    5  C5  UNL     1      55.414   9.544   1.147  1.00  0.00     0.001 C 
BRANCH   5   6
HETATM    6  C6  UNL     1      54.891  10.917   1.484  1.00  0.00     0.009 C 
BRANCH   6   7
HETATM    7  C7  UNL     1      53.398  10.888   1.594  1.00  0.00     0.103 C 
BRANCH   7   8
HETATM    8  C8  UNL     1      52.648  11.513   0.535  1.00  0.00     0.217 C 
HETATM    9  O1  UNL     1      53.189  11.699  -0.620  1.00  0.00    -0.274 OA
HETATM   10  N1  UNL     1      51.325  11.942   0.659  1.00  0.00    -0.356 N 
ATOM     11  H1  UNL     1      50.863  11.784   1.554  1.00  0.00     0.162 HD
BRANCH  10  12
HETATM   12  C9  UNL     1      50.576  12.580  -0.359  1.00  0.00     0.087 C 
HETATM   13  C10 UNL     1      50.942  14.016  -0.518  1.00  0.00     0.045 C 
HETATM   14  C11 UNL     1      50.179  14.644  -1.644  1.00  0.00     0.129 C 
HETATM   15  N2  UNL     1      49.134  13.825  -2.184  1.00  0.00    -0.336 N 
HETATM   16  C19 UNL     1      48.494  12.700  -1.535  1.00  0.00     0.129 C 
HETATM   17  C20 UNL     1      49.058  12.552  -0.114  1.00  0.00     0.045 C 
BRANCH  15  18
HETATM   18  C12 UNL     1      48.639  14.243  -3.467  1.00  0.00     0.291 C 
BRANCH  18  19
HETATM   19  O2  UNL     1      49.515  14.969  -4.106  1.00  0.00    -0.322 OA
ATOM     20  H2  UNL     1      49.985  14.459  -4.756  1.00  0.00     0.222 HD
ENDBRANCH  18  19
BRANCH  18  21
HETATM   21  N3  UNL     1      47.400  13.898  -3.936  1.00  0.00    -0.404 NA
BRANCH  21  22
HETATM   22  C13 UNL     1      46.179  13.622  -4.387  1.00  0.00     0.167 C 
HETATM   23  C14 UNL     1      45.828  14.357  -5.693  1.00  0.00     0.039 C 
HETATM   24  C15 UNL     1      45.920  15.831  -5.290  1.00  0.00     0.003 C 
HETATM   25  C16 UNL     1      44.723  16.173  -4.443  1.00  0.00     0.000 C 
HETATM   26  C17 UNL     1      44.540  15.237  -3.303  1.00  0.00     0.003 C 
HETATM   27  C18 UNL     1      44.964  13.849  -3.488  1.00  0.00     0.039 C 
ENDBRANCH  21  22
ENDBRANCH  18  21
ENDBRANCH  15  18
ENDBRANCH  10  12
ENDBRANCH   7   8
ENDBRANCH   6   7
ENDBRANCH   5   6
ENDBRANCH   4   5
ENDBRANCH   3   4
TORSDOF 10
ENDMDL
MODEL 5
REMARK VINA RESULT: -6.143733581      3.422      5.875
REMARK  10 active torsions:
REMARK  status: ('A' for Active; 'I' for Inactive)
REMARK    1  A    between atoms: C3_3  and  C4_4 
REMARK    2  A    between atoms: C4_4  and  C5_5 
REMARK    3  A    between atoms: C5_5  and  C6_6 
REMARK    4  A    between atoms: C6_6  and  C7_7 
REMARK    5  A    between atoms: C7_7  and  C8_8 
REMARK       I    between atoms: C8_8  and  N1_10 
REMARK    6  A    between atoms: N1_10  and  C9_12 
REMARK    7  A    between atoms: N2_15  and  C12_16 
REMARK    8  A    between atoms: C12_16  and  O2_17 
REMARK    9  A    between atoms: C12_16  and  N3_19 
REMARK   10  A    between atoms: N3_19  and  C13_20 
ROOT
HETATM    1  C1  UNL     1      57.129  11.623   5.277  1.00  0.00     0.012 C 
HETATM    2  C2  UNL     1      57.350  11.312   4.156  1.00  0.00    -0.117 C 
HETATM    3  C3  UNL     1      57.612  10.935   2.780  1.00  0.00     0.093 C 
ENDROOT
BRANCH   3   4
HETATM    4  C4  UNL     1      56.471  11.292   1.827  1.00  0.00     0.012 C 
BRANCH   4   5
HETATM    5  C5  UNL     1      55.897  10.079   1.175  1.00  0.00     0.001 C 
BRANCH   5   6
HETATM    6  C6  UNL     1      54.465   9.783   1.540  1.00  0.00     0.009 C 
BRANCH   6   7
HETATM    7  C7  UNL     1      53.719  11.059   1.778  1.00  0.00     0.103 C 
BRANCH   7   8
HETATM    8  C8  UNL     1      52.861  11.526   0.719  1.00  0.00     0.217 C 
HETATM    9  O1  UNL     1      53.113  11.214  -0.505  1.00  0.00    -0.274 OA
HETATM   10  N1  UNL     1      51.725  12.313   0.922  1.00  0.00    -0.356 N 
ATOM     11  H1  UNL     1      51.485  12.552   1.883  1.00  0.00     0.162 HD
BRANCH  10  12
HETATM   12  C9  UNL     1      50.880  12.803  -0.103  1.00  0.00     0.087 C 
HETATM   13  C10 UNL     1      51.158  14.229  -0.433  1.00  0.00     0.045 C 
HETATM   14  C11 UNL     1      50.293  14.698  -1.564  1.00  0.00     0.129 C 
HETATM   15  N2  UNL     1      49.262  13.779  -1.945  1.00  0.00    -0.336 N 
HETATM   16  C19 UNL     1      48.725  12.701  -1.142  1.00  0.00     0.129 C 
HETATM   17  C20 UNL     1      49.385  12.730   0.246  1.00  0.00     0.045 C 
BRANCH  15  18
HETATM   18  C12 UNL     1      48.667  14.035  -3.227  1.00  0.00     0.291 C 
BRANCH  18  19
HETATM   19  O2  UNL     1      49.440  14.772  -3.977  1.00  0.00    -0.322 OA
ATOM     20  H2  UNL     1      49.242  15.696  -3.882  1.00  0.00     0.222 HD
ENDBRANCH  18  19
BRANCH  18  21
HETATM   21  N3  UNL     1      47.441  13.545  -3.591  1.00  0.00    -0.404 NA
BRANCH  21  22
HETATM   22  C13 UNL     1      46.226  13.125  -3.932  1.00  0.00     0.167 C 
HETATM   23  C14 UNL     1      45.093  14.006  -3.376  1.00  0.00     0.039 C 
HETATM   24  C15 UNL     1      45.284  13.891  -1.862  1.00  0.00     0.003 C 
HETATM   25  C16 UNL     1      44.821  12.526  -1.422  1.00  0.00     0.000 C 
HETATM   26  C17 UNL     1      45.448  11.429  -2.204  1.00  0.00     0.003 C 
HETATM   27  C18 UNL     1      45.790  11.697  -3.600  1.00  0.00     0.039 C 
ENDBRANCH  21  22
ENDBRANCH  18  21
ENDBRANCH  15  18
ENDBRANCH  10  12
ENDBRANCH   7   8
ENDBRANCH   6   7
ENDBRANCH   5   6
ENDBRANCH   4   5
ENDBRANCH   3   4
TORSDOF 10
ENDMDL
