MODEL 1
REMARK VINA RESULT: -7.498921014      0.000      0.000
REMARK  8 active torsions:
REMARK  status: ('A' for Active; 'I' for Inactive)
REMARK    1  A    between atoms: C2_2  and  C3_3 
REMARK    2  A    between atoms: C3_3  and  C4_4 
REMARK    3  A    between atoms: C4_4  and  C5_5 
REMARK    4  A    between atoms: C5_5  and  C6_6 
REMARK    5  A    between atoms: C6_6  and  C7_7 
REMARK       I    between atoms: C7_7  and  N1_9 
REMARK    6  A    between atoms: C10_12  and  C11_13 
REMARK    7  A    between atoms: C11_13  and  N2_14 
REMARK       I    between atoms: N2_14  and  C12_16 
REMARK       I    between atoms: C12_16  and  N3_18 
REMARK    8  A    between atoms: N3_18  and  C13_20 
ROOT
HETATM    1  C7  UNL     1      54.097  10.989   1.117  1.00  0.00     0.219 C 
HETATM    2  O1  UNL     1      52.956  10.657   1.515  1.00  0.00    -0.273 OA
HETATM    3  N1  UNL     1      54.386  12.346   0.908  1.00  0.00    -0.352 N 
HETATM    4  C8  UNL     1      55.700  12.759   0.458  1.00  0.00     0.126 C 
HETATM    5  C9  UNL     1      55.479  13.663  -0.718  1.00  0.00     0.030 C 
HETATM    6  C10 UNL     1      54.578  14.858  -0.403  1.00  0.00     0.027 C 
HETATM    7  C19 UNL     1      53.915  14.741   0.898  1.00  0.00     0.030 C 
HETATM    8  C20 UNL     1      53.355  13.333   1.147  1.00  0.00     0.126 C 
ENDROOT
BRANCH   6   9
HETATM    9  C11 UNL     1      55.351  16.087  -0.680  1.00  0.00     0.070 C 
BRANCH   9  10
HETATM   10  N2  UNL     1      55.752  16.867   0.424  1.00  0.00    -0.322 N 
HETATM   11  C12 UNL     1      55.359  18.104   0.915  1.00  0.00     0.320 C 
HETATM   12  O2  UNL     1      54.460  18.801   0.448  1.00  0.00    -0.247 OA
HETATM   13  N3  UNL     1      56.032  18.658   2.067  1.00  0.00    -0.338 N 
ATOM     14  H3  UNL     1      56.786  18.121   2.495  1.00  0.00     0.164 HD
ATOM     15  H2  UNL     1      56.488  16.429   0.979  1.00  0.00     0.169 HD
BRANCH  13  16
HETATM   16  C13 UNL     1      55.688  19.933   2.637  1.00  0.00     0.086 C 
HETATM   17  C14 UNL     1      56.869  20.445   3.431  1.00  0.00     0.025 C 
HETATM   18  C15 UNL     1      56.894  19.889   4.842  1.00  0.00     0.002 C 
HETATM   19  C16 UNL     1      55.649  20.247   5.616  1.00  0.00     0.000 C 
HETATM   20  C17 UNL     1      54.527  20.704   4.716  1.00  0.00     0.002 C 
HETATM   21  C18 UNL     1      54.432  19.872   3.456  1.00  0.00     0.025 C 
ENDBRANCH  13  16
ENDBRANCH   9  10
ENDBRANCH   6   9
BRANCH   1  22
HETATM   22  C6  UNL     1      55.127   9.973   0.869  1.00  0.00     0.103 C 
BRANCH  22  23
HETATM   23  C5  UNL     1      54.666   8.565   0.789  1.00  0.00     0.010 C 
BRANCH  23  24
HETATM   24  C4  UNL     1      54.768   7.934  -0.571  1.00  0.00     0.004 C 
BRANCH  24  25
HETATM   25  C3  UNL     1      54.519   8.999  -1.651  1.00  0.00     0.026 C 
BRANCH  25  26
HETATM   26  C2  UNL     1      54.428   8.293  -2.946  1.00  0.00    -0.037 C 
HETATM   27  C1  UNL     1      54.479   6.979  -2.999  1.00  0.00     0.007 C 
ENDBRANCH  25  26
ENDBRANCH  24  25
ENDBRANCH  23  24
ENDBRANCH  22  23
ENDBRANCH   1  22
TORSDOF 8
ENDMDL
MODEL 2
REMARK VINA RESULT: -7.490125977      5.212      7.688
REMARK  8 active torsions:
REMARK  status: ('A' for Active; 'I' for Inactive)
REMARK    1  A    between atoms: C2_2  and  C3_3 
REMARK    2  A    between atoms: C3_3  and  C4_4 
REMARK    3  A    between atoms: C4_4  and  C5_5 
REMARK    4  A    between atoms: C5_5  and  C6_6 
REMARK    5  A    between atoms: C6_6  and  C7_7 
REMARK       I    between atoms: C7_7  and  N1_9 
REMARK    6  A    between atoms: C10_12  and  C11_13 
REMARK    7  A    between atoms: C11_13  and  N2_14 
REMARK       I    between atoms: N2_14  and  C12_16 
REMARK       I    between atoms: C12_16  and  N3_18 
REMARK    8  A    between atoms: N3_18  and  C13_20 
ROOT
HETATM    1  C7  UNL     1      54.495  11.080   1.969  1.00  0.00     0.219 C 
HETATM    2  O1  UNL     1      54.442  10.918   3.210  1.00  0.00    -0.273 OA
HETATM    3  N1  UNL     1      53.876  12.199   1.393  1.00  0.00    -0.352 N 
HETATM    4  C8  UNL     1      53.930  12.416  -0.039  1.00  0.00     0.126 C 
HETATM    5  C9  UNL     1      52.519  12.667  -0.482  1.00  0.00     0.030 C 
HETATM    6  C10 UNL     1      51.851  13.831   0.251  1.00  0.00     0.027 C 
HETATM    7  C19 UNL     1      52.628  14.297   1.402  1.00  0.00     0.030 C 
HETATM    8  C20 UNL     1      53.179  13.138   2.246  1.00  0.00     0.126 C 
ENDROOT
BRANCH   6   9
HETATM    9  C11 UNL     1      51.449  14.827  -0.765  1.00  0.00     0.070 C 
BRANCH   9  10
HETATM   10  N2  UNL     1      50.101  14.829  -1.178  1.00  0.00    -0.322 N 
HETATM   11  C12 UNL     1      49.420  14.220  -2.222  1.00  0.00     0.320 C 
HETATM   12  O2  UNL     1      49.917  13.449  -3.041  1.00  0.00    -0.247 OA
HETATM   13  N3  UNL     1      48.011  14.483  -2.401  1.00  0.00    -0.338 N 
ATOM     14  H3  UNL     1      47.547  15.116  -1.749  1.00  0.00     0.164 HD
ATOM     15  H2  UNL     1      49.499  15.399  -0.584  1.00  0.00     0.169 HD
BRANCH  13  16
HETATM   16  C13 UNL     1      47.232  13.895  -3.457  1.00  0.00     0.086 C 
HETATM   17  C14 UNL     1      47.394  14.731  -4.706  1.00  0.00     0.025 C 
HETATM   18  C15 UNL     1      46.436  15.905  -4.737  1.00  0.00     0.002 C 
HETATM   19  C16 UNL     1      44.994  15.464  -4.683  1.00  0.00     0.000 C 
HETATM   20  C17 UNL     1      44.850  14.038  -4.212  1.00  0.00     0.002 C 
HETATM   21  C18 UNL     1      45.792  13.715  -3.073  1.00  0.00     0.025 C 
ENDBRANCH  13  16
ENDBRANCH   9  10
ENDBRANCH   6   9
BRANCH   1  22
HETATM   22  C6  UNL     1      55.197  10.111   1.119  1.00  0.00     0.103 C 
BRANCH  22  23
HETATM   23  C5  UNL     1      54.486   8.839   0.835  1.00  0.00     0.010 C 
BRANCH  23  24
HETATM   24  C4  UNL     1      54.820   8.200  -0.483  1.00  0.00     0.004 C 
BRANCH  24  25
HETATM   25  C3  UNL     1      54.401   9.136  -1.628  1.00  0.00     0.026 C 
BRANCH  25  26
HETATM   26  C2  UNL     1      54.429   8.340  -2.873  1.00  0.00    -0.037 C 
HETATM   27  C1  UNL     1      54.500   7.027  -2.829  1.00  0.00     0.007 C 
ENDBRANCH  25  26
ENDBRANCH  24  25
ENDBRANCH  23  24
ENDBRANCH  22  23
ENDBRANCH   1  22
TORSDOF 8
ENDMDL
MODEL 3
REMARK VINA RESULT: -7.458575271      5.243      8.389
REMARK  8 active torsions:
REMARK  status: ('A' for Active; 'I' for Inactive)
REMARK    1  A    between atoms: C2_2  and  C3_3 
REMARK    2  A    between atoms: C3_3  and  C4_4 
REMARK    3  A    between atoms: C4_4  and  C5_5 
REMARK    4  A    between atoms: C5_5  and  C6_6 
REMARK    5  A    between atoms: C6_6  and  C7_7 
REMARK       I    between atoms: C7_7  and  N1_9 
REMARK    6  A    between atoms: C10_12  and  C11_13 
REMARK    7  A    between atoms: C11_13  and  N2_14 
REMARK       I    between atoms: N2_14  and  C12_16 
REMARK       I    between atoms: C12_16  and  N3_18 
REMARK    8  A    between atoms: N3_18  and  C13_20 
ROOT
HETATM    1  C7  UNL     1      54.809  11.344   1.765  1.00  0.00     0.219 C 
HETATM    2  O1  UNL     1      55.177  11.349   2.963  1.00  0.00    -0.273 OA
HETATM    3  N1  UNL     1      53.889  12.307   1.323  1.00  0.00    -0.352 N 
HETATM    4  C8  UNL     1      53.453  12.330  -0.059  1.00  0.00     0.126 C 
HETATM    5  C9  UNL     1      51.955  12.376  -0.028  1.00  0.00     0.030 C 
HETATM    6  C10 UNL     1      51.400  13.557   0.769  1.00  0.00     0.027 C 
HETATM    7  C19 UNL     1      52.431  14.251   1.545  1.00  0.00     0.030 C 
HETATM    8  C20 UNL     1      53.377  13.279   2.264  1.00  0.00     0.126 C 
ENDROOT
BRANCH   6   9
HETATM    9  C11 UNL     1      50.561  14.360  -0.146  1.00  0.00     0.070 C 
BRANCH   9  10
HETATM   10  N2  UNL     1      49.250  13.906  -0.395  1.00  0.00    -0.322 N 
HETATM   11  C12 UNL     1      48.620  13.364  -1.506  1.00  0.00     0.320 C 
HETATM   12  O2  UNL     1      49.164  13.115  -2.581  1.00  0.00    -0.247 OA
HETATM   13  N3  UNL     1      47.211  13.051  -1.443  1.00  0.00    -0.338 N 
ATOM     14  H3  UNL     1      46.710  13.236  -0.574  1.00  0.00     0.164 HD
ATOM     15  H2  UNL     1      48.633  13.995   0.413  1.00  0.00     0.169 HD
BRANCH  13  16
HETATM   16  C13 UNL     1      46.483  12.489  -2.548  1.00  0.00     0.086 C 
HETATM   17  C14 UNL     1      45.093  13.085  -2.569  1.00  0.00     0.025 C 
HETATM   18  C15 UNL     1      44.141  12.348  -1.647  1.00  0.00     0.002 C 
HETATM   19  C16 UNL     1      44.006  10.891  -2.016  1.00  0.00     0.000 C 
HETATM   20  C17 UNL     1      45.118  10.425  -2.923  1.00  0.00     0.002 C 
HETATM   21  C18 UNL     1      46.461  10.988  -2.515  1.00  0.00     0.025 C 
ENDBRANCH  13  16
ENDBRANCH   9  10
ENDBRANCH   6   9
BRANCH   1  22
HETATM   22  C6  UNL     1      55.330  10.342   0.827  1.00  0.00     0.103 C 
BRANCH  22  23
HETATM   23  C5  UNL     1      54.712   8.994   0.883  1.00  0.00     0.010 C 
BRANCH  23  24
HETATM   24  C4  UNL     1      54.714   8.234  -0.413  1.00  0.00     0.004 C 
BRANCH  24  25
HETATM   25  C3  UNL     1      54.337   9.181  -1.563  1.00  0.00     0.026 C 
BRANCH  25  26
HETATM   26  C2  UNL     1      54.343   8.381  -2.806  1.00  0.00    -0.037 C 
HETATM   27  C1  UNL     1      54.437   7.070  -2.758  1.00  0.00     0.007 C 
ENDBRANCH  25  26
ENDBRANCH  24  25
ENDBRANCH  23  24
ENDBRANCH  22  23
ENDBRANCH   1  22
TORSDOF 8
ENDMDL
MODEL 4
REMARK VINA RESULT: -7.445442084      5.132      7.437
REMARK  8 active torsions:
REMARK  status: ('A' for Active; 'I' for Inactive)
REMARK    1  A    between atoms: C2_2  and  C3_3 
REMARK    2  A    between atoms: C3_3  and  C4_4 
REMARK    3  A    between atoms: C4_4  and  C5_5 
REMARK    4  A    between atoms: C5_5  and  C6_6 
REMARK    5  A    between atoms: C6_6  and  C7_7 
REMARK       I    between atoms: C7_7  and  N1_9 
REMARK    6  A    between atoms: C10_12  and  C11_13 
REMARK    7  A    between atoms: C11_13  and  N2_14 
REMARK       I    between atoms: N2_14  and  C12_16 
REMARK       I    between atoms: C12_16  and  N3_18 
REMARK    8  A    between atoms: N3_18  and  C13_20 
ROOT
HETATM    1  C7  UNL     1      54.700  11.047   1.937  1.00  0.00     0.219 C 
HETATM    2  O1  UNL     1      54.733  10.877   3.178  1.00  0.00    -0.273 OA
HETATM    3  N1  UNL     1      54.091  12.197   1.415  1.00  0.00    -0.352 N 
HETATM    4  C8  UNL     1      54.049  12.424  -0.016  1.00  0.00     0.126 C 
HETATM    5  C9  UNL     1      52.622  12.741  -0.351  1.00  0.00     0.030 C 
HETATM    6  C10 UNL     1      52.063  13.927   0.436  1.00  0.00     0.027 C 
HETATM    7  C19 UNL     1      52.944  14.349   1.528  1.00  0.00     0.030 C 
HETATM    8  C20 UNL     1      53.503  13.159   2.322  1.00  0.00     0.126 C 
ENDROOT
BRANCH   6   9
HETATM    9  C11 UNL     1      51.632  14.950  -0.542  1.00  0.00     0.070 C 
BRANCH   9  10
HETATM   10  N2  UNL     1      50.356  14.800  -1.121  1.00  0.00    -0.322 N 
HETATM   11  C12 UNL     1      49.726  15.382  -2.212  1.00  0.00     0.320 C 
HETATM   12  O2  UNL     1      50.240  16.193  -2.981  1.00  0.00    -0.247 OA
HETATM   13  N3  UNL     1      48.354  15.038  -2.508  1.00  0.00    -0.338 N 
ATOM     14  H3  UNL     1      47.879  14.369  -1.903  1.00  0.00     0.164 HD
ATOM     15  H2  UNL     1      49.771  14.119  -0.636  1.00  0.00     0.169 HD
BRANCH  13  16
HETATM   16  C13 UNL     1      47.629  15.596  -3.617  1.00  0.00     0.086 C 
HETATM   17  C14 UNL     1      46.265  16.036  -3.135  1.00  0.00     0.025 C 
HETATM   18  C15 UNL     1      45.264  14.897  -3.132  1.00  0.00     0.002 C 
HETATM   19  C16 UNL     1      45.078  14.301  -4.506  1.00  0.00     0.000 C 
HETATM   20  C17 UNL     1      46.191  14.684  -5.451  1.00  0.00     0.002 C 
HETATM   21  C18 UNL     1      47.546  14.651  -4.780  1.00  0.00     0.025 C 
ENDBRANCH  13  16
ENDBRANCH   9  10
ENDBRANCH   6   9
BRANCH   1  22
HETATM   22  C6  UNL     1      55.293  10.055   1.031  1.00  0.00     0.103 C 
BRANCH  22  23
HETATM   23  C5  UNL     1      54.528   8.799   0.829  1.00  0.00     0.010 C 
BRANCH  23  24
HETATM   24  C4  UNL     1      54.747   8.121  -0.494  1.00  0.00     0.004 C 
BRANCH  24  25
HETATM   25  C3  UNL     1      54.377   9.086  -1.632  1.00  0.00     0.026 C 
BRANCH  25  26
HETATM   26  C2  UNL     1      54.402   8.307  -2.888  1.00  0.00    -0.037 C 
HETATM   27  C1  UNL     1      54.464   6.994  -2.861  1.00  0.00     0.007 C 
ENDBRANCH  25  26
ENDBRANCH  24  25
ENDBRANCH  23  24
ENDBRANCH  22  23
ENDBRANCH   1  22
TORSDOF 8
ENDMDL
MODEL 5
REMARK VINA RESULT: -7.377873328      4.935      8.249
REMARK  8 active torsions:
REMARK  status: ('A' for Active; 'I' for Inactive)
REMARK    1  A    between atoms: C2_2  and  C3_3 
REMARK    2  A    between atoms: C3_3  and  C4_4 
REMARK    3  A    between atoms: C4_4  and  C5_5 
REMARK    4  A    between atoms: C5_5  and  C6_6 
REMARK    5  A    between atoms: C6_6  and  C7_7 
REMARK       I    between atoms: C7_7  and  N1_9 
REMARK    6  A    between atoms: C10_12  and  C11_13 
REMARK    7  A    between atoms: C11_13  and  N2_14 
REMARK       I    between atoms: N2_14  and  C12_16 
REMARK       I    between atoms: C12_16  and  N3_18 
REMARK    8  A    between atoms: N3_18  and  C13_20 
ROOT
HETATM    1  C7  UNL     1      55.503  14.107  -0.008  1.00  0.00     0.219 C 
HETATM    2  O1  UNL     1      56.236  15.120   0.069  1.00  0.00    -0.273 OA
HETATM    3  N1  UNL     1      54.124  14.236   0.220  1.00  0.00    -0.352 N 
HETATM    4  C8  UNL     1      53.251  13.084   0.128  1.00  0.00     0.126 C 
HETATM    5  C9  UNL     1      52.436  13.070   1.386  1.00  0.00     0.030 C 
HETATM    6  C10 UNL     1      51.656  14.365   1.618  1.00  0.00     0.027 C 
HETATM    7  C19 UNL     1      52.057  15.439   0.707  1.00  0.00     0.030 C 
HETATM    8  C20 UNL     1      53.582  15.536   0.550  1.00  0.00     0.126 C 
ENDROOT
BRANCH   6   9
HETATM    9  C11 UNL     1      50.221  14.016   1.691  1.00  0.00     0.070 C 
BRANCH   9  10
HETATM   10  N2  UNL     1      49.432  14.263   0.549  1.00  0.00    -0.322 N 
HETATM   11  C12 UNL     1      49.200  13.559  -0.624  1.00  0.00     0.320 C 
HETATM   12  O2  UNL     1      49.658  12.449  -0.890  1.00  0.00    -0.247 OA
HETATM   13  N3  UNL     1      48.358  14.137  -1.646  1.00  0.00    -0.338 N 
ATOM     14  H3  UNL     1      47.950  15.057  -1.478  1.00  0.00     0.164 HD
ATOM     15  H2  UNL     1      48.924  15.147   0.594  1.00  0.00     0.169 HD
BRANCH  13  16
HETATM   16  C13 UNL     1      48.068  13.476  -2.890  1.00  0.00     0.086 C 
HETATM   17  C14 UNL     1      48.318  14.443  -4.025  1.00  0.00     0.025 C 
HETATM   18  C15 UNL     1      47.120  15.334  -4.291  1.00  0.00     0.002 C 
HETATM   19  C16 UNL     1      45.888  14.539  -4.647  1.00  0.00     0.000 C 
HETATM   20  C17 UNL     1      46.017  13.084  -4.269  1.00  0.00     0.002 C 
HETATM   21  C18 UNL     1      46.682  12.901  -2.922  1.00  0.00     0.025 C 
ENDBRANCH  13  16
ENDBRANCH   9  10
ENDBRANCH   6   9
BRANCH   1  22
HETATM   22  C6  UNL     1      56.072  12.794  -0.333  1.00  0.00     0.103 C 
BRANCH  22  23
HETATM   23  C5  UNL     1      56.811  12.103   0.753  1.00  0.00     0.010 C 
BRANCH  23  24
HETATM   24  C4  UNL     1      56.043  11.025   1.464  1.00  0.00     0.004 C 
BRANCH  24  25
HETATM   25  C3  UNL     1      55.946  11.365   2.960  1.00  0.00     0.026 C 
BRANCH  25  26
HETATM   26  C2  UNL     1      57.299  11.200   3.532  1.00  0.00    -0.037 C 
HETATM   27  C1  UNL     1      57.476  11.158   4.834  1.00  0.00     0.007 C 
ENDBRANCH  25  26
ENDBRANCH  24  25
ENDBRANCH  23  24
ENDBRANCH  22  23
ENDBRANCH   1  22
TORSDOF 8
ENDMDL
