MODEL 1
REMARK VINA RESULT: -7.778445079      0.000      0.000
REMARK  8 active torsions:
REMARK  status: ('A' for Active; 'I' for Inactive)
REMARK    1  A    between atoms: C2_2  and  C3_3 
REMARK    2  A    between atoms: C3_3  and  C4_4 
REMARK       I    between atoms: C4_4  and  N1_6 
REMARK    3  A    between atoms: C8_10  and  C9_11 
REMARK    4  A    between atoms: C9_11  and  C10_12 
REMARK    5  A    between atoms: C10_12  and  C11_13 
REMARK    6  A    between atoms: C11_13  and  C12_14 
REMARK    7  A    between atoms: C12_14  and  N2_15 
REMARK       I    between atoms: N2_15  and  C13_17 
REMARK       I    between atoms: C13_17  and  N3_19 
REMARK    8  A    between atoms: N3_19  and  C14_21 
ROOT
HETATM    1  C11 UNL     1      55.459  16.349  -0.240  1.00  0.00     0.020 C 
ENDROOT
BRANCH   1   2
HETATM    2  C10 UNL     1      54.676  16.842   0.963  1.00  0.00     0.002 C 
BRANCH   2   3
HETATM    3  C9  UNL     1      53.222  16.693   0.688  1.00  0.00     0.006 C 
BRANCH   3   4
HETATM    4  C8  UNL     1      52.666  15.322   0.908  1.00  0.00     0.004 C 
HETATM    5  C7  UNL     1      51.168  15.339   0.949  1.00  0.00     0.008 C 
HETATM    6  C6  UNL     1      50.642  13.980   1.403  1.00  0.00     0.020 C 
HETATM    7  C5  UNL     1      51.714  12.963   1.180  1.00  0.00     0.126 C 
HETATM    8  N1  UNL     1      52.877  13.239   2.008  1.00  0.00    -0.352 N 
HETATM    9  C4  UNL     1      53.664  12.219   2.579  1.00  0.00     0.223 C 
HETATM   10  C20 UNL     1      53.159  14.673   2.192  1.00  0.00     0.130 C 
HETATM   11  O1  UNL     1      53.326  11.026   2.349  1.00  0.00    -0.273 OA
BRANCH   9  12
HETATM   12  C3  UNL     1      54.844  12.465   3.418  1.00  0.00     0.129 C 
BRANCH  12  13
HETATM   13  C2  UNL     1      55.815  11.359   3.320  1.00  0.00    -0.028 C 
HETATM   14  C1  UNL     1      57.067  11.451   3.785  1.00  0.00     0.007 C 
ENDBRANCH  12  13
ENDBRANCH   9  12
ENDBRANCH   3   4
ENDBRANCH   2   3
ENDBRANCH   1   2
BRANCH   1  15
HETATM   15  C12 UNL     1      55.963  14.952  -0.111  1.00  0.00     0.124 C 
BRANCH  15  16
HETATM   16  N2  UNL     1      55.157  14.055  -0.875  1.00  0.00    -0.343 N 
HETATM   17  C13 UNL     1      55.369  12.653  -0.843  1.00  0.00     0.316 C 
HETATM   18  O2  UNL     1      56.268  12.098  -0.167  1.00  0.00    -0.247 OA
HETATM   19  N3  UNL     1      54.523  11.779  -1.619  1.00  0.00    -0.339 N 
ATOM     20  H3  UNL     1      53.773  12.168  -2.189  1.00  0.00     0.164 HD
ATOM     21  H2  UNL     1      54.410  14.432  -1.459  1.00  0.00     0.164 HD
BRANCH  19  22
HETATM   22  C14 UNL     1      54.739  10.373  -1.585  1.00  0.00     0.086 C 
HETATM   23  C15 UNL     1      54.201   9.663  -2.812  1.00  0.00     0.025 C 
HETATM   24  C16 UNL     1      54.696   8.233  -2.752  1.00  0.00     0.002 C 
HETATM   25  C17 UNL     1      54.324   7.550  -1.462  1.00  0.00     0.000 C 
HETATM   26  C18 UNL     1      54.705   8.345  -0.241  1.00  0.00     0.002 C 
HETATM   27  C19 UNL     1      54.041   9.715  -0.386  1.00  0.00     0.025 C 
ENDBRANCH  19  22
ENDBRANCH  15  16
ENDBRANCH   1  15
TORSDOF 8
ENDMDL
MODEL 2
REMARK VINA RESULT: -7.746261259      2.685      4.941
REMARK  8 active torsions:
REMARK  status: ('A' for Active; 'I' for Inactive)
REMARK    1  A    between atoms: C2_2  and  C3_3 
REMARK    2  A    between atoms: C3_3  and  C4_4 
REMARK       I    between atoms: C4_4  and  N1_6 
REMARK    3  A    between atoms: C8_10  and  C9_11 
REMARK    4  A    between atoms: C9_11  and  C10_12 
REMARK    5  A    between atoms: C10_12  and  C11_13 
REMARK    6  A    between atoms: C11_13  and  C12_14 
REMARK    7  A    between atoms: C12_14  and  N2_15 
REMARK       I    between atoms: N2_15  and  C13_17 
REMARK       I    between atoms: C13_17  and  N3_19 
REMARK    8  A    between atoms: N3_19  and  C14_21 
ROOT
HETATM    1  C11 UNL     1      49.874  13.165   0.989  1.00  0.00     0.020 C 
ENDROOT
BRANCH   1   2
HETATM    2  C10 UNL     1      50.072  14.669   0.941  1.00  0.00     0.002 C 
BRANCH   2   3
HETATM    3  C9  UNL     1      50.788  15.102   2.171  1.00  0.00     0.006 C 
BRANCH   3   4
HETATM    4  C8  UNL     1      51.832  16.153   1.967  1.00  0.00     0.004 C 
HETATM    5  C7  UNL     1      51.232  17.527   1.969  1.00  0.00     0.008 C 
HETATM    6  C6  UNL     1      52.275  18.553   1.531  1.00  0.00     0.020 C 
HETATM    7  C5  UNL     1      53.631  17.957   1.724  1.00  0.00     0.126 C 
HETATM    8  N1  UNL     1      53.821  16.800   0.864  1.00  0.00    -0.352 N 
HETATM    9  C4  UNL     1      55.061  16.488   0.272  1.00  0.00     0.223 C 
HETATM   10  C20 UNL     1      52.608  15.987   0.671  1.00  0.00     0.130 C 
HETATM   11  O1  UNL     1      56.030  17.257   0.511  1.00  0.00    -0.273 OA
BRANCH   9  12
HETATM   12  C3  UNL     1      55.285  15.328  -0.601  1.00  0.00     0.129 C 
BRANCH  12  13
HETATM   13  C2  UNL     1      56.284  14.407  -0.027  1.00  0.00    -0.028 C 
HETATM   14  C1  UNL     1      56.343  13.109  -0.349  1.00  0.00     0.007 C 
ENDBRANCH  12  13
ENDBRANCH   9  12
ENDBRANCH   3   4
ENDBRANCH   2   3
ENDBRANCH   1   2
BRANCH   1  15
HETATM   15  C12 UNL     1      50.833  12.395   0.147  1.00  0.00     0.124 C 
BRANCH  15  16
HETATM   16  N2  UNL     1      51.578  11.476   0.947  1.00  0.00    -0.343 N 
HETATM   17  C13 UNL     1      52.838  11.822   1.499  1.00  0.00     0.316 C 
HETATM   18  O2  UNL     1      53.395  12.932   1.326  1.00  0.00    -0.247 OA
HETATM   19  N3  UNL     1      53.552  10.870   2.314  1.00  0.00    -0.339 N 
ATOM     20  H3  UNL     1      53.152   9.950   2.494  1.00  0.00     0.164 HD
ATOM     21  H2  UNL     1      51.194  10.548   1.125  1.00  0.00     0.164 HD
BRANCH  19  22
HETATM   22  C14 UNL     1      54.817  11.221   2.866  1.00  0.00     0.086 C 
HETATM   23  C15 UNL     1      55.966  10.453   2.243  1.00  0.00     0.025 C 
HETATM   24  C16 UNL     1      57.247  11.080   2.750  1.00  0.00     0.002 C 
HETATM   25  C17 UNL     1      57.310  11.122   4.255  1.00  0.00     0.000 C 
HETATM   26  C18 UNL     1      56.082  11.728   4.881  1.00  0.00     0.002 C 
HETATM   27  C19 UNL     1      54.886  10.923   4.371  1.00  0.00     0.025 C 
ENDBRANCH  19  22
ENDBRANCH  15  16
ENDBRANCH   1  15
TORSDOF 8
ENDMDL
MODEL 3
REMARK VINA RESULT: -7.643801349      1.541      3.221
REMARK  8 active torsions:
REMARK  status: ('A' for Active; 'I' for Inactive)
REMARK    1  A    between atoms: C2_2  and  C3_3 
REMARK    2  A    between atoms: C3_3  and  C4_4 
REMARK       I    between atoms: C4_4  and  N1_6 
REMARK    3  A    between atoms: C8_10  and  C9_11 
REMARK    4  A    between atoms: C9_11  and  C10_12 
REMARK    5  A    between atoms: C10_12  and  C11_13 
REMARK    6  A    between atoms: C11_13  and  C12_14 
REMARK    7  A    between atoms: C12_14  and  N2_15 
REMARK       I    between atoms: N2_15  and  C13_17 
REMARK       I    between atoms: C13_17  and  N3_19 
REMARK    8  A    between atoms: N3_19  and  C14_21 
ROOT
HETATM    1  C11 UNL     1      51.736  15.374   0.915  1.00  0.00     0.020 C 
ENDROOT
BRANCH   1   2
HETATM    2  C10 UNL     1      52.822  15.226   1.964  1.00  0.00     0.002 C 
BRANCH   2   3
HETATM    3  C9  UNL     1      54.105  15.733   1.407  1.00  0.00     0.006 C 
BRANCH   3   4
HETATM    4  C8  UNL     1      55.092  14.680   1.013  1.00  0.00     0.004 C 
HETATM    5  C7  UNL     1      55.099  14.466  -0.471  1.00  0.00     0.008 C 
HETATM    6  C6  UNL     1      55.937  13.237  -0.816  1.00  0.00     0.020 C 
HETATM    7  C5  UNL     1      56.854  12.956   0.329  1.00  0.00     0.126 C 
HETATM    8  N1  UNL     1      56.105  12.606   1.525  1.00  0.00    -0.352 N 
HETATM    9  C4  UNL     1      56.562  11.652   2.457  1.00  0.00     0.223 C 
HETATM   10  C20 UNL     1      54.835  13.337   1.676  1.00  0.00     0.130 C 
HETATM   11  O1  UNL     1      57.666  11.092   2.222  1.00  0.00    -0.273 OA
BRANCH   9  12
HETATM   12  C3  UNL     1      55.829  11.277   3.673  1.00  0.00     0.129 C 
BRANCH  12  13
HETATM   13  C2  UNL     1      56.739  11.124   4.824  1.00  0.00    -0.028 C 
HETATM   14  C1  UNL     1      56.951  12.099   5.715  1.00  0.00     0.007 C 
ENDBRANCH  12  13
ENDBRANCH   9  12
ENDBRANCH   3   4
ENDBRANCH   2   3
ENDBRANCH   1   2
BRANCH   1  15
HETATM   15  C12 UNL     1      51.094  14.091   0.513  1.00  0.00     0.124 C 
BRANCH  15  16
HETATM   16  N2  UNL     1      51.886  13.419  -0.466  1.00  0.00    -0.343 N 
HETATM   17  C13 UNL     1      52.292  12.070  -0.297  1.00  0.00     0.316 C 
HETATM   18  O2  UNL     1      52.006  11.375   0.707  1.00  0.00    -0.247 OA
HETATM   19  N3  UNL     1      53.080  11.422  -1.317  1.00  0.00    -0.339 N 
ATOM     20  H3  UNL     1      53.345  11.932  -2.159  1.00  0.00     0.164 HD
ATOM     21  H2  UNL     1      52.168  13.921  -1.308  1.00  0.00     0.164 HD
BRANCH  19  22
HETATM   22  C14 UNL     1      53.486  10.068  -1.143  1.00  0.00     0.086 C 
HETATM   23  C15 UNL     1      54.526   9.900  -0.053  1.00  0.00     0.025 C 
HETATM   24  C16 UNL     1      54.692   8.412   0.178  1.00  0.00     0.002 C 
HETATM   25  C17 UNL     1      55.034   7.669  -1.088  1.00  0.00     0.000 C 
HETATM   26  C18 UNL     1      54.097   7.977  -2.225  1.00  0.00     0.002 C 
HETATM   27  C19 UNL     1      54.122   9.494  -2.417  1.00  0.00     0.025 C 
ENDBRANCH  19  22
ENDBRANCH  15  16
ENDBRANCH   1  15
TORSDOF 8
ENDMDL
MODEL 4
REMARK VINA RESULT: -7.583504438      2.599      4.953
REMARK  8 active torsions:
REMARK  status: ('A' for Active; 'I' for Inactive)
REMARK    1  A    between atoms: C2_2  and  C3_3 
REMARK    2  A    between atoms: C3_3  and  C4_4 
REMARK       I    between atoms: C4_4  and  N1_6 
REMARK    3  A    between atoms: C8_10  and  C9_11 
REMARK    4  A    between atoms: C9_11  and  C10_12 
REMARK    5  A    between atoms: C10_12  and  C11_13 
REMARK    6  A    between atoms: C11_13  and  C12_14 
REMARK    7  A    between atoms: C12_14  and  N2_15 
REMARK       I    between atoms: N2_15  and  C13_17 
REMARK       I    between atoms: C13_17  and  N3_19 
REMARK    8  A    between atoms: N3_19  and  C14_21 
ROOT
HETATM    1  C11 UNL     1      50.328  12.914  -0.749  1.00  0.00     0.020 C 
ENDROOT
BRANCH   1   2
HETATM    2  C10 UNL     1      50.007  14.347  -1.133  1.00  0.00     0.002 C 
BRANCH   2   3
HETATM    3  C9  UNL     1      50.524  15.258  -0.077  1.00  0.00     0.006 C 
BRANCH   3   4
HETATM    4  C8  UNL     1      51.752  16.030  -0.442  1.00  0.00     0.004 C 
HETATM    5  C7  UNL     1      51.595  16.712  -1.768  1.00  0.00     0.008 C 
HETATM    6  C6  UNL     1      52.934  17.293  -2.218  1.00  0.00     0.020 C 
HETATM    7  C5  UNL     1      53.812  17.435  -1.017  1.00  0.00     0.126 C 
HETATM    8  N1  UNL     1      54.114  16.137  -0.434  1.00  0.00    -0.352 N 
HETATM    9  C4  UNL     1      55.361  15.838   0.150  1.00  0.00     0.223 C 
HETATM   10  C20 UNL     1      53.005  15.171  -0.506  1.00  0.00     0.130 C 
HETATM   11  O1  UNL     1      56.234  16.747   0.155  1.00  0.00    -0.273 OA
BRANCH   9  12
HETATM   12  C3  UNL     1      55.697  14.539   0.746  1.00  0.00     0.129 C 
BRANCH  12  13
HETATM   13  C2  UNL     1      56.265  13.617  -0.255  1.00  0.00    -0.028 C 
HETATM   14  C1  UNL     1      55.559  12.624  -0.810  1.00  0.00     0.007 C 
ENDBRANCH  12  13
ENDBRANCH   9  12
ENDBRANCH   3   4
ENDBRANCH   2   3
ENDBRANCH   1   2
BRANCH   1  15
HETATM   15  C12 UNL     1      50.543  12.706   0.710  1.00  0.00     0.124 C 
BRANCH  15  16
HETATM   16  N2  UNL     1      51.567  11.737   0.933  1.00  0.00    -0.343 N 
HETATM   17  C13 UNL     1      52.727  12.041   1.691  1.00  0.00     0.316 C 
HETATM   18  O2  UNL     1      52.951  13.163   2.205  1.00  0.00    -0.247 OA
HETATM   19  N3  UNL     1      53.732  11.029   1.906  1.00  0.00    -0.339 N 
ATOM     20  H3  UNL     1      53.610  10.096   1.514  1.00  0.00     0.164 HD
ATOM     21  H2  UNL     1      51.462  10.803   0.538  1.00  0.00     0.164 HD
BRANCH  19  22
HETATM   22  C14 UNL     1      54.896  11.339   2.666  1.00  0.00     0.086 C 
HETATM   23  C15 UNL     1      56.127  10.591   2.191  1.00  0.00     0.025 C 
HETATM   24  C16 UNL     1      57.315  11.179   2.924  1.00  0.00     0.002 C 
HETATM   25  C17 UNL     1      57.141  11.144   4.420  1.00  0.00     0.000 C 
HETATM   26  C18 UNL     1      55.832  11.731   4.877  1.00  0.00     0.002 C 
HETATM   27  C19 UNL     1      54.729  10.965   4.146  1.00  0.00     0.025 C 
ENDBRANCH  19  22
ENDBRANCH  15  16
ENDBRANCH   1  15
TORSDOF 8
ENDMDL
MODEL 5
REMARK VINA RESULT: -7.484362963      1.896      5.870
REMARK  8 active torsions:
REMARK  status: ('A' for Active; 'I' for Inactive)
REMARK    1  A    between atoms: C2_2  and  C3_3 
REMARK    2  A    between atoms: C3_3  and  C4_4 
REMARK       I    between atoms: C4_4  and  N1_6 
REMARK    3  A    between atoms: C8_10  and  C9_11 
REMARK    4  A    between atoms: C9_11  and  C10_12 
REMARK    5  A    between atoms: C10_12  and  C11_13 
REMARK    6  A    between atoms: C11_13  and  C12_14 
REMARK    7  A    between atoms: C12_14  and  N2_15 
REMARK       I    between atoms: N2_15  and  C13_17 
REMARK       I    between atoms: C13_17  and  N3_19 
REMARK    8  A    between atoms: N3_19  and  C14_21 
ROOT
HETATM    1  C11 UNL     1      56.389  11.791   3.929  1.00  0.00     0.020 C 
ENDROOT
BRANCH   1   2
HETATM    2  C10 UNL     1      56.808  10.782   2.876  1.00  0.00     0.002 C 
BRANCH   2   3
HETATM    3  C9  UNL     1      57.487  11.499   1.763  1.00  0.00     0.006 C 
BRANCH   3   4
HETATM    4  C8  UNL     1      56.607  11.882   0.616  1.00  0.00     0.004 C 
HETATM    5  C7  UNL     1      56.137  13.300   0.738  1.00  0.00     0.008 C 
HETATM    6  C6  UNL     1      55.064  13.586  -0.311  1.00  0.00     0.020 C 
HETATM    7  C5  UNL     1      55.187  12.569  -1.398  1.00  0.00     0.126 C 
HETATM    8  N1  UNL     1      54.909  11.232  -0.896  1.00  0.00    -0.352 N 
HETATM    9  C4  UNL     1      54.251  10.252  -1.666  1.00  0.00     0.223 C 
HETATM   10  C20 UNL     1      55.379  10.995   0.480  1.00  0.00     0.130 C 
HETATM   11  O1  UNL     1      53.897  10.570  -2.833  1.00  0.00    -0.273 OA
BRANCH   9  12
HETATM   12  C3  UNL     1      53.957   8.895  -1.189  1.00  0.00     0.129 C 
BRANCH  12  13
HETATM   13  C2  UNL     1      54.808   7.892  -1.857  1.00  0.00    -0.028 C 
HETATM   14  C1  UNL     1      54.365   7.110  -2.849  1.00  0.00     0.007 C 
ENDBRANCH  12  13
ENDBRANCH   9  12
ENDBRANCH   3   4
ENDBRANCH   2   3
ENDBRANCH   1   2
BRANCH   1  15
HETATM   15  C12 UNL     1      55.082  11.490   4.578  1.00  0.00     0.124 C 
BRANCH  15  16
HETATM   16  N2  UNL     1      54.073  11.266   3.594  1.00  0.00    -0.343 N 
HETATM   17  C13 UNL     1      53.484  12.339   2.876  1.00  0.00     0.316 C 
HETATM   18  O2  UNL     1      53.783  13.544   3.050  1.00  0.00    -0.247 OA
HETATM   19  N3  UNL     1      52.477  12.070   1.879  1.00  0.00    -0.339 N 
ATOM     20  H3  UNL     1      52.189  11.111   1.689  1.00  0.00     0.164 HD
ATOM     21  H2  UNL     1      53.767  10.312   3.403  1.00  0.00     0.164 HD
BRANCH  19  22
HETATM   22  C14 UNL     1      51.887  13.149   1.161  1.00  0.00     0.086 C 
HETATM   23  C15 UNL     1      50.631  13.681   1.822  1.00  0.00     0.025 C 
HETATM   24  C16 UNL     1      50.247  14.951   1.092  1.00  0.00     0.002 C 
HETATM   25  C17 UNL     1      50.090  14.735  -0.391  1.00  0.00     0.000 C 
HETATM   26  C18 UNL     1      51.272  14.044  -1.016  1.00  0.00     0.002 C 
HETATM   27  C19 UNL     1      51.466  12.732  -0.255  1.00  0.00     0.025 C 
ENDBRANCH  19  22
ENDBRANCH  15  16
ENDBRANCH   1  15
TORSDOF 8
ENDMDL
