MODEL 1
REMARK VINA RESULT: -8.609098030      0.000      0.000
REMARK  8 active torsions:
REMARK  status: ('A' for Active; 'I' for Inactive)
REMARK    1  A    between atoms: C7_7  and  N1_8 
REMARK       I    between atoms: N1_8  and  C8_10 
REMARK    2  A    between atoms: C8_10  and  C9_12 
REMARK    3  A    between atoms: C15_18  and  C16_19 
REMARK    4  A    between atoms: C16_19  and  C17_20 
REMARK    5  A    between atoms: C17_20  and  C18_21 
REMARK    6  A    between atoms: C18_21  and  C19_22 
REMARK    7  A    between atoms: C19_22  and  C20_23 
REMARK    8  A    between atoms: C20_23  and  C21_24 
ROOT
HETATM    1  C1  UNL     1      57.763  10.887   2.440  1.00  0.00     0.011 C 
HETATM    2  C2  UNL     1      56.256  10.529   2.403  1.00  0.00    -0.009 C 
HETATM    3  C3  UNL     1      55.744  10.775   3.764  1.00  0.00    -0.010 C 
HETATM    4  C4  UNL     1      56.127  12.231   4.102  1.00  0.00     0.011 C 
HETATM    5  C5  UNL     1      54.859  12.597   3.389  1.00  0.00     0.009 C 
HETATM    6  C6  UNL     1      54.323  11.251   3.871  1.00  0.00     0.011 C 
HETATM    7  C7  UNL     1      54.926  12.545   1.894  1.00  0.00     0.093 C 
HETATM    8  C15 UNL     1      55.616  11.375   1.302  1.00  0.00     0.013 C 
ENDROOT
BRANCH   7   9
HETATM    9  N1  UNL     1      55.386  13.816   1.347  1.00  0.00    -0.355 N 
HETATM   10  C8  UNL     1      54.854  14.509   0.266  1.00  0.00     0.222 C 
HETATM   11  O1  UNL     1      53.851  14.045  -0.339  1.00  0.00    -0.273 OA
ATOM     12  H1  UNL     1      56.188  14.244   1.809  1.00  0.00     0.162 HD
BRANCH  10  13
HETATM   13  C9  UNL     1      55.423  15.793  -0.235  1.00  0.00     0.078 C 
HETATM   14  C10 UNL     1      55.046  16.929   0.725  1.00  0.00     0.014 C 
HETATM   15  C11 UNL     1      55.813  18.151   0.284  1.00  0.00     0.001 C 
HETATM   16  C12 UNL     1      55.329  18.566  -1.072  1.00  0.00     0.000 C 
HETATM   17  C13 UNL     1      54.412  17.551  -1.703  1.00  0.00     0.001 C 
HETATM   18  C14 UNL     1      54.994  16.154  -1.630  1.00  0.00     0.014 C 
ENDBRANCH  10  13
ENDBRANCH   7   9
BRANCH   8  19
HETATM   19  C16 UNL     1      54.768  10.474   0.440  1.00  0.00     0.007 C 
BRANCH  19  20
HETATM   20  C17 UNL     1      54.818   9.018   0.854  1.00  0.00     0.000 C 
BRANCH  20  21
HETATM   21  C18 UNL     1      54.456   8.128  -0.334  1.00  0.00     0.000 C 
BRANCH  21  22
HETATM   22  C19 UNL     1      54.971   8.733  -1.627  1.00  0.00     0.009 C 
BRANCH  22  23
HETATM   23  C20 UNL     1      54.048   8.584  -2.773  1.00  0.00     0.099 C 
BRANCH  23  24
HETATM   24  C21 UNL     1      53.487   9.866  -3.224  1.00  0.00     0.231 C 
HETATM   25  N2  UNL     1      53.175  10.022  -4.616  1.00  0.00    -0.062 NA
HETATM   26  O2  UNL     1      53.272  10.831  -2.457  1.00  0.00    -0.277 OA
ENDBRANCH  23  24
ENDBRANCH  22  23
ENDBRANCH  21  22
ENDBRANCH  20  21
ENDBRANCH  19  20
ENDBRANCH   8  19
TORSDOF 8
ENDMDL
MODEL 2
REMARK VINA RESULT: -8.518609680      0.824      1.270
REMARK  8 active torsions:
REMARK  status: ('A' for Active; 'I' for Inactive)
REMARK    1  A    between atoms: C7_7  and  N1_8 
REMARK       I    between atoms: N1_8  and  C8_10 
REMARK    2  A    between atoms: C8_10  and  C9_12 
REMARK    3  A    between atoms: C15_18  and  C16_19 
REMARK    4  A    between atoms: C16_19  and  C17_20 
REMARK    5  A    between atoms: C17_20  and  C18_21 
REMARK    6  A    between atoms: C18_21  and  C19_22 
REMARK    7  A    between atoms: C19_22  and  C20_23 
REMARK    8  A    between atoms: C20_23  and  C21_24 
ROOT
HETATM    1  C1  UNL     1      57.365  11.138   1.898  1.00  0.00     0.011 C 
HETATM    2  C2  UNL     1      56.002  10.525   2.308  1.00  0.00    -0.009 C 
HETATM    3  C3  UNL     1      55.864  10.769   3.756  1.00  0.00    -0.010 C 
HETATM    4  C4  UNL     1      56.054  12.288   3.948  1.00  0.00     0.011 C 
HETATM    5  C5  UNL     1      54.591  12.384   3.633  1.00  0.00     0.009 C 
HETATM    6  C6  UNL     1      54.471  11.000   4.268  1.00  0.00     0.011 C 
HETATM    7  C7  UNL     1      54.237  12.245   2.184  1.00  0.00     0.093 C 
HETATM    8  C15 UNL     1      54.931  11.175   1.432  1.00  0.00     0.013 C 
ENDROOT
BRANCH   7   9
HETATM    9  N1  UNL     1      54.280  13.537   1.510  1.00  0.00    -0.355 N 
HETATM   10  C8  UNL     1      53.426  13.998   0.515  1.00  0.00     0.222 C 
HETATM   11  O1  UNL     1      52.476  13.268   0.122  1.00  0.00    -0.273 OA
ATOM     12  H1  UNL     1      55.021  14.175   1.800  1.00  0.00     0.162 HD
BRANCH  10  13
HETATM   13  C9  UNL     1      53.578  15.331  -0.134  1.00  0.00     0.078 C 
HETATM   14  C10 UNL     1      54.901  15.373  -0.911  1.00  0.00     0.014 C 
HETATM   15  C11 UNL     1      54.904  16.654  -1.707  1.00  0.00     0.001 C 
HETATM   16  C12 UNL     1      54.934  17.815  -0.761  1.00  0.00     0.000 C 
HETATM   17  C13 UNL     1      54.721  17.407   0.674  1.00  0.00     0.001 C 
HETATM   18  C14 UNL     1      53.523  16.492   0.820  1.00  0.00     0.014 C 
ENDBRANCH  10  13
ENDBRANCH   7   9
BRANCH   8  19
HETATM   19  C16 UNL     1      54.052  10.087   0.867  1.00  0.00     0.007 C 
BRANCH  19  20
HETATM   20  C17 UNL     1      54.698   8.717   0.885  1.00  0.00     0.000 C 
BRANCH  20  21
HETATM   21  C18 UNL     1      54.349   7.963  -0.397  1.00  0.00     0.000 C 
BRANCH  21  22
HETATM   22  C19 UNL     1      54.920   8.680  -1.607  1.00  0.00     0.009 C 
BRANCH  22  23
HETATM   23  C20 UNL     1      54.065   8.603  -2.812  1.00  0.00     0.099 C 
BRANCH  23  24
HETATM   24  C21 UNL     1      53.512   9.909  -3.202  1.00  0.00     0.231 C 
HETATM   25  N2  UNL     1      53.169  10.120  -4.580  1.00  0.00    -0.062 NA
HETATM   26  O2  UNL     1      53.330  10.848  -2.397  1.00  0.00    -0.277 OA
ENDBRANCH  23  24
ENDBRANCH  22  23
ENDBRANCH  21  22
ENDBRANCH  20  21
ENDBRANCH  19  20
ENDBRANCH   8  19
TORSDOF 8
ENDMDL
MODEL 3
REMARK VINA RESULT: -8.463514384      1.194      1.514
REMARK  8 active torsions:
REMARK  status: ('A' for Active; 'I' for Inactive)
REMARK    1  A    between atoms: C7_7  and  N1_8 
REMARK       I    between atoms: N1_8  and  C8_10 
REMARK    2  A    between atoms: C8_10  and  C9_12 
REMARK    3  A    between atoms: C15_18  and  C16_19 
REMARK    4  A    between atoms: C16_19  and  C17_20 
REMARK    5  A    between atoms: C17_20  and  C18_21 
REMARK    6  A    between atoms: C18_21  and  C19_22 
REMARK    7  A    between atoms: C19_22  and  C20_23 
REMARK    8  A    between atoms: C20_23  and  C21_24 
ROOT
HETATM    1  C1  UNL     1      57.395  11.107   1.726  1.00  0.00     0.011 C 
HETATM    2  C2  UNL     1      56.064  10.521   2.260  1.00  0.00    -0.009 C 
HETATM    3  C3  UNL     1      56.029  10.834   3.701  1.00  0.00    -0.010 C 
HETATM    4  C4  UNL     1      56.234  12.360   3.806  1.00  0.00     0.011 C 
HETATM    5  C5  UNL     1      54.752  12.447   3.591  1.00  0.00     0.009 C 
HETATM    6  C6  UNL     1      54.676  11.096   4.299  1.00  0.00     0.011 C 
HETATM    7  C7  UNL     1      54.296  12.241   2.179  1.00  0.00     0.093 C 
HETATM    8  C15 UNL     1      54.934  11.133   1.432  1.00  0.00     0.013 C 
ENDROOT
BRANCH   7   9
HETATM    9  N1  UNL     1      54.293  13.499   1.442  1.00  0.00    -0.355 N 
HETATM   10  C8  UNL     1      53.394  14.550   1.574  1.00  0.00     0.222 C 
HETATM   11  O1  UNL     1      52.464  14.473   2.422  1.00  0.00    -0.273 OA
ATOM     12  H1  UNL     1      55.034  13.622   0.752  1.00  0.00     0.162 HD
BRANCH  10  13
HETATM   13  C9  UNL     1      53.462  15.787   0.744  1.00  0.00     0.078 C 
HETATM   14  C10 UNL     1      52.486  15.666  -0.435  1.00  0.00     0.014 C 
HETATM   15  C11 UNL     1      52.447  17.013  -1.113  1.00  0.00     0.001 C 
HETATM   16  C12 UNL     1      53.792  17.298  -1.707  1.00  0.00     0.000 C 
HETATM   17  C13 UNL     1      54.845  16.309  -1.278  1.00  0.00     0.001 C 
HETATM   18  C14 UNL     1      54.836  16.106   0.224  1.00  0.00     0.014 C 
ENDBRANCH  10  13
ENDBRANCH   7   9
BRANCH   8  19
HETATM   19  C16 UNL     1      54.016  10.023   0.984  1.00  0.00     0.007 C 
BRANCH  19  20
HETATM   20  C17 UNL     1      54.704   8.678   0.869  1.00  0.00     0.000 C 
BRANCH  20  21
HETATM   21  C18 UNL     1      54.310   8.005  -0.445  1.00  0.00     0.000 C 
BRANCH  21  22
HETATM   22  C19 UNL     1      54.971   8.704  -1.619  1.00  0.00     0.009 C 
BRANCH  22  23
HETATM   23  C20 UNL     1      54.202   8.622  -2.880  1.00  0.00     0.099 C 
BRANCH  23  24
HETATM   24  C21 UNL     1      53.531   9.884  -3.221  1.00  0.00     0.231 C 
HETATM   25  N2  UNL     1      53.131  10.098  -4.584  1.00  0.00    -0.062 NA
HETATM   26  O2  UNL     1      53.293  10.785  -2.387  1.00  0.00    -0.277 OA
ENDBRANCH  23  24
ENDBRANCH  22  23
ENDBRANCH  21  22
ENDBRANCH  20  21
ENDBRANCH  19  20
ENDBRANCH   8  19
TORSDOF 8
ENDMDL
MODEL 4
REMARK VINA RESULT: -8.362510029      2.193      2.690
REMARK  8 active torsions:
REMARK  status: ('A' for Active; 'I' for Inactive)
REMARK    1  A    between atoms: C7_7  and  N1_8 
REMARK       I    between atoms: N1_8  and  C8_10 
REMARK    2  A    between atoms: C8_10  and  C9_12 
REMARK    3  A    between atoms: C15_18  and  C16_19 
REMARK    4  A    between atoms: C16_19  and  C17_20 
REMARK    5  A    between atoms: C17_20  and  C18_21 
REMARK    6  A    between atoms: C18_21  and  C19_22 
REMARK    7  A    between atoms: C19_22  and  C20_23 
REMARK    8  A    between atoms: C20_23  and  C21_24 
ROOT
HETATM    1  C1  UNL     1      56.903  11.953   0.929  1.00  0.00     0.011 C 
HETATM    2  C2  UNL     1      56.100  10.860   1.677  1.00  0.00    -0.009 C 
HETATM    3  C3  UNL     1      56.336  11.091   3.115  1.00  0.00    -0.010 C 
HETATM    4  C4  UNL     1      55.955  12.564   3.372  1.00  0.00     0.011 C 
HETATM    5  C5  UNL     1      54.556  12.043   3.526  1.00  0.00     0.009 C 
HETATM    6  C6  UNL     1      55.202  10.760   4.043  1.00  0.00     0.011 C 
HETATM    7  C7  UNL     1      53.853  11.708   2.246  1.00  0.00     0.093 C 
HETATM    8  C15 UNL     1      54.643  10.978   1.228  1.00  0.00     0.013 C 
ENDROOT
BRANCH   7   9
HETATM    9  N1  UNL     1      53.165  12.875   1.706  1.00  0.00    -0.355 N 
HETATM   10  C8  UNL     1      52.002  12.890   0.946  1.00  0.00     0.222 C 
HETATM   11  O1  UNL     1      51.421  11.805   0.675  1.00  0.00    -0.273 OA
ATOM     12  H1  UNL     1      53.584  13.782   1.909  1.00  0.00     0.162 HD
BRANCH  10  13
HETATM   13  C9  UNL     1      51.395  14.143   0.414  1.00  0.00     0.078 C 
HETATM   14  C10 UNL     1      50.924  13.910  -1.028  1.00  0.00     0.014 C 
HETATM   15  C11 UNL     1      50.141  15.134  -1.438  1.00  0.00     0.001 C 
HETATM   16  C12 UNL     1      51.067  16.311  -1.482  1.00  0.00     0.000 C 
HETATM   17  C13 UNL     1      52.423  16.013  -0.896  1.00  0.00     0.001 C 
HETATM   18  C14 UNL     1      52.309  15.336   0.454  1.00  0.00     0.014 C 
ENDBRANCH  10  13
ENDBRANCH   7   9
BRANCH   8  19
HETATM   19  C16 UNL     1      54.143   9.604   0.863  1.00  0.00     0.007 C 
BRANCH  19  20
HETATM   20  C17 UNL     1      55.055   8.861  -0.093  1.00  0.00     0.000 C 
BRANCH  20  21
HETATM   21  C18 UNL     1      54.280   7.739  -0.781  1.00  0.00     0.000 C 
BRANCH  21  22
HETATM   22  C19 UNL     1      54.326   7.908  -2.289  1.00  0.00     0.009 C 
BRANCH  22  23
HETATM   23  C20 UNL     1      54.780   9.244  -2.732  1.00  0.00     0.099 C 
BRANCH  23  24
HETATM   24  C21 UNL     1      53.665  10.136  -3.083  1.00  0.00     0.231 C 
HETATM   25  N2  UNL     1      53.170  10.113  -4.431  1.00  0.00    -0.062 NA
HETATM   26  O2  UNL     1      53.127  10.920  -2.269  1.00  0.00    -0.277 OA
ENDBRANCH  23  24
ENDBRANCH  22  23
ENDBRANCH  21  22
ENDBRANCH  20  21
ENDBRANCH  19  20
ENDBRANCH   8  19
TORSDOF 8
ENDMDL
MODEL 5
REMARK VINA RESULT: -8.307366175      2.543      2.932
REMARK  8 active torsions:
REMARK  status: ('A' for Active; 'I' for Inactive)
REMARK    1  A    between atoms: C7_7  and  N1_8 
REMARK       I    between atoms: N1_8  and  C8_10 
REMARK    2  A    between atoms: C8_10  and  C9_12 
REMARK    3  A    between atoms: C15_18  and  C16_19 
REMARK    4  A    between atoms: C16_19  and  C17_20 
REMARK    5  A    between atoms: C17_20  and  C18_21 
REMARK    6  A    between atoms: C18_21  and  C19_22 
REMARK    7  A    between atoms: C19_22  and  C20_23 
REMARK    8  A    between atoms: C20_23  and  C21_24 
ROOT
HETATM    1  C1  UNL     1      56.954  11.655   1.150  1.00  0.00     0.011 C 
HETATM    2  C2  UNL     1      55.952  10.698   1.843  1.00  0.00    -0.009 C 
HETATM    3  C3  UNL     1      55.738  11.241   3.197  1.00  0.00    -0.010 C 
HETATM    4  C4  UNL     1      55.307  12.709   2.999  1.00  0.00     0.011 C 
HETATM    5  C5  UNL     1      53.925  12.150   2.835  1.00  0.00     0.009 C 
HETATM    6  C6  UNL     1      54.371  11.046   3.791  1.00  0.00     0.011 C 
HETATM    7  C7  UNL     1      53.646  11.511   1.509  1.00  0.00     0.093 C 
HETATM    8  C15 UNL     1      54.705  10.632   0.961  1.00  0.00     0.013 C 
ENDROOT
BRANCH   7   9
HETATM    9  N1  UNL     1      53.166  12.495   0.545  1.00  0.00    -0.355 N 
HETATM   10  C8  UNL     1      51.850  12.728   0.164  1.00  0.00     0.222 C 
HETATM   11  O1  UNL     1      50.921  12.057   0.689  1.00  0.00    -0.273 OA
ATOM     12  H1  UNL     1      53.875  13.077   0.100  1.00  0.00     0.162 HD
BRANCH  10  13
HETATM   13  C9  UNL     1      51.468  13.742  -0.860  1.00  0.00     0.078 C 
HETATM   14  C10 UNL     1      51.637  15.150  -0.273  1.00  0.00     0.014 C 
HETATM   15  C11 UNL     1      51.438  16.126  -1.406  1.00  0.00     0.001 C 
HETATM   16  C12 UNL     1      50.020  16.035  -1.882  1.00  0.00     0.000 C 
HETATM   17  C13 UNL     1      49.273  14.872  -1.283  1.00  0.00     0.001 C 
HETATM   18  C14 UNL     1      50.070  13.587  -1.389  1.00  0.00     0.014 C 
ENDBRANCH  10  13
ENDBRANCH   7   9
BRANCH   8  19
HETATM   19  C16 UNL     1      54.329   9.184   0.773  1.00  0.00     0.007 C 
BRANCH  19  20
HETATM   20  C17 UNL     1      55.136   8.484  -0.302  1.00  0.00     0.000 C 
BRANCH  20  21
HETATM   21  C18 UNL     1      54.234   7.538  -1.093  1.00  0.00     0.000 C 
BRANCH  21  22
HETATM   22  C19 UNL     1      54.338   7.825  -2.580  1.00  0.00     0.009 C 
BRANCH  22  23
HETATM   23  C20 UNL     1      54.785   9.199  -2.900  1.00  0.00     0.099 C 
BRANCH  23  24
HETATM   24  C21 UNL     1      53.665  10.120  -3.144  1.00  0.00     0.231 C 
HETATM   25  N2  UNL     1      53.086  10.158  -4.457  1.00  0.00    -0.062 NA
HETATM   26  O2  UNL     1      53.193  10.876  -2.267  1.00  0.00    -0.277 OA
ENDBRANCH  23  24
ENDBRANCH  22  23
ENDBRANCH  21  22
ENDBRANCH  20  21
ENDBRANCH  19  20
ENDBRANCH   8  19
TORSDOF 8
ENDMDL
