MODEL 1
REMARK VINA RESULT: -8.621245818      0.000      0.000
REMARK  10 active torsions:
REMARK  status: ('A' for Active; 'I' for Inactive)
REMARK    1  A    between atoms: C2_2  and  C3_3 
REMARK    2  A    between atoms: C2_2  and  O3_29 
REMARK    3  A    between atoms: C3_3  and  C4_4 
REMARK    4  A    between atoms: C4_4  and  C5_5 
REMARK    5  A    between atoms: C5_5  and  C7_7 
REMARK    6  A    between atoms: C11_11  and  O1_12 
REMARK    7  A    between atoms: C12_14  and  C13_15 
REMARK    8  A    between atoms: O3_29  and  C26_30 
REMARK    9  A    between atoms: C28_33  and  O5_34 
REMARK   10  A    between atoms: C29_36  and  O6_37 
ROOT
HETATM    1  C7  UNL     1      21.712  22.981  57.330  1.00  0.00    -0.002 C 
HETATM    2  C8  UNL     1      20.999  23.949  58.197  1.00  0.00     0.006 C 
HETATM    3  C9  UNL     1      20.848  23.049  59.449  1.00  0.00     0.008 C 
HETATM    4  C10 UNL     1      20.480  21.685  58.843  1.00  0.00     0.023 C 
HETATM    5  C11 UNL     1      21.385  20.667  59.499  1.00  0.00     0.128 C 
HETATM    6  C12 UNL     1      21.180  19.282  59.047  1.00  0.00     0.023 C 
HETATM    7  C22 UNL     1      20.977  19.298  57.543  1.00  0.00     0.009 C 
HETATM    8  C23 UNL     1      21.550  20.583  56.945  1.00  0.00     0.010 C 
HETATM    9  C24 UNL     1      20.795  21.798  57.352  1.00  0.00    -0.034 C 
HETATM   10  C25 UNL     1      19.522  21.957  56.621  1.00  0.00     0.016 C 
ENDROOT
BRANCH   1  11
HETATM   11  C5  UNL     1      22.310  23.395  56.087  1.00  0.00    -0.014 C 
HETATM   12  C6  UNL     1      23.841  23.257  56.194  1.00  0.00     0.010 C 
BRANCH  11  13
HETATM   13  C4  UNL     1      22.028  24.667  55.425  1.00  0.00     0.007 C 
BRANCH  13  14
HETATM   14  C3  UNL     1      22.158  24.735  53.944  1.00  0.00     0.032 C 
BRANCH  14  15
HETATM   15  C2  UNL     1      20.810  24.606  53.242  1.00  0.00     0.120 C 
HETATM   16  C1  UNL     1      20.566  23.190  52.765  1.00  0.00     0.039 C 
BRANCH  15  17
HETATM   17  O3  UNL     1      20.734  25.440  52.135  1.00  0.00    -0.354 OA
BRANCH  17  18
HETATM   18  C26 UNL     1      20.485  26.761  52.478  1.00  0.00     0.291 C 
HETATM   19  O4  UNL     1      21.451  27.630  51.986  1.00  0.00    -0.356 OA
HETATM   20  C27 UNL     1      20.853  28.876  52.273  1.00  0.00     0.205 C 
HETATM   21  C28 UNL     1      19.458  28.737  51.693  1.00  0.00     0.175 C 
HETATM   22  C29 UNL     1      19.156  27.266  51.987  1.00  0.00     0.204 C 
BRANCH  21  23
HETATM   23  O5  UNL     1      18.602  29.559  52.395  1.00  0.00    -0.391 OA
ATOM     24  H5  UNL     1      18.593  30.415  51.982  1.00  0.00     0.210 HD
ENDBRANCH  21  23
BRANCH  22  25
HETATM   25  O6  UNL     1      18.781  26.659  50.768  1.00  0.00    -0.388 OA
ATOM     26  H6  UNL     1      18.234  25.893  50.907  1.00  0.00     0.210 HD
ENDBRANCH  22  25
ENDBRANCH  17  18
ENDBRANCH  15  17
ENDBRANCH  14  15
ENDBRANCH  13  14
ENDBRANCH  11  13
ENDBRANCH   1  11
BRANCH   5  27
HETATM   27  O1  UNL     1      21.384  20.904  60.849  1.00  0.00    -0.395 OA
ATOM     28  H1  UNL     1      21.902  20.226  61.268  1.00  0.00     0.210 HD
ENDBRANCH   5  27
BRANCH   6  29
HETATM   29  C13 UNL     1      20.155  18.469  59.765  1.00  0.00    -0.034 C 
HETATM   30  C14 UNL     1      18.760  19.039  59.690  1.00  0.00     0.016 C 
HETATM   31  C15 UNL     1      20.487  18.318  61.230  1.00  0.00     0.011 C 
HETATM   32  C16 UNL     1      19.782  17.061  61.694  1.00  0.00     0.013 C 
HETATM   33  C17 UNL     1      19.415  16.309  60.458  1.00  0.00     0.060 C 
HETATM   34  C18 UNL     1      20.051  14.979  60.506  1.00  0.00     0.131 C 
HETATM   35  C21 UNL     1      20.071  17.055  59.301  1.00  0.00     0.006 C 
HETATM   36  O2  UNL     1      19.684  14.065  61.220  1.00  0.00    -0.298 OA
HETATM   37  C19 UNL     1      21.181  14.925  59.576  1.00  0.00     0.079 C 
HETATM   38  C20 UNL     1      21.366  16.347  59.075  1.00  0.00     0.013 C 
ENDBRANCH   6  29
TORSDOF 10
ENDMDL
MODEL 2
REMARK VINA RESULT: -8.612790108      1.885      3.069
REMARK  10 active torsions:
REMARK  status: ('A' for Active; 'I' for Inactive)
REMARK    1  A    between atoms: C2_2  and  C3_3 
REMARK    2  A    between atoms: C2_2  and  O3_29 
REMARK    3  A    between atoms: C3_3  and  C4_4 
REMARK    4  A    between atoms: C4_4  and  C5_5 
REMARK    5  A    between atoms: C5_5  and  C7_7 
REMARK    6  A    between atoms: C11_11  and  O1_12 
REMARK    7  A    between atoms: C12_14  and  C13_15 
REMARK    8  A    between atoms: O3_29  and  C26_30 
REMARK    9  A    between atoms: C28_33  and  O5_34 
REMARK   10  A    between atoms: C29_36  and  O6_37 
ROOT
HETATM    1  C7  UNL     1      21.173  21.910  60.678  1.00  0.00    -0.002 C 
HETATM    2  C8  UNL     1      20.094  22.498  61.507  1.00  0.00     0.006 C 
HETATM    3  C9  UNL     1      19.595  21.190  62.172  1.00  0.00     0.008 C 
HETATM    4  C10 UNL     1      19.621  20.187  61.009  1.00  0.00     0.023 C 
HETATM    5  C11 UNL     1      20.328  18.953  61.523  1.00  0.00     0.128 C 
HETATM    6  C12 UNL     1      20.452  17.862  60.544  1.00  0.00     0.023 C 
HETATM    7  C22 UNL     1      20.810  18.469  59.199  1.00  0.00     0.009 C 
HETATM    8  C23 UNL     1      21.420  19.858  59.390  1.00  0.00     0.010 C 
HETATM    9  C24 UNL     1      20.443  20.854  59.906  1.00  0.00    -0.034 C 
HETATM   10  C25 UNL     1      19.515  21.342  58.869  1.00  0.00     0.016 C 
ENDROOT
BRANCH   1  11
HETATM   11  C5  UNL     1      22.134  22.745  60.006  1.00  0.00    -0.014 C 
HETATM   12  C6  UNL     1      22.868  23.609  61.049  1.00  0.00     0.010 C 
BRANCH  11  13
HETATM   13  C4  UNL     1      21.819  23.604  58.866  1.00  0.00     0.007 C 
BRANCH  13  14
HETATM   14  C3  UNL     1      22.409  23.265  57.543  1.00  0.00     0.032 C 
BRANCH  14  15
HETATM   15  C2  UNL     1      21.653  23.921  56.392  1.00  0.00     0.120 C 
HETATM   16  C1  UNL     1      20.981  22.889  55.510  1.00  0.00     0.039 C 
BRANCH  15  17
HETATM   17  O3  UNL     1      22.503  24.669  55.588  1.00  0.00    -0.354 OA
BRANCH  17  18
HETATM   18  C26 UNL     1      21.844  25.690  54.919  1.00  0.00     0.291 C 
HETATM   19  O4  UNL     1      22.141  26.944  55.438  1.00  0.00    -0.356 OA
HETATM   20  C27 UNL     1      21.544  27.777  54.467  1.00  0.00     0.205 C 
HETATM   21  C28 UNL     1      22.097  27.243  53.160  1.00  0.00     0.175 C 
HETATM   22  C29 UNL     1      22.158  25.742  53.450  1.00  0.00     0.204 C 
BRANCH  21  23
HETATM   23  O5  UNL     1      21.192  27.509  52.153  1.00  0.00    -0.391 OA
ATOM     24  H5  UNL     1      21.286  26.848  51.477  1.00  0.00     0.210 HD
ENDBRANCH  21  23
BRANCH  22  25
HETATM   25  O6  UNL     1      23.477  25.311  53.178  1.00  0.00    -0.388 OA
ATOM     26  H6  UNL     1      23.506  24.392  52.938  1.00  0.00     0.210 HD
ENDBRANCH  22  25
ENDBRANCH  17  18
ENDBRANCH  15  17
ENDBRANCH  14  15
ENDBRANCH  13  14
ENDBRANCH  11  13
ENDBRANCH   1  11
BRANCH   5  27
HETATM   27  O1  UNL     1      19.811  18.648  62.755  1.00  0.00    -0.395 OA
ATOM     28  H1  UNL     1      19.668  19.461  63.225  1.00  0.00     0.210 HD
ENDBRANCH   5  27
BRANCH   6  29
HETATM   29  C13 UNL     1      19.329  16.883  60.460  1.00  0.00    -0.034 C 
HETATM   30  C14 UNL     1      18.009  17.498  60.069  1.00  0.00     0.016 C 
HETATM   31  C15 UNL     1      19.108  16.173  61.775  1.00  0.00     0.011 C 
HETATM   32  C16 UNL     1      18.424  14.866  61.437  1.00  0.00     0.013 C 
HETATM   33  C17 UNL     1      18.626  14.656  59.973  1.00  0.00     0.060 C 
HETATM   34  C18 UNL     1      19.341  13.381  59.772  1.00  0.00     0.131 C 
HETATM   35  C21 UNL     1      19.579  15.755  59.517  1.00  0.00     0.006 C 
HETATM   36  O2  UNL     1      18.838  12.281  59.901  1.00  0.00    -0.298 OA
HETATM   37  C19 UNL     1      20.733  13.635  59.398  1.00  0.00     0.079 C 
HETATM   38  C20 UNL     1      20.935  15.131  59.565  1.00  0.00     0.013 C 
ENDBRANCH   6  29
TORSDOF 10
ENDMDL
MODEL 3
REMARK VINA RESULT: -8.424089289      1.658      2.681
REMARK  10 active torsions:
REMARK  status: ('A' for Active; 'I' for Inactive)
REMARK    1  A    between atoms: C2_2  and  C3_3 
REMARK    2  A    between atoms: C2_2  and  O3_29 
REMARK    3  A    between atoms: C3_3  and  C4_4 
REMARK    4  A    between atoms: C4_4  and  C5_5 
REMARK    5  A    between atoms: C5_5  and  C7_7 
REMARK    6  A    between atoms: C11_11  and  O1_12 
REMARK    7  A    between atoms: C12_14  and  C13_15 
REMARK    8  A    between atoms: O3_29  and  C26_30 
REMARK    9  A    between atoms: C28_33  and  O5_34 
REMARK   10  A    between atoms: C29_36  and  O6_37 
ROOT
HETATM    1  C7  UNL     1      21.259  22.470  60.168  1.00  0.00    -0.002 C 
HETATM    2  C8  UNL     1      20.412  22.993  61.266  1.00  0.00     0.006 C 
HETATM    3  C9  UNL     1      20.177  21.657  62.014  1.00  0.00     0.008 C 
HETATM    4  C10 UNL     1      19.943  20.662  60.867  1.00  0.00     0.023 C 
HETATM    5  C11 UNL     1      20.825  19.467  61.150  1.00  0.00     0.128 C 
HETATM    6  C12 UNL     1      20.739  18.390  60.152  1.00  0.00     0.023 C 
HETATM    7  C22 UNL     1      20.693  19.023  58.772  1.00  0.00     0.009 C 
HETATM    8  C23 UNL     1      21.259  20.442  58.821  1.00  0.00     0.010 C 
HETATM    9  C24 UNL     1      20.406  21.379  59.598  1.00  0.00    -0.034 C 
HETATM   10  C25 UNL     1      19.209  21.821  58.855  1.00  0.00     0.016 C 
ENDROOT
BRANCH   1  11
HETATM   11  C5  UNL     1      21.961  23.360  59.281  1.00  0.00    -0.014 C 
HETATM   12  C6  UNL     1      21.294  24.748  59.327  1.00  0.00     0.010 C 
BRANCH  11  13
HETATM   13  C4  UNL     1      22.255  23.060  57.881  1.00  0.00     0.007 C 
BRANCH  13  14
HETATM   14  C3  UNL     1      21.844  24.048  56.847  1.00  0.00     0.032 C 
BRANCH  14  15
HETATM   15  C2  UNL     1      22.812  24.082  55.668  1.00  0.00     0.120 C 
HETATM   16  C1  UNL     1      24.072  23.295  55.962  1.00  0.00     0.039 C 
BRANCH  15  17
HETATM   17  O3  UNL     1      23.191  25.381  55.362  1.00  0.00    -0.354 OA
BRANCH  17  18
HETATM   18  C26 UNL     1      22.129  26.158  54.924  1.00  0.00     0.291 C 
HETATM   19  O4  UNL     1      22.288  27.502  55.238  1.00  0.00    -0.356 OA
HETATM   20  C27 UNL     1      21.222  28.070  54.506  1.00  0.00     0.205 C 
HETATM   21  C28 UNL     1      21.406  27.493  53.116  1.00  0.00     0.175 C 
HETATM   22  C29 UNL     1      21.904  26.083  53.439  1.00  0.00     0.204 C 
BRANCH  21  23
HETATM   23  O5  UNL     1      20.177  27.444  52.490  1.00  0.00    -0.391 OA
ATOM     24  H5  UNL     1      20.013  28.282  52.074  1.00  0.00     0.210 HD
ENDBRANCH  21  23
BRANCH  22  25
HETATM   25  O6  UNL     1      23.113  25.889  52.734  1.00  0.00    -0.388 OA
ATOM     26  H6  UNL     1      23.011  26.060  51.804  1.00  0.00     0.210 HD
ENDBRANCH  22  25
ENDBRANCH  17  18
ENDBRANCH  15  17
ENDBRANCH  14  15
ENDBRANCH  13  14
ENDBRANCH  11  13
ENDBRANCH   1  11
BRANCH   5  27
HETATM   27  O1  UNL     1      20.672  19.128  62.469  1.00  0.00    -0.395 OA
ATOM     28  H1  UNL     1      20.990  19.850  62.998  1.00  0.00     0.210 HD
ENDBRANCH   5  27
BRANCH   6  29
HETATM   29  C13 UNL     1      19.687  17.350  60.351  1.00  0.00    -0.034 C 
HETATM   30  C14 UNL     1      18.281  17.856  60.147  1.00  0.00     0.016 C 
HETATM   31  C15 UNL     1      19.742  16.759  61.740  1.00  0.00     0.011 C 
HETATM   32  C16 UNL     1      19.100  15.392  61.640  1.00  0.00     0.013 C 
HETATM   33  C17 UNL     1      19.063  15.053  60.187  1.00  0.00     0.060 C 
HETATM   34  C18 UNL     1      19.817  13.804  59.972  1.00  0.00     0.131 C 
HETATM   35  C21 UNL     1      19.848  16.152  59.478  1.00  0.00     0.006 C 
HETATM   36  O2  UNL     1      19.419  12.697  60.282  1.00  0.00    -0.298 OA
HETATM   37  C19 UNL     1      21.105  14.092  59.339  1.00  0.00     0.079 C 
HETATM   38  C20 UNL     1      21.231  15.606  59.339  1.00  0.00     0.013 C 
ENDBRANCH   6  29
TORSDOF 10
ENDMDL
MODEL 4
REMARK VINA RESULT: -8.372194169      0.884      1.149
REMARK  10 active torsions:
REMARK  status: ('A' for Active; 'I' for Inactive)
REMARK    1  A    between atoms: C2_2  and  C3_3 
REMARK    2  A    between atoms: C2_2  and  O3_29 
REMARK    3  A    between atoms: C3_3  and  C4_4 
REMARK    4  A    between atoms: C4_4  and  C5_5 
REMARK    5  A    between atoms: C5_5  and  C7_7 
REMARK    6  A    between atoms: C11_11  and  O1_12 
REMARK    7  A    between atoms: C12_14  and  C13_15 
REMARK    8  A    between atoms: O3_29  and  C26_30 
REMARK    9  A    between atoms: C28_33  and  O5_34 
REMARK   10  A    between atoms: C29_36  and  O6_37 
ROOT
HETATM    1  C7  UNL     1      21.276  22.430  57.584  1.00  0.00    -0.002 C 
HETATM    2  C8  UNL     1      20.542  23.319  58.516  1.00  0.00     0.006 C 
HETATM    3  C9  UNL     1      20.446  22.342  59.716  1.00  0.00     0.008 C 
HETATM    4  C10 UNL     1      20.119  21.003  59.037  1.00  0.00     0.023 C 
HETATM    5  C11 UNL     1      21.072  19.984  59.619  1.00  0.00     0.128 C 
HETATM    6  C12 UNL     1      20.912  18.621  59.090  1.00  0.00     0.023 C 
HETATM    7  C22 UNL     1      20.683  18.715  57.592  1.00  0.00     0.009 C 
HETATM    8  C23 UNL     1      21.197  20.054  57.062  1.00  0.00     0.010 C 
HETATM    9  C24 UNL     1      20.404  21.213  57.550  1.00  0.00    -0.034 C 
HETATM   10  C25 UNL     1      19.114  21.366  56.849  1.00  0.00     0.016 C 
ENDROOT
BRANCH   1  11
HETATM   11  C5  UNL     1      21.837  22.938  56.359  1.00  0.00    -0.014 C 
HETATM   12  C6  UNL     1      23.373  22.938  56.470  1.00  0.00     0.010 C 
BRANCH  11  13
HETATM   13  C4  UNL     1      21.440  24.199  55.736  1.00  0.00     0.007 C 
BRANCH  13  14
HETATM   14  C3  UNL     1      21.645  24.357  54.271  1.00  0.00     0.032 C 
BRANCH  14  15
HETATM   15  C2  UNL     1      22.454  25.606  53.935  1.00  0.00     0.120 C 
HETATM   16  C1  UNL     1      22.176  26.727  54.915  1.00  0.00     0.039 C 
BRANCH  15  17
HETATM   17  O3  UNL     1      22.154  26.077  52.664  1.00  0.00    -0.354 OA
BRANCH  17  18
HETATM   18  C26 UNL     1      21.343  27.202  52.690  1.00  0.00     0.291 C 
HETATM   19  O4  UNL     1      21.834  28.231  51.895  1.00  0.00    -0.356 OA
HETATM   20  C27 UNL     1      20.743  29.127  51.924  1.00  0.00     0.205 C 
HETATM   21  C28 UNL     1      19.561  28.252  51.551  1.00  0.00     0.175 C 
HETATM   22  C29 UNL     1      19.935  26.935  52.235  1.00  0.00     0.204 C 
BRANCH  21  23
HETATM   23  O5  UNL     1      18.420  28.785  52.113  1.00  0.00    -0.391 OA
ATOM     24  H5  UNL     1      18.552  29.716  52.248  1.00  0.00     0.210 HD
ENDBRANCH  21  23
BRANCH  22  25
HETATM   25  O6  UNL     1      19.883  25.919  51.254  1.00  0.00    -0.388 OA
ATOM     26  H6  UNL     1      18.994  25.752  50.964  1.00  0.00     0.210 HD
ENDBRANCH  22  25
ENDBRANCH  17  18
ENDBRANCH  15  17
ENDBRANCH  14  15
ENDBRANCH  13  14
ENDBRANCH  11  13
ENDBRANCH   1  11
BRANCH   5  27
HETATM   27  O1  UNL     1      21.085  20.142  60.980  1.00  0.00    -0.395 OA
ATOM     28  H1  UNL     1      21.400  19.334  61.368  1.00  0.00     0.210 HD
ENDBRANCH   5  27
BRANCH   6  29
HETATM   29  C13 UNL     1      19.930  17.729  59.775  1.00  0.00    -0.034 C 
HETATM   30  C14 UNL     1      18.496  18.179  59.638  1.00  0.00     0.016 C 
HETATM   31  C15 UNL     1      20.213  17.616  61.253  1.00  0.00     0.011 C 
HETATM   32  C16 UNL     1      19.598  16.307  61.701  1.00  0.00     0.013 C 
HETATM   33  C17 UNL     1      19.346  15.519  60.459  1.00  0.00     0.060 C 
HETATM   34  C18 UNL     1      20.089  14.248  60.545  1.00  0.00     0.131 C 
HETATM   35  C21 UNL     1      19.984  16.309  59.321  1.00  0.00     0.006 C 
HETATM   36  O2  UNL     1      19.772  13.311  61.253  1.00  0.00    -0.298 OA
HETATM   37  C19 UNL     1      21.256  14.282  59.662  1.00  0.00     0.079 C 
HETATM   38  C20 UNL     1      21.342  15.712  59.154  1.00  0.00     0.013 C 
ENDBRANCH   6  29
TORSDOF 10
ENDMDL
MODEL 5
REMARK VINA RESULT: -8.200222096      1.301      1.598
REMARK  10 active torsions:
REMARK  status: ('A' for Active; 'I' for Inactive)
REMARK    1  A    between atoms: C2_2  and  C3_3 
REMARK    2  A    between atoms: C2_2  and  O3_29 
REMARK    3  A    between atoms: C3_3  and  C4_4 
REMARK    4  A    between atoms: C4_4  and  C5_5 
REMARK    5  A    between atoms: C5_5  and  C7_7 
REMARK    6  A    between atoms: C11_11  and  O1_12 
REMARK    7  A    between atoms: C12_14  and  C13_15 
REMARK    8  A    between atoms: O3_29  and  C26_30 
REMARK    9  A    between atoms: C28_33  and  O5_34 
REMARK   10  A    between atoms: C29_36  and  O6_37 
ROOT
HETATM    1  C7  UNL     1      21.045  22.015  57.283  1.00  0.00    -0.002 C 
HETATM    2  C8  UNL     1      20.337  22.944  58.196  1.00  0.00     0.006 C 
HETATM    3  C9  UNL     1      20.302  22.032  59.448  1.00  0.00     0.008 C 
HETATM    4  C10 UNL     1      19.967  20.654  58.856  1.00  0.00     0.023 C 
HETATM    5  C11 UNL     1      20.958  19.680  59.452  1.00  0.00     0.128 C 
HETATM    6  C12 UNL     1      20.795  18.288  59.003  1.00  0.00     0.023 C 
HETATM    7  C22 UNL     1      20.506  18.299  57.512  1.00  0.00     0.009 C 
HETATM    8  C23 UNL     1      20.979  19.614  56.891  1.00  0.00     0.010 C 
HETATM    9  C24 UNL     1      20.190  20.788  57.349  1.00  0.00    -0.034 C 
HETATM   10  C25 UNL     1      18.871  20.887  56.694  1.00  0.00     0.016 C 
ENDROOT
BRANCH   1  11
HETATM   11  C5  UNL     1      21.549  22.463  56.011  1.00  0.00    -0.014 C 
HETATM   12  C6  UNL     1      22.877  23.212  56.230  1.00  0.00     0.010 C 
BRANCH  11  13
HETATM   13  C4  UNL     1      20.767  23.229  55.043  1.00  0.00     0.007 C 
BRANCH  13  14
HETATM   14  C3  UNL     1      20.787  22.796  53.619  1.00  0.00     0.032 C 
BRANCH  14  15
HETATM   15  C2  UNL     1      20.467  23.943  52.665  1.00  0.00     0.120 C 
HETATM   16  C1  UNL     1      20.115  23.432  51.283  1.00  0.00     0.039 C 
BRANCH  15  17
HETATM   17  O3  UNL     1      21.547  24.805  52.530  1.00  0.00    -0.354 OA
BRANCH  17  18
HETATM   18  C26 UNL     1      21.552  25.808  53.488  1.00  0.00     0.291 C 
HETATM   19  O4  UNL     1      22.833  26.269  53.768  1.00  0.00    -0.356 OA
HETATM   20  C27 UNL     1      22.536  27.393  54.569  1.00  0.00     0.205 C 
HETATM   21  C28 UNL     1      21.518  28.155  53.742  1.00  0.00     0.175 C 
HETATM   22  C29 UNL     1      20.733  27.008  53.103  1.00  0.00     0.204 C 
BRANCH  21  23
HETATM   23  O5  UNL     1      20.712  28.884  54.591  1.00  0.00    -0.391 OA
ATOM     24  H5  UNL     1      20.289  28.287  55.197  1.00  0.00     0.210 HD
ENDBRANCH  21  23
BRANCH  22  25
HETATM   25  O6  UNL     1      20.735  27.220  51.706  1.00  0.00    -0.388 OA
ATOM     26  H6  UNL     1      21.608  27.403  51.378  1.00  0.00     0.210 HD
ENDBRANCH  22  25
ENDBRANCH  17  18
ENDBRANCH  15  17
ENDBRANCH  14  15
ENDBRANCH  13  14
ENDBRANCH  11  13
ENDBRANCH   1  11
BRANCH   5  27
HETATM   27  O1  UNL     1      21.023  19.910  60.801  1.00  0.00    -0.395 OA
ATOM     28  H1  UNL     1      21.015  20.850  60.940  1.00  0.00     0.210 HD
ENDBRANCH   5  27
BRANCH   6  29
HETATM   29  C13 UNL     1      19.855  17.422  59.773  1.00  0.00    -0.034 C 
HETATM   30  C14 UNL     1      18.408  17.832  59.651  1.00  0.00     0.016 C 
HETATM   31  C15 UNL     1      20.184  17.412  61.246  1.00  0.00     0.011 C 
HETATM   32  C16 UNL     1      19.612  16.123  61.796  1.00  0.00     0.013 C 
HETATM   33  C17 UNL     1      19.342  15.250  60.616  1.00  0.00     0.060 C 
HETATM   34  C18 UNL     1      20.116  14.003  60.762  1.00  0.00     0.131 C 
HETATM   35  C21 UNL     1      19.928  15.978  59.411  1.00  0.00     0.006 C 
HETATM   36  O2  UNL     1      19.841  13.108  61.538  1.00  0.00    -0.298 OA
HETATM   37  C19 UNL     1      21.256  14.004  59.843  1.00  0.00     0.079 C 
HETATM   38  C20 UNL     1      21.294  15.399  59.241  1.00  0.00     0.013 C 
ENDBRANCH   6  29
TORSDOF 10
ENDMDL
