MODEL 1
REMARK VINA RESULT: -7.625430486      0.000      0.000
REMARK  10 active torsions:
REMARK  status: ('A' for Active; 'I' for Inactive)
REMARK    1  A    between atoms: C2_2  and  C3_3 
REMARK    2  A    between atoms: C3_3  and  C5_5 
REMARK    3  A    between atoms: C11_12  and  O2_13 
REMARK    4  A    between atoms: C15_18  and  C16_19 
REMARK    5  A    between atoms: C19_22  and  O3_23 
REMARK    6  A    between atoms: C21_26  and  O4_27 
REMARK    7  A    between atoms: C23_31  and  C24_32 
REMARK    8  A    between atoms: C26_34  and  C27_35 
REMARK    9  A    between atoms: C27_35  and  O6_36 
REMARK   10  A    between atoms: C27_35  and  C28_38 
ROOT
HETATM    1  C5  UNL     1      19.704  18.426  58.240  1.00  0.00    -0.021 C 
HETATM    2  C6  UNL     1      21.144  18.199  57.989  1.00  0.00     0.012 C 
HETATM    3  C7  UNL     1      21.859  17.137  58.842  1.00  0.00     0.024 C 
HETATM    4  C8  UNL     1      20.684  16.310  59.183  1.00  0.00     0.082 C 
HETATM    5  C9  UNL     1      20.440  15.899  57.781  1.00  0.00     0.144 C 
HETATM    6  O1  UNL     1      21.444  15.648  57.094  1.00  0.00    -0.297 OA
HETATM    7  C10 UNL     1      19.291  15.689  56.906  1.00  0.00     0.118 C 
HETATM    8  C11 UNL     1      18.326  16.100  58.051  1.00  0.00     0.081 C 
HETATM    9  C12 UNL     1      18.588  17.519  58.011  1.00  0.00     0.050 C 
HETATM   10  C13 UNL     1      18.463  15.132  59.133  1.00  0.00     0.070 C 
HETATM   11  C14 UNL     1      17.117  14.358  59.209  1.00  0.00     0.029 C 
HETATM   12  C15 UNL     1      19.490  14.088  59.273  1.00  0.00    -0.023 C 
HETATM   13  C19 UNL     1      20.668  14.949  59.773  1.00  0.00     0.105 C 
HETATM   14  C20 UNL     1      19.969  15.169  61.124  1.00  0.00     0.113 C 
HETATM   15  C21 UNL     1      18.602  15.635  60.566  1.00  0.00     0.179 C 
HETATM   16  O5  UNL     1      18.785  16.928  60.649  1.00  0.00    -0.347 OA
HETATM   17  C22 UNL     1      19.982  17.237  60.033  1.00  0.00     0.153 C 
HETATM   18  C23 UNL     1      19.697  18.700  59.694  1.00  0.00     0.053 C 
ENDROOT
BRANCH  18  19
HETATM   19  C24 UNL     1      20.287  19.719  60.489  1.00  0.00    -0.077 C 
HETATM   20  C25 UNL     1      20.955  19.033  61.660  1.00  0.00     0.043 C 
HETATM   21  C26 UNL     1      20.917  20.962  60.218  1.00  0.00     0.012 C 
BRANCH  21  22
HETATM   22  C27 UNL     1      21.460  21.744  61.373  1.00  0.00     0.169 C 
BRANCH  22  23
HETATM   23  O6  UNL     1      20.268  22.536  61.859  1.00  0.00    -0.387 OA
ATOM     24  H6  UNL     1      20.073  22.151  62.705  1.00  0.00     0.210 HD
ENDBRANCH  22  23
BRANCH  22  25
HETATM   25  C28 UNL     1      22.298  22.924  61.051  1.00  0.00    -0.061 C 
HETATM   26  C29 UNL     1      23.335  23.293  61.735  1.00  0.00     0.017 C 
HETATM   27  C30 UNL     1      21.957  23.664  59.804  1.00  0.00     0.045 C 
ENDBRANCH  22  25
ENDBRANCH  21  22
ENDBRANCH  18  19
BRANCH   1  28
HETATM   28  C3  UNL     1      19.389  19.725  57.506  1.00  0.00     0.012 C 
HETATM   29  C4  UNL     1      20.571  20.233  56.694  1.00  0.00     0.015 C 
BRANCH  28  30
HETATM   30  C2  UNL     1      18.239  19.683  56.614  1.00  0.00    -0.032 C 
HETATM   31  C1  UNL     1      17.770  20.809  56.110  1.00  0.00     0.007 C 
ENDBRANCH  28  30
ENDBRANCH   1  28
BRANCH   8  32
HETATM   32  O2  UNL     1      17.068  15.906  57.399  1.00  0.00    -0.388 OA
ATOM     33  H2  UNL     1      16.548  15.595  58.131  1.00  0.00     0.210 HD
ENDBRANCH   8  32
BRANCH  13  34
HETATM   34  O3  UNL     1      21.835  14.293  59.860  1.00  0.00    -0.384 OA
ATOM     35  H3  UNL     1      21.824  13.419  60.232  1.00  0.00     0.211 HD
ENDBRANCH  13  34
BRANCH  15  36
HETATM   36  O4  UNL     1      17.668  15.196  61.454  1.00  0.00    -0.364 OA
ATOM     37  H4  UNL     1      17.037  15.839  61.755  1.00  0.00     0.213 HD
ENDBRANCH  15  36
BRANCH  12  38
HETATM   38  C16 UNL     1      19.621  12.812  58.738  1.00  0.00    -0.065 C 
HETATM   39  C17 UNL     1      19.604  11.719  59.514  1.00  0.00     0.019 C 
HETATM   40  C18 UNL     1      19.852  12.503  57.323  1.00  0.00     0.047 C 
ENDBRANCH  12  38
TORSDOF 10
ENDMDL
MODEL 2
REMARK VINA RESULT: -7.309228329      1.861      4.608
REMARK  10 active torsions:
REMARK  status: ('A' for Active; 'I' for Inactive)
REMARK    1  A    between atoms: C2_2  and  C3_3 
REMARK    2  A    between atoms: C3_3  and  C5_5 
REMARK    3  A    between atoms: C11_12  and  O2_13 
REMARK    4  A    between atoms: C15_18  and  C16_19 
REMARK    5  A    between atoms: C19_22  and  O3_23 
REMARK    6  A    between atoms: C21_26  and  O4_27 
REMARK    7  A    between atoms: C23_31  and  C24_32 
REMARK    8  A    between atoms: C26_34  and  C27_35 
REMARK    9  A    between atoms: C27_35  and  O6_36 
REMARK   10  A    between atoms: C27_35  and  C28_38 
ROOT
HETATM    1  C5  UNL     1      19.571  16.486  60.187  1.00  0.00    -0.021 C 
HETATM    2  C6  UNL     1      18.189  16.996  60.058  1.00  0.00     0.012 C 
HETATM    3  C7  UNL     1      17.902  18.003  58.931  1.00  0.00     0.024 C 
HETATM    4  C8  UNL     1      18.994  17.618  58.016  1.00  0.00     0.082 C 
HETATM    5  C9  UNL     1      18.448  16.263  57.773  1.00  0.00     0.144 C 
HETATM    6  O1  UNL     1      17.216  16.174  57.655  1.00  0.00    -0.297 OA
HETATM    7  C10 UNL     1      18.965  14.906  57.622  1.00  0.00     0.118 C 
HETATM    8  C11 UNL     1      20.414  15.418  57.843  1.00  0.00     0.081 C 
HETATM    9  C12 UNL     1      20.316  15.638  59.266  1.00  0.00     0.050 C 
HETATM   10  C13 UNL     1      20.747  16.330  56.755  1.00  0.00     0.070 C 
HETATM   11  C14 UNL     1      21.857  15.635  55.918  1.00  0.00     0.029 C 
HETATM   12  C15 UNL     1      19.833  16.892  55.749  1.00  0.00    -0.023 C 
HETATM   13  C19 UNL     1      19.168  17.998  56.592  1.00  0.00     0.105 C 
HETATM   14  C20 UNL     1      20.475  18.807  56.610  1.00  0.00     0.113 C 
HETATM   15  C21 UNL     1      21.408  17.665  57.080  1.00  0.00     0.179 C 
HETATM   16  O5  UNL     1      21.427  17.939  58.360  1.00  0.00    -0.347 OA
HETATM   17  C22 UNL     1      20.122  18.058  58.798  1.00  0.00     0.153 C 
HETATM   18  C23 UNL     1      20.344  17.744  60.277  1.00  0.00     0.053 C 
ENDROOT
BRANCH  18  19
HETATM   19  C24 UNL     1      20.348  18.812  61.214  1.00  0.00    -0.077 C 
HETATM   20  C25 UNL     1      21.558  18.615  62.101  1.00  0.00     0.043 C 
HETATM   21  C26 UNL     1      19.983  20.183  61.170  1.00  0.00     0.012 C 
BRANCH  21  22
HETATM   22  C27 UNL     1      20.187  21.006  62.404  1.00  0.00     0.169 C 
BRANCH  22  23
HETATM   23  O6  UNL     1      18.801  21.109  62.996  1.00  0.00    -0.387 OA
ATOM     24  H6  UNL     1      18.944  21.554  63.824  1.00  0.00     0.210 HD
ENDBRANCH  22  23
BRANCH  22  25
HETATM   25  C28 UNL     1      20.374  22.465  62.215  1.00  0.00    -0.061 C 
HETATM   26  C29 UNL     1      19.476  23.359  62.484  1.00  0.00     0.017 C 
HETATM   27  C30 UNL     1      21.724  22.912  61.770  1.00  0.00     0.045 C 
ENDBRANCH  22  25
ENDBRANCH  21  22
ENDBRANCH  18  19
BRANCH   1  28
HETATM   28  C3  UNL     1      19.601  15.807  61.552  1.00  0.00     0.012 C 
HETATM   29  C4  UNL     1      18.233  15.296  61.975  1.00  0.00     0.015 C 
BRANCH  28  30
HETATM   30  C2  UNL     1      20.536  14.698  61.685  1.00  0.00    -0.032 C 
HETATM   31  C1  UNL     1      20.295  13.752  62.572  1.00  0.00     0.007 C 
ENDBRANCH  28  30
ENDBRANCH   1  28
BRANCH   8  32
HETATM   32  O2  UNL     1      21.140  14.196  57.675  1.00  0.00    -0.388 OA
ATOM     33  H2  UNL     1      21.471  14.077  58.557  1.00  0.00     0.210 HD
ENDBRANCH   8  32
BRANCH  13  34
HETATM   34  O3  UNL     1      18.147  18.620  55.984  1.00  0.00    -0.384 OA
ATOM     35  H3  UNL     1      18.352  19.210  55.268  1.00  0.00     0.211 HD
ENDBRANCH  13  34
BRANCH  15  36
HETATM   36  O4  UNL     1      22.613  17.903  56.492  1.00  0.00    -0.364 OA
ATOM     37  H4  UNL     1      23.312  18.193  57.066  1.00  0.00     0.213 HD
ENDBRANCH  15  36
BRANCH  12  38
HETATM   38  C16 UNL     1      19.318  16.397  54.557  1.00  0.00    -0.065 C 
HETATM   39  C17 UNL     1      19.634  16.942  53.374  1.00  0.00     0.019 C 
HETATM   40  C18 UNL     1      18.349  15.301  54.439  1.00  0.00     0.047 C 
ENDBRANCH  12  38
TORSDOF 10
ENDMDL
MODEL 3
REMARK VINA RESULT: -7.114538703      0.978      1.171
REMARK  10 active torsions:
REMARK  status: ('A' for Active; 'I' for Inactive)
REMARK    1  A    between atoms: C2_2  and  C3_3 
REMARK    2  A    between atoms: C3_3  and  C5_5 
REMARK    3  A    between atoms: C11_12  and  O2_13 
REMARK    4  A    between atoms: C15_18  and  C16_19 
REMARK    5  A    between atoms: C19_22  and  O3_23 
REMARK    6  A    between atoms: C21_26  and  O4_27 
REMARK    7  A    between atoms: C23_31  and  C24_32 
REMARK    8  A    between atoms: C26_34  and  C27_35 
REMARK    9  A    between atoms: C27_35  and  O6_36 
REMARK   10  A    between atoms: C27_35  and  C28_38 
ROOT
HETATM    1  C5  UNL     1      19.255  17.684  58.470  1.00  0.00    -0.021 C 
HETATM    2  C6  UNL     1      20.715  17.649  58.237  1.00  0.00     0.012 C 
HETATM    3  C7  UNL     1      21.540  16.618  59.025  1.00  0.00     0.024 C 
HETATM    4  C8  UNL     1      20.469  15.634  59.276  1.00  0.00     0.082 C 
HETATM    5  C9  UNL     1      20.297  15.304  57.841  1.00  0.00     0.144 C 
HETATM    6  O1  UNL     1      21.333  15.229  57.162  1.00  0.00    -0.297 OA
HETATM    7  C10 UNL     1      19.195  15.027  56.926  1.00  0.00     0.118 C 
HETATM    8  C11 UNL     1      18.170  15.231  58.075  1.00  0.00     0.081 C 
HETATM    9  C12 UNL     1      18.260  16.670  58.146  1.00  0.00     0.050 C 
HETATM   10  C13 UNL     1      18.407  14.206  59.085  1.00  0.00     0.070 C 
HETATM   11  C14 UNL     1      17.164  13.274  59.071  1.00  0.00     0.029 C 
HETATM   12  C15 UNL     1      19.550  13.284  59.172  1.00  0.00    -0.023 C 
HETATM   13  C19 UNL     1      20.608  14.239  59.762  1.00  0.00     0.105 C 
HETATM   14  C20 UNL     1      19.867  14.269  61.109  1.00  0.00     0.113 C 
HETATM   15  C21 UNL     1      18.463  14.611  60.554  1.00  0.00     0.179 C 
HETATM   16  O5  UNL     1      18.487  15.906  60.738  1.00  0.00    -0.347 OA
HETATM   17  C22 UNL     1      19.647  16.402  60.175  1.00  0.00     0.153 C 
HETATM   18  C23 UNL     1      19.193  17.843  59.939  1.00  0.00     0.053 C 
ENDROOT
BRANCH  18  19
HETATM   19  C24 UNL     1      19.643  18.861  60.821  1.00  0.00    -0.077 C 
HETATM   20  C25 UNL     1      20.675  18.230  61.730  1.00  0.00     0.043 C 
HETATM   21  C26 UNL     1      19.871  20.257  60.706  1.00  0.00     0.012 C 
BRANCH  21  22
HETATM   22  C27 UNL     1      20.407  20.985  61.899  1.00  0.00     0.169 C 
BRANCH  22  23
HETATM   23  O6  UNL     1      19.172  21.277  62.721  1.00  0.00    -0.387 OA
ATOM     24  H6  UNL     1      19.354  20.860  63.555  1.00  0.00     0.210 HD
ENDBRANCH  22  23
BRANCH  22  25
HETATM   25  C28 UNL     1      20.792  22.403  61.704  1.00  0.00    -0.061 C 
HETATM   26  C29 UNL     1      20.012  23.412  61.935  1.00  0.00     0.017 C 
HETATM   27  C30 UNL     1      22.203  22.661  61.302  1.00  0.00     0.045 C 
ENDBRANCH  22  25
ENDBRANCH  21  22
ENDBRANCH  18  19
BRANCH   1  28
HETATM   28  C3  UNL     1      18.796  18.988  57.826  1.00  0.00     0.012 C 
HETATM   29  C4  UNL     1      19.962  19.832  57.334  1.00  0.00     0.015 C 
BRANCH  28  30
HETATM   30  C2  UNL     1      17.864  18.851  56.716  1.00  0.00    -0.032 C 
HETATM   31  C1  UNL     1      18.115  19.474  55.580  1.00  0.00     0.007 C 
ENDBRANCH  28  30
ENDBRANCH   1  28
BRANCH   8  32
HETATM   32  O2  UNL     1      16.954  14.939  57.380  1.00  0.00    -0.388 OA
ATOM     33  H2  UNL     1      16.829  14.034  57.639  1.00  0.00     0.210 HD
ENDBRANCH   8  32
BRANCH  13  34
HETATM   34  O3  UNL     1      21.844  13.721  59.828  1.00  0.00    -0.384 OA
ATOM     35  H3  UNL     1      21.932  12.823  60.123  1.00  0.00     0.211 HD
ENDBRANCH  13  34
BRANCH  15  36
HETATM   36  O4  UNL     1      17.576  13.997  61.384  1.00  0.00    -0.364 OA
ATOM     37  H4  UNL     1      17.844  13.158  61.742  1.00  0.00     0.213 HD
ENDBRANCH  15  36
BRANCH  12  38
HETATM   38  C16 UNL     1      19.842  12.078  58.547  1.00  0.00    -0.065 C 
HETATM   39  C17 UNL     1      19.903  10.928  59.232  1.00  0.00     0.019 C 
HETATM   40  C18 UNL     1      20.175  11.914  57.128  1.00  0.00     0.047 C 
ENDBRANCH  12  38
TORSDOF 10
ENDMDL
MODEL 4
REMARK VINA RESULT: -7.094011120      2.794      7.655
REMARK  10 active torsions:
REMARK  status: ('A' for Active; 'I' for Inactive)
REMARK    1  A    between atoms: C2_2  and  C3_3 
REMARK    2  A    between atoms: C3_3  and  C5_5 
REMARK    3  A    between atoms: C11_12  and  O2_13 
REMARK    4  A    between atoms: C15_18  and  C16_19 
REMARK    5  A    between atoms: C19_22  and  O3_23 
REMARK    6  A    between atoms: C21_26  and  O4_27 
REMARK    7  A    between atoms: C23_31  and  C24_32 
REMARK    8  A    between atoms: C26_34  and  C27_35 
REMARK    9  A    between atoms: C27_35  and  O6_36 
REMARK   10  A    between atoms: C27_35  and  C28_38 
ROOT
HETATM    1  C5  UNL     1      19.227  17.928  58.068  1.00  0.00    -0.021 C 
HETATM    2  C6  UNL     1      20.261  17.320  57.202  1.00  0.00     0.012 C 
HETATM    3  C7  UNL     1      20.450  17.909  55.794  1.00  0.00     0.024 C 
HETATM    4  C8  UNL     1      19.932  19.266  56.058  1.00  0.00     0.082 C 
HETATM    5  C9  UNL     1      21.018  19.604  57.008  1.00  0.00     0.144 C 
HETATM    6  O1  UNL     1      22.157  19.208  56.713  1.00  0.00    -0.297 OA
HETATM    7  C10 UNL     1      21.155  20.312  58.277  1.00  0.00     0.118 C 
HETATM    8  C11 UNL     1      19.629  20.598  58.299  1.00  0.00     0.081 C 
HETATM    9  C12 UNL     1      19.197  19.266  58.644  1.00  0.00     0.050 C 
HETATM   10  C13 UNL     1      19.307  21.442  57.153  1.00  0.00     0.070 C 
HETATM   11  C14 UNL     1      18.874  22.821  57.725  1.00  0.00     0.029 C 
HETATM   12  C15 UNL     1      20.180  21.778  56.017  1.00  0.00    -0.023 C 
HETATM   13  C19 UNL     1      20.062  20.473  55.205  1.00  0.00     0.105 C 
HETATM   14  C20 UNL     1      18.602  20.797  54.847  1.00  0.00     0.113 C 
HETATM   15  C21 UNL     1      18.105  21.086  56.284  1.00  0.00     0.179 C 
HETATM   16  O5  UNL     1      17.594  19.914  56.557  1.00  0.00    -0.347 OA
HETATM   17  C22 UNL     1      18.545  18.950  56.281  1.00  0.00     0.153 C 
HETATM   18  C23 UNL     1      18.030  17.845  57.203  1.00  0.00     0.053 C 
ENDROOT
BRANCH  18  19
HETATM   19  C24 UNL     1      17.319  16.752  56.638  1.00  0.00    -0.077 C 
HETATM   20  C25 UNL     1      17.397  16.906  55.135  1.00  0.00     0.043 C 
HETATM   21  C26 UNL     1      17.136  15.389  56.988  1.00  0.00     0.012 C 
BRANCH  21  22
HETATM   22  C27 UNL     1      16.319  14.530  56.074  1.00  0.00     0.169 C 
BRANCH  22  23
HETATM   23  O6  UNL     1      14.894  14.911  56.407  1.00  0.00    -0.387 OA
ATOM     24  H6  UNL     1      14.391  14.150  56.139  1.00  0.00     0.210 HD
ENDBRANCH  22  23
BRANCH  22  25
HETATM   25  C28 UNL     1      16.178  13.101  56.442  1.00  0.00    -0.061 C 
HETATM   26  C29 UNL     1      16.545  12.112  55.690  1.00  0.00     0.017 C 
HETATM   27  C30 UNL     1      15.659  12.812  57.809  1.00  0.00     0.045 C 
ENDBRANCH  22  25
ENDBRANCH  21  22
ENDBRANCH  18  19
BRANCH   1  28
HETATM   28  C3  UNL     1      19.059  16.937  59.215  1.00  0.00     0.012 C 
HETATM   29  C4  UNL     1      20.152  15.880  59.232  1.00  0.00     0.015 C 
BRANCH  28  30
HETATM   30  C2  UNL     1      19.001  17.520  60.549  1.00  0.00    -0.032 C 
HETATM   31  C1  UNL     1      19.763  17.024  61.505  1.00  0.00     0.007 C 
ENDBRANCH  28  30
ENDBRANCH   1  28
BRANCH   8  32
HETATM   32  O2  UNL     1      19.537  21.374  59.497  1.00  0.00    -0.388 OA
ATOM     33  H2  UNL     1      20.238  21.996  59.346  1.00  0.00     0.210 HD
ENDBRANCH   8  32
BRANCH  13  34
HETATM   34  O3  UNL     1      20.883  20.404  54.146  1.00  0.00    -0.384 OA
ATOM     35  H3  UNL     1      20.496  20.474  53.281  1.00  0.00     0.211 HD
ENDBRANCH  13  34
BRANCH  15  36
HETATM   36  O4  UNL     1      17.145  22.043  56.160  1.00  0.00    -0.364 OA
ATOM     37  H4  UNL     1      16.354  21.789  55.699  1.00  0.00     0.213 HD
ENDBRANCH  15  36
BRANCH  12  38
HETATM   38  C16 UNL     1      21.182  22.724  55.843  1.00  0.00    -0.065 C 
HETATM   39  C17 UNL     1      21.162  23.591  54.821  1.00  0.00     0.019 C 
HETATM   40  C18 UNL     1      22.383  22.854  56.677  1.00  0.00     0.047 C 
ENDBRANCH  12  38
TORSDOF 10
ENDMDL
MODEL 5
REMARK VINA RESULT: -7.088169400      2.615      4.039
REMARK  10 active torsions:
REMARK  status: ('A' for Active; 'I' for Inactive)
REMARK    1  A    between atoms: C2_2  and  C3_3 
REMARK    2  A    between atoms: C3_3  and  C5_5 
REMARK    3  A    between atoms: C11_12  and  O2_13 
REMARK    4  A    between atoms: C15_18  and  C16_19 
REMARK    5  A    between atoms: C19_22  and  O3_23 
REMARK    6  A    between atoms: C21_26  and  O4_27 
REMARK    7  A    between atoms: C23_31  and  C24_32 
REMARK    8  A    between atoms: C26_34  and  C27_35 
REMARK    9  A    between atoms: C27_35  and  O6_36 
REMARK   10  A    between atoms: C27_35  and  C28_38 
ROOT
HETATM    1  C5  UNL     1      18.886  18.281  56.559  1.00  0.00    -0.021 C 
HETATM    2  C6  UNL     1      20.230  17.682  56.714  1.00  0.00     0.012 C 
HETATM    3  C7  UNL     1      20.318  16.154  56.869  1.00  0.00     0.024 C 
HETATM    4  C8  UNL     1      19.054  15.798  56.194  1.00  0.00     0.082 C 
HETATM    5  C9  UNL     1      19.501  16.300  54.874  1.00  0.00     0.144 C 
HETATM    6  O1  UNL     1      20.682  16.076  54.566  1.00  0.00    -0.297 OA
HETATM    7  C10 UNL     1      18.924  17.033  53.751  1.00  0.00     0.118 C 
HETATM    8  C11 UNL     1      17.564  17.129  54.493  1.00  0.00     0.081 C 
HETATM    9  C12 UNL     1      17.949  18.134  55.454  1.00  0.00     0.050 C 
HETATM   10  C13 UNL     1      17.049  15.777  54.677  1.00  0.00     0.070 C 
HETATM   11  C14 UNL     1      15.774  15.663  53.794  1.00  0.00     0.029 C 
HETATM   12  C15 UNL     1      17.762  14.510  54.449  1.00  0.00    -0.023 C 
HETATM   13  C19 UNL     1      18.613  14.458  55.734  1.00  0.00     0.105 C 
HETATM   14  C20 UNL     1      17.360  14.198  56.586  1.00  0.00     0.113 C 
HETATM   15  C21 UNL     1      16.506  15.368  56.043  1.00  0.00     0.179 C 
HETATM   16  O5  UNL     1      16.749  16.245  56.983  1.00  0.00    -0.347 OA
HETATM   17  C22 UNL     1      18.117  16.339  57.145  1.00  0.00     0.153 C 
HETATM   18  C23 UNL     1      18.184  17.743  57.745  1.00  0.00     0.053 C 
ENDROOT
BRANCH  18  19
HETATM   19  C24 UNL     1      18.398  17.886  59.143  1.00  0.00    -0.077 C 
HETATM   20  C25 UNL     1      18.499  16.490  59.717  1.00  0.00     0.043 C 
HETATM   21  C26 UNL     1      19.101  18.810  59.958  1.00  0.00     0.012 C 
BRANCH  21  22
HETATM   22  C27 UNL     1      19.116  18.575  61.437  1.00  0.00     0.169 C 
BRANCH  22  23
HETATM   23  O6  UNL     1      17.865  19.272  61.921  1.00  0.00    -0.387 OA
ATOM     24  H6  UNL     1      18.145  20.171  62.049  1.00  0.00     0.210 HD
ENDBRANCH  22  23
BRANCH  22  25
HETATM   25  C28 UNL     1      20.058  19.394  62.237  1.00  0.00    -0.061 C 
HETATM   26  C29 UNL     1      21.312  19.113  62.405  1.00  0.00     0.017 C 
HETATM   27  C30 UNL     1      19.524  20.665  62.801  1.00  0.00     0.045 C 
ENDBRANCH  22  25
ENDBRANCH  21  22
ENDBRANCH  18  19
BRANCH   1  28
HETATM   28  C3  UNL     1      19.107  19.775  56.769  1.00  0.00     0.012 C 
HETATM   29  C4  UNL     1      20.439  20.248  56.206  1.00  0.00     0.015 C 
BRANCH  28  30
HETATM   30  C2  UNL     1      18.075  20.648  56.228  1.00  0.00    -0.032 C 
HETATM   31  C1  UNL     1      18.055  21.920  56.578  1.00  0.00     0.007 C 
ENDBRANCH  28  30
ENDBRANCH   1  28
BRANCH   8  32
HETATM   32  O2  UNL     1      16.784  17.800  53.499  1.00  0.00    -0.388 OA
ATOM     33  H2  UNL     1      17.008  18.702  53.694  1.00  0.00     0.210 HD
ENDBRANCH   8  32
BRANCH  13  34
HETATM   34  O3  UNL     1      19.511  13.461  55.762  1.00  0.00    -0.384 OA
ATOM     35  H3  UNL     1      20.048  13.327  54.990  1.00  0.00     0.211 HD
ENDBRANCH  13  34
BRANCH  15  36
HETATM   36  O4  UNL     1      15.216  14.934  56.074  1.00  0.00    -0.364 OA
ATOM     37  H4  UNL     1      14.859  14.735  56.932  1.00  0.00     0.213 HD
ENDBRANCH  15  36
BRANCH  12  38
HETATM   38  C16 UNL     1      18.014  13.759  53.308  1.00  0.00    -0.065 C 
HETATM   39  C17 UNL     1      17.481  12.542  53.134  1.00  0.00     0.019 C 
HETATM   40  C18 UNL     1      18.914  14.149  52.216  1.00  0.00     0.047 C 
ENDBRANCH  12  38
TORSDOF 10
ENDMDL
