MODEL 1
REMARK VINA RESULT: -8.544459420      0.000      0.000
REMARK  9 active torsions:
REMARK  status: ('A' for Active; 'I' for Inactive)
REMARK    1  A    between atoms: C2_2  and  C3_3 
REMARK    2  A    between atoms: C6_7  and  O2_8 
REMARK    3  A    between atoms: C14_17  and  O3_18 
REMARK    4  A    between atoms: O3_18  and  C15_19 
REMARK       I    between atoms: C15_19  and  N1_21 
REMARK    5  A    between atoms: N1_21  and  C16_23 
REMARK    6  A    between atoms: C16_23  and  C17_24 
REMARK    7  A    between atoms: C17_24  and  N2_25 
REMARK       I    between atoms: N2_25  and  C18_27 
REMARK    8  A    between atoms: C18_27  and  C19_29 
REMARK    9  A    between atoms: C24_34  and  O6_35 
ROOT
HETATM    1  C3  UNL     1      19.596  15.832  57.272  1.00  0.00     0.152 A 
HETATM    2  O1  UNL     1      20.951  15.474  57.487  1.00  0.00    -0.368 OA
HETATM    3  C4  UNL     1      20.890  15.865  58.838  1.00  0.00     0.091 A 
HETATM    4  C5  UNL     1      21.173  14.603  59.671  1.00  0.00     0.049 C 
HETATM    5  C6  UNL     1      21.853  16.936  59.118  1.00  0.00     0.153 C 
HETATM    6  C7  UNL     1      21.437  18.335  58.970  1.00  0.00     0.041 C 
HETATM    7  C8  UNL     1      19.994  18.661  58.824  1.00  0.00     0.006 C 
HETATM    8  C9  UNL     1      19.551  19.937  59.467  1.00  0.00     0.024 C 
HETATM    9  C10 UNL     1      19.172  19.891  60.892  1.00  0.00    -0.005 C 
HETATM   10  C11 UNL     1      20.283  20.064  61.898  1.00  0.00     0.005 C 
HETATM   11  C12 UNL     1      21.030  21.356  61.665  1.00  0.00     0.003 C 
HETATM   12  C13 UNL     1      20.547  22.030  60.425  1.00  0.00     0.033 C 
HETATM   13  C14 UNL     1      20.491  21.092  59.233  1.00  0.00     0.138 C 
HETATM   14  C23 UNL     1      18.319  18.706  61.240  1.00  0.00     0.037 C 
HETATM   15  C24 UNL     1      18.710  17.433  60.606  1.00  0.00     0.127 C 
HETATM   16  C25 UNL     1      19.045  17.556  59.120  1.00  0.00    -0.005 C 
HETATM   17  C26 UNL     1      17.719  17.879  58.437  1.00  0.00     0.019 C 
HETATM   18  C27 UNL     1      19.467  16.205  58.664  1.00  0.00     0.066 A 
ENDROOT
BRANCH  13  19
HETATM   19  O3  UNL     1      20.157  21.831  58.075  1.00  0.00    -0.298 OA
BRANCH  19  20
HETATM   20  C15 UNL     1      21.067  22.211  57.109  1.00  0.00     0.360 C 
HETATM   21  O4  UNL     1      21.667  21.296  56.510  1.00  0.00    -0.239 OA
HETATM   22  N1  UNL     1      21.345  23.552  56.773  1.00  0.00    -0.335 N 
ATOM     23  H1  UNL     1      20.861  24.306  57.260  1.00  0.00     0.164 HD
BRANCH  22  24
HETATM   24  C16 UNL     1      22.308  23.865  55.747  1.00  0.00     0.144 C 
BRANCH  24  25
HETATM   25  C17 UNL     1      21.705  24.263  54.431  1.00  0.00     0.142 C 
BRANCH  25  26
HETATM   26  N2  UNL     1      21.478  25.666  54.365  1.00  0.00    -0.359 N 
HETATM   27  C18 UNL     1      22.237  26.494  53.510  1.00  0.00     0.221 C 
HETATM   28  O5  UNL     1      23.127  25.995  52.789  1.00  0.00    -0.273 OA
ATOM     29  H2  UNL     1      20.751  26.082  54.948  1.00  0.00     0.162 HD
BRANCH  27  30
HETATM   30  C19 UNL     1      22.022  27.968  53.427  1.00  0.00     0.078 C 
HETATM   31  C20 UNL     1      20.806  28.453  54.157  1.00  0.00     0.014 C 
HETATM   32  C21 UNL     1      20.099  28.632  52.835  1.00  0.00     0.002 C 
HETATM   33  C22 UNL     1      21.384  28.344  52.128  1.00  0.00     0.014 C 
ENDBRANCH  27  30
ENDBRANCH  25  26
ENDBRANCH  24  25
ENDBRANCH  22  24
ENDBRANCH  19  20
ENDBRANCH  13  19
BRANCH   5  34
HETATM   34  O2  UNL     1      22.985  16.662  58.295  1.00  0.00    -0.393 OA
ATOM     35  H2  UNL     1      23.718  16.566  58.892  1.00  0.00     0.210 HD
ENDBRANCH   5  34
BRANCH  15  36
HETATM   36  O6  UNL     1      19.659  16.781  61.340  1.00  0.00    -0.395 OA
ATOM     37  H6  UNL     1      20.516  17.178  61.230  1.00  0.00     0.210 HD
ENDBRANCH  15  36
BRANCH   1  38
HETATM   38  C2  UNL     1      19.510  16.735  56.144  1.00  0.00    -0.005 C 
HETATM   39  C1  UNL     1      20.601  17.020  55.453  1.00  0.00     0.009 C 
ENDBRANCH   1  38
TORSDOF 9
ENDMDL
MODEL 2
REMARK VINA RESULT: -8.485210311      1.286      1.380
REMARK  9 active torsions:
REMARK  status: ('A' for Active; 'I' for Inactive)
REMARK    1  A    between atoms: C2_2  and  C3_3 
REMARK    2  A    between atoms: C6_7  and  O2_8 
REMARK    3  A    between atoms: C14_17  and  O3_18 
REMARK    4  A    between atoms: O3_18  and  C15_19 
REMARK       I    between atoms: C15_19  and  N1_21 
REMARK    5  A    between atoms: N1_21  and  C16_23 
REMARK    6  A    between atoms: C16_23  and  C17_24 
REMARK    7  A    between atoms: C17_24  and  N2_25 
REMARK       I    between atoms: N2_25  and  C18_27 
REMARK    8  A    between atoms: C18_27  and  C19_29 
REMARK    9  A    between atoms: C24_34  and  O6_35 
ROOT
HETATM    1  C3  UNL     1      19.227  16.665  57.301  1.00  0.00     0.152 A 
HETATM    2  O1  UNL     1      20.573  16.526  56.877  1.00  0.00    -0.368 OA
HETATM    3  C4  UNL     1      21.060  16.896  58.145  1.00  0.00     0.091 A 
HETATM    4  C5  UNL     1      21.856  15.691  58.675  1.00  0.00     0.049 C 
HETATM    5  C6  UNL     1      21.886  18.106  58.058  1.00  0.00     0.153 C 
HETATM    6  C7  UNL     1      21.255  19.421  58.210  1.00  0.00     0.041 C 
HETATM    7  C8  UNL     1      19.867  19.514  58.731  1.00  0.00     0.006 C 
HETATM    8  C9  UNL     1      19.578  20.700  59.596  1.00  0.00     0.024 C 
HETATM    9  C10 UNL     1      19.878  20.587  61.036  1.00  0.00    -0.005 C 
HETATM   10  C11 UNL     1      21.282  20.930  61.469  1.00  0.00     0.005 C 
HETATM   11  C12 UNL     1      21.660  22.325  61.031  1.00  0.00     0.003 C 
HETATM   12  C13 UNL     1      20.590  22.920  60.179  1.00  0.00     0.033 C 
HETATM   13  C14 UNL     1      20.146  21.991  59.064  1.00  0.00     0.138 C 
HETATM   14  C23 UNL     1      19.442  19.279  61.631  1.00  0.00     0.037 C 
HETATM   15  C24 UNL     1      19.689  18.088  60.797  1.00  0.00     0.127 C 
HETATM   16  C25 UNL     1      19.312  18.270  59.328  1.00  0.00    -0.005 C 
HETATM   17  C26 UNL     1      17.790  18.381  59.315  1.00  0.00     0.019 C 
HETATM   18  C27 UNL     1      19.675  17.005  58.634  1.00  0.00     0.066 A 
ENDROOT
BRANCH  13  19
HETATM   19  O3  UNL     1      19.234  22.672  58.226  1.00  0.00    -0.298 OA
BRANCH  19  20
HETATM   20  C15 UNL     1      19.245  22.597  56.846  1.00  0.00     0.360 C 
HETATM   21  O4  UNL     1      18.232  22.117  56.301  1.00  0.00    -0.239 OA
HETATM   22  N1  UNL     1      20.321  23.028  56.043  1.00  0.00    -0.335 N 
ATOM     23  H1  UNL     1      21.155  23.419  56.482  1.00  0.00     0.164 HD
BRANCH  22  24
HETATM   24  C16 UNL     1      20.253  22.919  54.608  1.00  0.00     0.144 C 
BRANCH  24  25
HETATM   25  C17 UNL     1      21.334  23.663  53.877  1.00  0.00     0.142 C 
BRANCH  25  26
HETATM   26  N2  UNL     1      21.317  25.050  54.194  1.00  0.00    -0.359 N 
HETATM   27  C18 UNL     1      22.319  25.923  53.719  1.00  0.00     0.221 C 
HETATM   28  O5  UNL     1      23.242  25.481  53.002  1.00  0.00    -0.273 OA
ATOM     29  H2  UNL     1      20.566  25.420  54.776  1.00  0.00     0.162 HD
BRANCH  27  30
HETATM   30  C19 UNL     1      22.328  27.380  54.042  1.00  0.00     0.078 C 
HETATM   31  C20 UNL     1      21.050  27.883  54.643  1.00  0.00     0.014 C 
HETATM   32  C21 UNL     1      20.702  28.537  53.328  1.00  0.00     0.002 C 
HETATM   33  C22 UNL     1      22.067  28.201  52.819  1.00  0.00     0.014 C 
ENDBRANCH  27  30
ENDBRANCH  25  26
ENDBRANCH  24  25
ENDBRANCH  22  24
ENDBRANCH  19  20
ENDBRANCH  13  19
BRANCH   5  34
HETATM   34  O2  UNL     1      22.565  18.019  56.806  1.00  0.00    -0.393 OA
ATOM     35  H2  UNL     1      22.336  18.811  56.335  1.00  0.00     0.210 HD
ENDBRANCH   5  34
BRANCH  15  36
HETATM   36  O6  UNL     1      20.945  17.592  60.994  1.00  0.00    -0.395 OA
ATOM     37  H6  UNL     1      21.551  18.276  61.254  1.00  0.00     0.210 HD
ENDBRANCH  15  36
BRANCH   1  38
HETATM   38  C2  UNL     1      18.525  17.548  56.393  1.00  0.00    -0.005 C 
HETATM   39  C1  UNL     1      19.157  18.031  55.336  1.00  0.00     0.009 C 
ENDBRANCH   1  38
TORSDOF 9
ENDMDL
MODEL 3
REMARK VINA RESULT: -8.167275908      1.564      4.009
REMARK  9 active torsions:
REMARK  status: ('A' for Active; 'I' for Inactive)
REMARK    1  A    between atoms: C2_2  and  C3_3 
REMARK    2  A    between atoms: C6_7  and  O2_8 
REMARK    3  A    between atoms: C14_17  and  O3_18 
REMARK    4  A    between atoms: O3_18  and  C15_19 
REMARK       I    between atoms: C15_19  and  N1_21 
REMARK    5  A    between atoms: N1_21  and  C16_23 
REMARK    6  A    between atoms: C16_23  and  C17_24 
REMARK    7  A    between atoms: C17_24  and  N2_25 
REMARK       I    between atoms: N2_25  and  C18_27 
REMARK    8  A    between atoms: C18_27  and  C19_29 
REMARK    9  A    between atoms: C24_34  and  O6_35 
ROOT
HETATM    1  C3  UNL     1      20.713  18.807  61.390  1.00  0.00     0.152 A 
HETATM    2  O1  UNL     1      19.618  18.049  61.876  1.00  0.00    -0.368 OA
HETATM    3  C4  UNL     1      19.641  17.206  60.749  1.00  0.00     0.091 A 
HETATM    4  C5  UNL     1      19.929  15.788  61.271  1.00  0.00     0.049 C 
HETATM    5  C6  UNL     1      18.372  17.274  60.016  1.00  0.00     0.153 C 
HETATM    6  C7  UNL     1      18.213  18.262  58.943  1.00  0.00     0.041 C 
HETATM    7  C8  UNL     1      19.406  18.975  58.417  1.00  0.00     0.006 C 
HETATM    8  C9  UNL     1      19.386  19.277  56.952  1.00  0.00     0.024 C 
HETATM    9  C10 UNL     1      19.874  18.234  56.030  1.00  0.00    -0.005 C 
HETATM   10  C11 UNL     1      18.870  17.204  55.575  1.00  0.00     0.005 C 
HETATM   11  C12 UNL     1      17.672  17.861  54.930  1.00  0.00     0.003 C 
HETATM   12  C13 UNL     1      17.757  19.346  55.047  1.00  0.00     0.033 C 
HETATM   13  C14 UNL     1      18.062  19.805  56.460  1.00  0.00     0.138 C 
HETATM   14  C23 UNL     1      21.138  17.574  56.498  1.00  0.00     0.037 C 
HETATM   15  C24 UNL     1      21.206  17.281  57.942  1.00  0.00     0.127 C 
HETATM   16  C25 UNL     1      20.725  18.426  58.831  1.00  0.00    -0.005 C 
HETATM   17  C26 UNL     1      21.766  19.529  58.662  1.00  0.00     0.019 C 
HETATM   18  C27 UNL     1      20.809  17.942  60.235  1.00  0.00     0.066 A 
ENDROOT
BRANCH  13  19
HETATM   19  O3  UNL     1      17.993  21.216  56.517  1.00  0.00    -0.298 OA
BRANCH  19  20
HETATM   20  C15 UNL     1      19.081  22.052  56.364  1.00  0.00     0.360 C 
HETATM   21  O4  UNL     1      19.521  22.596  57.396  1.00  0.00    -0.239 OA
HETATM   22  N1  UNL     1      19.706  22.314  55.127  1.00  0.00    -0.335 N 
ATOM     23  H1  UNL     1      19.350  21.874  54.278  1.00  0.00     0.164 HD
BRANCH  22  24
HETATM   24  C16 UNL     1      20.842  23.197  55.053  1.00  0.00     0.144 C 
BRANCH  24  25
HETATM   25  C17 UNL     1      21.036  23.847  53.714  1.00  0.00     0.142 C 
BRANCH  25  26
HETATM   26  N2  UNL     1      21.007  25.266  53.815  1.00  0.00    -0.359 N 
HETATM   27  C18 UNL     1      22.115  26.053  53.433  1.00  0.00     0.221 C 
HETATM   28  O5  UNL     1      23.146  25.502  52.991  1.00  0.00    -0.273 OA
ATOM     29  H2  UNL     1      20.168  25.725  54.171  1.00  0.00     0.162 HD
BRANCH  27  30
HETATM   30  C19 UNL     1      22.112  27.541  53.534  1.00  0.00     0.078 C 
HETATM   31  C20 UNL     1      21.049  28.093  54.435  1.00  0.00     0.014 C 
HETATM   32  C21 UNL     1      20.262  28.527  53.223  1.00  0.00     0.002 C 
HETATM   33  C22 UNL     1      21.424  28.157  52.358  1.00  0.00     0.014 C 
ENDBRANCH  27  30
ENDBRANCH  25  26
ENDBRANCH  24  25
ENDBRANCH  22  24
ENDBRANCH  19  20
ENDBRANCH  13  19
BRANCH   5  34
HETATM   34  O2  UNL     1      17.362  17.448  61.008  1.00  0.00    -0.393 OA
ATOM     35  H2  UNL     1      16.540  17.488  60.534  1.00  0.00     0.210 HD
ENDBRANCH   5  34
BRANCH  15  36
HETATM   36  O6  UNL     1      20.641  16.073  58.233  1.00  0.00    -0.395 OA
ATOM     37  H6  UNL     1      19.692  16.117  58.200  1.00  0.00     0.210 HD
ENDBRANCH  15  36
BRANCH   1  38
HETATM   38  C2  UNL     1      20.355  20.210  61.367  1.00  0.00    -0.005 C 
HETATM   39  C1  UNL     1      19.545  20.690  62.296  1.00  0.00     0.009 C 
ENDBRANCH   1  38
TORSDOF 9
ENDMDL
MODEL 4
REMARK VINA RESULT: -8.163284622      1.424      1.743
REMARK  9 active torsions:
REMARK  status: ('A' for Active; 'I' for Inactive)
REMARK    1  A    between atoms: C2_2  and  C3_3 
REMARK    2  A    between atoms: C6_7  and  O2_8 
REMARK    3  A    between atoms: C14_17  and  O3_18 
REMARK    4  A    between atoms: O3_18  and  C15_19 
REMARK       I    between atoms: C15_19  and  N1_21 
REMARK    5  A    between atoms: N1_21  and  C16_23 
REMARK    6  A    between atoms: C16_23  and  C17_24 
REMARK    7  A    between atoms: C17_24  and  N2_25 
REMARK       I    between atoms: N2_25  and  C18_27 
REMARK    8  A    between atoms: C18_27  and  C19_29 
REMARK    9  A    between atoms: C24_34  and  O6_35 
ROOT
HETATM    1  C3  UNL     1      19.154  17.509  55.326  1.00  0.00     0.152 A 
HETATM    2  O1  UNL     1      20.496  17.063  55.230  1.00  0.00    -0.368 OA
HETATM    3  C4  UNL     1      20.515  16.676  56.583  1.00  0.00     0.091 A 
HETATM    4  C5  UNL     1      20.767  15.159  56.600  1.00  0.00     0.049 C 
HETATM    5  C6  UNL     1      21.544  17.414  57.326  1.00  0.00     0.153 C 
HETATM    6  C7  UNL     1      21.196  18.685  57.969  1.00  0.00     0.041 C 
HETATM    7  C8  UNL     1      19.767  19.070  58.112  1.00  0.00     0.006 C 
HETATM    8  C9  UNL     1      19.420  19.817  59.360  1.00  0.00     0.024 C 
HETATM    9  C10 UNL     1      19.102  19.027  60.565  1.00  0.00    -0.005 C 
HETATM   10  C11 UNL     1      20.263  18.615  61.436  1.00  0.00     0.005 C 
HETATM   11  C12 UNL     1      21.066  19.816  61.875  1.00  0.00     0.003 C 
HETATM   12  C13 UNL     1      20.566  21.057  61.215  1.00  0.00     0.033 C 
HETATM   13  C14 UNL     1      20.408  20.899  59.714  1.00  0.00     0.138 C 
HETATM   14  C23 UNL     1      18.203  17.857  60.286  1.00  0.00     0.037 C 
HETATM   15  C24 UNL     1      18.499  17.109  59.050  1.00  0.00     0.127 C 
HETATM   16  C25 UNL     1      18.775  17.996  57.838  1.00  0.00    -0.005 C 
HETATM   17  C26 UNL     1      17.440  18.662  57.517  1.00  0.00     0.019 C 
HETATM   18  C27 UNL     1      19.105  17.087  56.708  1.00  0.00     0.066 A 
ENDROOT
BRANCH  13  19
HETATM   19  O3  UNL     1      20.063  22.147  59.148  1.00  0.00    -0.298 OA
BRANCH  19  20
HETATM   20  C15 UNL     1      20.933  22.934  58.419  1.00  0.00     0.360 C 
HETATM   21  O4  UNL     1      21.348  23.973  58.970  1.00  0.00    -0.239 OA
HETATM   22  N1  UNL     1      21.364  22.628  57.112  1.00  0.00    -0.335 N 
ATOM     23  H1  UNL     1      21.026  21.782  56.653  1.00  0.00     0.164 HD
BRANCH  22  24
HETATM   24  C16 UNL     1      22.278  23.501  56.419  1.00  0.00     0.144 C 
BRANCH  24  25
HETATM   25  C17 UNL     1      21.803  23.948  55.066  1.00  0.00     0.142 C 
BRANCH  25  26
HETATM   26  N2  UNL     1      21.705  25.366  54.992  1.00  0.00    -0.359 N 
HETATM   27  C18 UNL     1      22.371  26.096  53.984  1.00  0.00     0.221 C 
HETATM   28  O5  UNL     1      23.060  25.496  53.132  1.00  0.00    -0.273 OA
ATOM     29  H2  UNL     1      21.142  25.864  55.681  1.00  0.00     0.162 HD
BRANCH  27  30
HETATM   30  C19 UNL     1      22.288  27.582  53.887  1.00  0.00     0.078 C 
HETATM   31  C20 UNL     1      21.142  28.184  54.642  1.00  0.00     0.014 C 
HETATM   32  C21 UNL     1      20.418  28.413  53.337  1.00  0.00     0.002 C 
HETATM   33  C22 UNL     1      21.651  28.001  52.600  1.00  0.00     0.014 C 
ENDBRANCH  27  30
ENDBRANCH  25  26
ENDBRANCH  24  25
ENDBRANCH  22  24
ENDBRANCH  19  20
ENDBRANCH  13  19
BRANCH   5  34
HETATM   34  O2  UNL     1      22.623  17.595  56.411  1.00  0.00    -0.393 OA
ATOM     35  H2  UNL     1      23.387  17.773  56.948  1.00  0.00     0.210 HD
ENDBRANCH   5  34
BRANCH  15  36
HETATM   36  O6  UNL     1      19.444  16.147  59.264  1.00  0.00    -0.395 OA
ATOM     37  H6  UNL     1      19.792  15.814  58.445  1.00  0.00     0.210 HD
ENDBRANCH  15  36
BRANCH   1  38
HETATM   38  C2  UNL     1      19.066  18.876  54.856  1.00  0.00    -0.005 C 
HETATM   39  C1  UNL     1      18.161  19.195  53.946  1.00  0.00     0.009 C 
ENDBRANCH   1  38
TORSDOF 9
ENDMDL
MODEL 5
REMARK VINA RESULT: -8.118831048      1.478      3.805
REMARK  9 active torsions:
REMARK  status: ('A' for Active; 'I' for Inactive)
REMARK    1  A    between atoms: C2_2  and  C3_3 
REMARK    2  A    between atoms: C6_7  and  O2_8 
REMARK    3  A    between atoms: C14_17  and  O3_18 
REMARK    4  A    between atoms: O3_18  and  C15_19 
REMARK       I    between atoms: C15_19  and  N1_21 
REMARK    5  A    between atoms: N1_21  and  C16_23 
REMARK    6  A    between atoms: C16_23  and  C17_24 
REMARK    7  A    between atoms: C17_24  and  N2_25 
REMARK       I    between atoms: N2_25  and  C18_27 
REMARK    8  A    between atoms: C18_27  and  C19_29 
REMARK    9  A    between atoms: C24_34  and  O6_35 
ROOT
HETATM    1  C3  UNL     1      20.699  17.761  61.739  1.00  0.00     0.152 A 
HETATM    2  O1  UNL     1      19.359  17.597  62.173  1.00  0.00    -0.368 OA
HETATM    3  C4  UNL     1      19.009  16.918  60.991  1.00  0.00     0.091 A 
HETATM    4  C5  UNL     1      18.561  15.509  61.413  1.00  0.00     0.049 C 
HETATM    5  C6  UNL     1      17.953  17.636  60.266  1.00  0.00     0.153 C 
HETATM    6  C7  UNL     1      18.324  18.642  59.265  1.00  0.00     0.041 C 
HETATM    7  C8  UNL     1      19.729  18.721  58.787  1.00  0.00     0.006 C 
HETATM    8  C9  UNL     1      19.903  19.085  57.346  1.00  0.00     0.024 C 
HETATM    9  C10 UNL     1      19.857  17.994  56.354  1.00  0.00    -0.005 C 
HETATM   10  C11 UNL     1      18.496  17.607  55.830  1.00  0.00     0.005 C 
HETATM   11  C12 UNL     1      17.783  18.798  55.235  1.00  0.00     0.003 C 
HETATM   12  C13 UNL     1      18.569  20.048  55.453  1.00  0.00     0.033 C 
HETATM   13  C14 UNL     1      19.014  20.215  56.895  1.00  0.00     0.138 C 
HETATM   14  C23 UNL     1      20.632  16.779  56.772  1.00  0.00     0.037 C 
HETATM   15  C24 UNL     1      20.504  16.401  58.192  1.00  0.00     0.127 C 
HETATM   16  C25 UNL     1      20.607  17.579  59.159  1.00  0.00    -0.005 C 
HETATM   17  C26 UNL     1      22.055  18.051  59.065  1.00  0.00     0.019 C 
HETATM   18  C27 UNL     1      20.402  17.029  60.526  1.00  0.00     0.066 A 
ENDROOT
BRANCH  13  19
HETATM   19  O3  UNL     1      19.630  21.477  57.049  1.00  0.00    -0.298 OA
BRANCH  19  20
HETATM   20  C15 UNL     1      20.544  22.007  56.158  1.00  0.00     0.360 C 
HETATM   21  O4  UNL     1      21.649  21.436  56.080  1.00  0.00    -0.239 OA
HETATM   22  N1  UNL     1      20.293  23.136  55.351  1.00  0.00    -0.335 N 
ATOM     23  H1  UNL     1      19.392  23.611  55.412  1.00  0.00     0.164 HD
BRANCH  22  24
HETATM   24  C16 UNL     1      21.299  23.625  54.443  1.00  0.00     0.144 C 
BRANCH  24  25
HETATM   25  C17 UNL     1      22.281  24.578  55.060  1.00  0.00     0.142 C 
BRANCH  25  26
HETATM   26  N2  UNL     1      21.911  25.932  54.826  1.00  0.00    -0.359 N 
HETATM   27  C18 UNL     1      22.323  26.615  53.661  1.00  0.00     0.221 C 
HETATM   28  O5  UNL     1      23.023  26.028  52.810  1.00  0.00    -0.273 OA
ATOM     29  H2  UNL     1      21.337  26.419  55.514  1.00  0.00     0.162 HD
BRANCH  27  30
HETATM   30  C19 UNL     1      21.953  28.036  53.395  1.00  0.00     0.078 C 
HETATM   31  C20 UNL     1      20.701  28.484  54.087  1.00  0.00     0.014 C 
HETATM   32  C21 UNL     1      19.963  28.415  52.772  1.00  0.00     0.002 C 
HETATM   33  C22 UNL     1      21.263  28.172  52.075  1.00  0.00     0.014 C 
ENDBRANCH  27  30
ENDBRANCH  25  26
ENDBRANCH  24  25
ENDBRANCH  22  24
ENDBRANCH  19  20
ENDBRANCH  13  19
BRANCH   5  34
HETATM   34  O2  UNL     1      17.122  18.214  61.270  1.00  0.00    -0.393 OA
ATOM     35  H2  UNL     1      17.292  19.148  61.238  1.00  0.00     0.210 HD
ENDBRANCH   5  34
BRANCH  15  36
HETATM   36  O6  UNL     1      19.418  15.601  58.400  1.00  0.00    -0.395 OA
ATOM     37  H6  UNL     1      19.676  14.701  58.560  1.00  0.00     0.210 HD
ENDBRANCH  15  36
BRANCH   1  38
HETATM   38  C2  UNL     1      21.061  19.161  61.813  1.00  0.00    -0.005 C 
HETATM   39  C1  UNL     1      20.271  20.004  62.456  1.00  0.00     0.009 C 
ENDBRANCH   1  38
TORSDOF 9
ENDMDL
