MODEL 1
REMARK VINA RESULT: -8.027178651      0.000      0.000
REMARK  6 active torsions:
REMARK  status: ('A' for Active; 'I' for Inactive)
REMARK    1  A    between atoms: C2_2  and  C3_3 
REMARK    2  A    between atoms: C7_10  and  C8_11 
REMARK    3  A    between atoms: C14_23  and  C15_24 
REMARK    4  A    between atoms: C15_24  and  C16_25 
REMARK    5  A    between atoms: C23_35  and  C24_36 
REMARK    6  A    between atoms: C24_36  and  C25_37 
ROOT
HETATM    1  C3  UNL     1      17.959  16.752  56.579  1.00  0.00     0.131 C 
HETATM    2  C4  UNL     1      17.619  18.182  57.016  1.00  0.00     0.034 C 
HETATM    3  C5  UNL     1      18.826  19.005  57.323  1.00  0.00     0.030 C 
HETATM    4  C6  UNL     1      19.671  18.495  58.446  1.00  0.00     0.233 C 
HETATM    5  N1  UNL     1      19.218  18.968  59.746  1.00  0.00    -0.069 N 
ATOM      6  H11 UNL     1      18.212  19.127  59.783  1.00  0.00     0.277 HD
ATOM      7  H12 UNL     1      19.512  19.925  59.945  1.00  0.00     0.277 HD
HETATM    8  C7  UNL     1      19.676  18.023  60.738  1.00  0.00     0.214 C 
HETATM    9  C11 UNL     1      18.782  16.815  60.828  1.00  0.00     0.265 C 
HETATM   10  N2  UNL     1      19.546  15.643  61.210  1.00  0.00    -0.072 N 
ATOM     11  H21 UNL     1      19.226  15.246  62.093  1.00  0.00     0.277 HD
ATOM     12  H22 UNL     1      20.497  15.879  61.490  1.00  0.00     0.277 HD
HETATM   13  C12 UNL     1      19.517  14.673  60.132  1.00  0.00     0.259 C 
HETATM   14  C13 UNL     1      18.110  14.116  60.010  1.00  0.00     0.260 C 
HETATM   15  N3  UNL     1      17.900  13.521  58.703  1.00  0.00    -0.061 N 
ATOM     16  H31 UNL     1      18.779  13.261  58.255  1.00  0.00     0.278 HD
ATOM     17  H32 UNL     1      17.581  14.205  58.016  1.00  0.00     0.278 HD
HETATM   18  C14 UNL     1      16.984  12.390  58.815  1.00  0.00     0.277 C 
HETATM   19  C22 UNL     1      16.702  11.845  57.467  1.00  0.00     0.249 C 
HETATM   20  O1  UNL     1      16.704  10.572  57.397  1.00  0.00    -0.271 OA
HETATM   21  N4  UNL     1      16.439  12.571  56.288  1.00  0.00    -0.345 N 
ATOM     22  H4  UNL     1      15.648  12.241  55.734  1.00  0.00     0.163 HD
HETATM   23  C23 UNL     1      17.131  13.709  55.762  1.00  0.00     0.184 C 
HETATM   24  C28 UNL     1      16.321  14.956  56.019  1.00  0.00     0.282 C 
HETATM   25  O2  UNL     1      15.093  14.772  56.226  1.00  0.00    -0.263 OA
HETATM   26  O3  UNL     1      16.796  16.220  56.045  1.00  0.00    -0.314 OA
ENDROOT
BRANCH  18  27
HETATM   27  C15 UNL     1      15.690  12.832  59.434  1.00  0.00     0.047 C 
BRANCH  27  28
HETATM   28  C16 UNL     1      15.256  12.115  60.653  1.00  0.00    -0.012 C 
HETATM   29  C17 UNL     1      13.859  11.559  60.622  1.00  0.00     0.005 C 
HETATM   30  C18 UNL     1      13.522  10.963  61.958  1.00  0.00     0.000 C 
HETATM   31  C19 UNL     1      14.662  10.268  62.622  1.00  0.00     0.000 C 
HETATM   32  C20 UNL     1      15.637   9.816  61.574  1.00  0.00     0.000 C 
HETATM   33  C21 UNL     1      16.280  11.039  60.966  1.00  0.00     0.005 C 
ENDBRANCH  27  28
ENDBRANCH  18  27
BRANCH  23  34
HETATM   34  C24 UNL     1      17.252  13.630  54.265  1.00  0.00     0.039 C 
BRANCH  34  35
HETATM   35  C25 UNL     1      16.178  12.962  53.512  1.00  0.00    -0.020 C 
HETATM   36  C26 UNL     1      16.839  11.823  52.683  1.00  0.00     0.009 C 
HETATM   37  C27 UNL     1      15.437  13.779  52.491  1.00  0.00     0.009 C 
ENDBRANCH  34  35
ENDBRANCH  23  34
BRANCH   8  38
HETATM   38  C8  UNL     1      19.845  18.632  62.100  1.00  0.00     0.010 C 
HETATM   39  C9  UNL     1      21.295  19.029  62.334  1.00  0.00     0.011 C 
HETATM   40  C10 UNL     1      18.970  19.831  62.315  1.00  0.00     0.011 C 
ENDBRANCH   8  38
BRANCH   1  41
HETATM   41  C2  UNL     1      19.074  16.824  55.555  1.00  0.00     0.028 C 
HETATM   42  C1  UNL     1      18.577  17.140  54.182  1.00  0.00     0.007 C 
ENDBRANCH   1  41
TORSDOF 6
ENDMDL
MODEL 2
REMARK VINA RESULT: -7.772843514      3.489      7.760
REMARK  6 active torsions:
REMARK  status: ('A' for Active; 'I' for Inactive)
REMARK    1  A    between atoms: C2_2  and  C3_3 
REMARK    2  A    between atoms: C7_10  and  C8_11 
REMARK    3  A    between atoms: C14_23  and  C15_24 
REMARK    4  A    between atoms: C15_24  and  C16_25 
REMARK    5  A    between atoms: C23_35  and  C24_36 
REMARK    6  A    between atoms: C24_36  and  C25_37 
ROOT
HETATM    1  C3  UNL     1      20.028  15.512  57.275  1.00  0.00     0.131 C 
HETATM    2  C4  UNL     1      20.941  14.343  57.666  1.00  0.00     0.034 C 
HETATM    3  C5  UNL     1      20.189  13.137  58.121  1.00  0.00     0.030 C 
HETATM    4  C6  UNL     1      19.348  13.338  59.340  1.00  0.00     0.233 C 
HETATM    5  N1  UNL     1      20.094  13.137  60.574  1.00  0.00    -0.069 N 
ATOM      6  H11 UNL     1      21.081  13.377  60.485  1.00  0.00     0.277 HD
ATOM      7  H12 UNL     1      20.216  12.151  60.807  1.00  0.00     0.277 HD
HETATM    8  C7  UNL     1      19.424  13.882  61.615  1.00  0.00     0.214 C 
HETATM    9  C11 UNL     1      19.788  15.343  61.593  1.00  0.00     0.265 C 
HETATM   10  N2  UNL     1      18.682  16.150  62.067  1.00  0.00    -0.072 N 
ATOM     11  H21 UNL     1      18.923  16.681  62.904  1.00  0.00     0.277 HD
ATOM     12  H22 UNL     1      17.933  15.583  62.464  1.00  0.00     0.277 HD
HETATM   13  C12 UNL     1      18.211  17.005  60.994  1.00  0.00     0.259 C 
HETATM   14  C13 UNL     1      19.270  18.051  60.697  1.00  0.00     0.260 C 
HETATM   15  N3  UNL     1      19.083  18.618  59.375  1.00  0.00    -0.061 N 
ATOM     16  H31 UNL     1      18.126  18.501  59.039  1.00  0.00     0.278 HD
ATOM     17  H32 UNL     1      19.559  18.075  58.654  1.00  0.00     0.278 HD
HETATM   18  C14 UNL     1      19.499  20.017  59.372  1.00  0.00     0.277 C 
HETATM   19  C22 UNL     1      19.392  20.563  57.999  1.00  0.00     0.249 C 
HETATM   20  O1  UNL     1      18.892  21.734  57.930  1.00  0.00    -0.271 OA
HETATM   21  N4  UNL     1      19.777  19.937  56.796  1.00  0.00    -0.345 N 
ATOM     22  H4  UNL     1      20.310  20.517  56.148  1.00  0.00     0.163 HD
HETATM   23  C23 UNL     1      19.522  18.597  56.360  1.00  0.00     0.184 C 
HETATM   24  C28 UNL     1      20.773  17.769  56.515  1.00  0.00     0.282 C 
HETATM   25  O2  UNL     1      21.850  18.417  56.567  1.00  0.00    -0.263 OA
HETATM   26  O3  UNL     1      20.828  16.422  56.599  1.00  0.00    -0.314 OA
ENDROOT
BRANCH  18  27
HETATM   27  C15 UNL     1      20.925  20.133  59.825  1.00  0.00     0.047 C 
BRANCH  27  28
HETATM   28  C16 UNL     1      21.235  21.222  60.777  1.00  0.00    -0.012 C 
HETATM   29  C17 UNL     1      21.687  22.518  60.164  1.00  0.00     0.005 C 
HETATM   30  C18 UNL     1      22.070  23.484  61.247  1.00  0.00     0.000 C 
HETATM   31  C19 UNL     1      21.208  23.413  62.463  1.00  0.00     0.000 C 
HETATM   32  C20 UNL     1      19.864  22.868  62.077  1.00  0.00     0.000 C 
HETATM   33  C21 UNL     1      20.034  21.420  61.685  1.00  0.00     0.005 C 
ENDBRANCH  27  28
ENDBRANCH  18  27
BRANCH  23  34
HETATM   34  C24 UNL     1      19.208  18.551  54.890  1.00  0.00     0.039 C 
BRANCH  34  35
HETATM   35  C25 UNL     1      17.798  18.441  54.481  1.00  0.00    -0.020 C 
HETATM   36  C26 UNL     1      17.690  17.212  53.533  1.00  0.00     0.009 C 
HETATM   37  C27 UNL     1      17.218  19.575  53.682  1.00  0.00     0.009 C 
ENDBRANCH  34  35
ENDBRANCH  23  34
BRANCH   8  38
HETATM   38  C8  UNL     1      19.662  13.320  62.988  1.00  0.00     0.010 C 
HETATM   39  C9  UNL     1      18.705  12.171  63.269  1.00  0.00     0.011 C 
HETATM   40  C10 UNL     1      21.069  12.845  63.188  1.00  0.00     0.011 C 
ENDBRANCH   8  38
BRANCH   1  41
HETATM   41  C2  UNL     1      18.918  14.970  56.397  1.00  0.00     0.028 C 
HETATM   42  C1  UNL     1      17.566  15.449  56.815  1.00  0.00     0.007 C 
ENDBRANCH   1  41
TORSDOF 6
ENDMDL
MODEL 3
REMARK VINA RESULT: -7.746263643      4.295      8.460
REMARK  6 active torsions:
REMARK  status: ('A' for Active; 'I' for Inactive)
REMARK    1  A    between atoms: C2_2  and  C3_3 
REMARK    2  A    between atoms: C7_10  and  C8_11 
REMARK    3  A    between atoms: C14_23  and  C15_24 
REMARK    4  A    between atoms: C15_24  and  C16_25 
REMARK    5  A    between atoms: C23_35  and  C24_36 
REMARK    6  A    between atoms: C24_36  and  C25_37 
ROOT
HETATM    1  C3  UNL     1      20.252  21.046  59.939  1.00  0.00     0.131 C 
HETATM    2  C4  UNL     1      19.421  20.836  61.211  1.00  0.00     0.034 C 
HETATM    3  C5  UNL     1      20.172  20.138  62.295  1.00  0.00     0.030 C 
HETATM    4  C6  UNL     1      20.636  18.758  61.956  1.00  0.00     0.233 C 
HETATM    5  N1  UNL     1      19.625  17.746  62.228  1.00  0.00    -0.069 N 
ATOM      6  H11 UNL     1      18.674  18.097  62.124  1.00  0.00     0.277 HD
ATOM      7  H12 UNL     1      19.569  17.497  63.216  1.00  0.00     0.277 HD
HETATM    8  C7  UNL     1      19.904  16.612  61.378  1.00  0.00     0.214 C 
HETATM    9  C11 UNL     1      19.381  16.807  59.979  1.00  0.00     0.265 C 
HETATM   10  N2  UNL     1      20.217  16.113  59.021  1.00  0.00    -0.072 N 
ATOM     11  H21 UNL     1      19.703  15.396  58.509  1.00  0.00     0.277 HD
ATOM     12  H22 UNL     1      20.901  15.507  59.474  1.00  0.00     0.277 HD
HETATM   13  C12 UNL     1      20.842  17.076  58.135  1.00  0.00     0.259 C 
HETATM   14  C13 UNL     1      19.775  17.691  57.247  1.00  0.00     0.260 C 
HETATM   15  N3  UNL     1      20.229  18.951  56.689  1.00  0.00    -0.061 N 
ATOM     16  H31 UNL     1      21.246  19.025  56.685  1.00  0.00     0.278 HD
ATOM     17  H32 UNL     1      20.027  19.738  57.306  1.00  0.00     0.278 HD
HETATM   18  C14 UNL     1      19.658  19.138  55.358  1.00  0.00     0.277 C 
HETATM   19  C22 UNL     1      20.049  20.466  54.833  1.00  0.00     0.249 C 
HETATM   20  O1  UNL     1      20.402  20.471  53.608  1.00  0.00    -0.271 OA
HETATM   21  N4  UNL     1      20.071  21.691  55.532  1.00  0.00    -0.345 N 
ATOM     22  H4  UNL     1      19.657  22.485  55.042  1.00  0.00     0.163 HD
HETATM   23  C23 UNL     1      20.594  21.972  56.835  1.00  0.00     0.184 C 
HETATM   24  C28 UNL     1      19.458  22.095  57.819  1.00  0.00     0.282 C 
HETATM   25  O2  UNL     1      18.333  22.356  57.320  1.00  0.00    -0.263 OA
HETATM   26  O3  UNL     1      19.550  21.953  59.159  1.00  0.00    -0.314 OA
ENDROOT
BRANCH  18  27
HETATM   27  C15 UNL     1      18.160  19.071  55.424  1.00  0.00     0.047 C 
BRANCH  27  28
HETATM   28  C16 UNL     1      17.483  18.279  54.375  1.00  0.00    -0.012 C 
HETATM   29  C17 UNL     1      16.814  19.071  53.287  1.00  0.00     0.005 C 
HETATM   30  C18 UNL     1      16.078  18.143  52.364  1.00  0.00     0.000 C 
HETATM   31  C19 UNL     1      16.774  16.846  52.118  1.00  0.00     0.000 C 
HETATM   32  C20 UNL     1      18.247  17.033  52.339  1.00  0.00     0.000 C 
HETATM   33  C21 UNL     1      18.478  17.281  53.810  1.00  0.00     0.005 C 
ENDBRANCH  27  28
ENDBRANCH  18  27
BRANCH  23  34
HETATM   34  C24 UNL     1      21.283  23.309  56.870  1.00  0.00     0.039 C 
BRANCH  34  35
HETATM   35  C25 UNL     1      22.169  23.667  55.750  1.00  0.00    -0.020 C 
HETATM   36  C26 UNL     1      23.615  23.272  56.165  1.00  0.00     0.009 C 
HETATM   37  C27 UNL     1      22.272  25.122  55.388  1.00  0.00     0.009 C 
ENDBRANCH  34  35
ENDBRANCH  23  34
BRANCH   8  38
HETATM   38  C8  UNL     1      19.389  15.315  61.936  1.00  0.00     0.010 C 
HETATM   39  C9  UNL     1      18.026  14.983  61.347  1.00  0.00     0.011 C 
HETATM   40  C10 UNL     1      20.320  14.165  61.693  1.00  0.00     0.011 C 
ENDBRANCH   8  38
BRANCH   1  41
HETATM   41  C2  UNL     1      21.611  21.581  60.346  1.00  0.00     0.028 C 
HETATM   42  C1  UNL     1      21.603  23.055  60.586  1.00  0.00     0.007 C 
ENDBRANCH   1  41
TORSDOF 6
ENDMDL
MODEL 4
REMARK VINA RESULT: -7.673331484      4.164      8.742
REMARK  6 active torsions:
REMARK  status: ('A' for Active; 'I' for Inactive)
REMARK    1  A    between atoms: C2_2  and  C3_3 
REMARK    2  A    between atoms: C7_10  and  C8_11 
REMARK    3  A    between atoms: C14_23  and  C15_24 
REMARK    4  A    between atoms: C15_24  and  C16_25 
REMARK    5  A    between atoms: C23_35  and  C24_36 
REMARK    6  A    between atoms: C24_36  and  C25_37 
ROOT
HETATM    1  C3  UNL     1      20.048  18.145  57.736  1.00  0.00     0.131 C 
HETATM    2  C4  UNL     1      21.347  18.431  58.499  1.00  0.00     0.034 C 
HETATM    3  C5  UNL     1      21.116  18.884  59.902  1.00  0.00     0.030 C 
HETATM    4  C6  UNL     1      20.351  20.161  60.036  1.00  0.00     0.233 C 
HETATM    5  N1  UNL     1      21.208  21.337  59.970  1.00  0.00    -0.069 N 
ATOM      6  H11 UNL     1      22.032  21.195  59.387  1.00  0.00     0.277 HD
ATOM      7  H12 UNL     1      21.695  21.523  60.847  1.00  0.00     0.277 HD
HETATM    8  C7  UNL     1      20.393  22.446  59.533  1.00  0.00     0.214 C 
HETATM    9  C11 UNL     1      20.202  22.459  58.040  1.00  0.00     0.265 C 
HETATM   10  N2  UNL     1      18.917  23.034  57.696  1.00  0.00    -0.072 N 
ATOM     11  H21 UNL     1      19.011  23.874  57.125  1.00  0.00     0.277 HD
ATOM     12  H22 UNL     1      18.455  23.455  58.502  1.00  0.00     0.277 HD
HETATM   13  C12 UNL     1      18.091  22.027  57.056  1.00  0.00     0.259 C 
HETATM   14  C13 UNL     1      18.677  21.706  55.692  1.00  0.00     0.260 C 
HETATM   15  N3  UNL     1      18.201  20.421  55.214  1.00  0.00    -0.061 N 
ATOM     16  H31 UNL     1      17.330  20.143  55.665  1.00  0.00     0.278 HD
ATOM     17  H32 UNL     1      18.787  19.651  55.537  1.00  0.00     0.278 HD
HETATM   18  C14 UNL     1      18.082  20.448  53.759  1.00  0.00     0.277 C 
HETATM   19  C22 UNL     1      17.685  19.107  53.270  1.00  0.00     0.249 C 
HETATM   20  O1  UNL     1      16.792  19.116  52.360  1.00  0.00    -0.271 OA
HETATM   21  N4  UNL     1      18.181  17.858  53.697  1.00  0.00    -0.345 N 
ATOM     22  H4  UNL     1      18.419  17.201  52.954  1.00  0.00     0.163 HD
HETATM   23  C23 UNL     1      18.395  17.387  55.033  1.00  0.00     0.184 C 
HETATM   24  C28 UNL     1      19.869  17.429  55.352  1.00  0.00     0.282 C 
HETATM   25  O2  UNL     1      20.640  17.438  54.358  1.00  0.00    -0.263 OA
HETATM   26  O3  UNL     1      20.412  17.456  56.588  1.00  0.00    -0.314 OA
ENDROOT
BRANCH  18  27
HETATM   27  C15 UNL     1      19.400  20.813  53.140  1.00  0.00     0.047 C 
BRANCH  27  28
HETATM   28  C16 UNL     1      19.374  21.847  52.082  1.00  0.00    -0.012 C 
HETATM   29  C17 UNL     1      18.029  22.454  51.794  1.00  0.00     0.005 C 
HETATM   30  C18 UNL     1      18.138  23.397  50.631  1.00  0.00     0.000 C 
HETATM   31  C19 UNL     1      19.410  24.176  50.593  1.00  0.00     0.000 C 
HETATM   32  C20 UNL     1      19.960  24.282  51.985  1.00  0.00     0.000 C 
HETATM   33  C21 UNL     1      20.405  22.908  52.424  1.00  0.00     0.005 C 
ENDBRANCH  27  28
ENDBRANCH  18  27
BRANCH  23  34
HETATM   34  C24 UNL     1      18.012  15.939  55.168  1.00  0.00     0.039 C 
BRANCH  34  35
HETATM   35  C25 UNL     1      16.602  15.613  55.441  1.00  0.00    -0.020 C 
HETATM   36  C26 UNL     1      16.585  14.621  56.640  1.00  0.00     0.009 C 
HETATM   37  C27 UNL     1      15.835  14.902  54.362  1.00  0.00     0.009 C 
ENDBRANCH  34  35
ENDBRANCH  23  34
BRANCH   8  38
HETATM   38  C8  UNL     1      20.917  23.778  59.990  1.00  0.00     0.010 C 
HETATM   39  C9  UNL     1      19.960  24.418  60.985  1.00  0.00     0.011 C 
HETATM   40  C10 UNL     1      22.279  23.688  60.610  1.00  0.00     0.011 C 
ENDBRANCH   8  38
BRANCH   1  41
HETATM   41  C2  UNL     1      19.146  17.318  58.631  1.00  0.00     0.028 C 
HETATM   42  C1  UNL     1      17.710  17.717  58.530  1.00  0.00     0.007 C 
ENDBRANCH   1  41
TORSDOF 6
ENDMDL
MODEL 5
REMARK VINA RESULT: -7.640601515      4.203      8.224
REMARK  6 active torsions:
REMARK  status: ('A' for Active; 'I' for Inactive)
REMARK    1  A    between atoms: C2_2  and  C3_3 
REMARK    2  A    between atoms: C7_10  and  C8_11 
REMARK    3  A    between atoms: C14_23  and  C15_24 
REMARK    4  A    between atoms: C15_24  and  C16_25 
REMARK    5  A    between atoms: C23_35  and  C24_36 
REMARK    6  A    between atoms: C24_36  and  C25_37 
ROOT
HETATM    1  C3  UNL     1      19.998  20.514  59.787  1.00  0.00     0.131 C 
HETATM    2  C4  UNL     1      19.107  20.170  60.987  1.00  0.00     0.034 C 
HETATM    3  C5  UNL     1      19.839  19.464  62.079  1.00  0.00     0.030 C 
HETATM    4  C6  UNL     1      20.425  18.143  61.697  1.00  0.00     0.233 C 
HETATM    5  N1  UNL     1      19.478  17.047  61.845  1.00  0.00    -0.069 N 
ATOM      6  H11 UNL     1      18.511  17.335  61.697  1.00  0.00     0.277 HD
ATOM      7  H12 UNL     1      19.379  16.736  62.812  1.00  0.00     0.277 HD
HETATM    8  C7  UNL     1      19.893  15.988  60.954  1.00  0.00     0.214 C 
HETATM    9  C11 UNL     1      19.445  16.229  59.537  1.00  0.00     0.265 C 
HETATM   10  N2  UNL     1      20.389  15.654  58.600  1.00  0.00    -0.072 N 
ATOM     11  H21 UNL     1      19.963  14.933  58.017  1.00  0.00     0.277 HD
ATOM     12  H22 UNL     1      21.087  15.072  59.064  1.00  0.00     0.277 HD
HETATM   13  C12 UNL     1      20.994  16.710  57.812  1.00  0.00     0.259 C 
HETATM   14  C13 UNL     1      19.942  17.299  56.889  1.00  0.00     0.260 C 
HETATM   15  N3  UNL     1      20.334  18.619  56.433  1.00  0.00    -0.061 N 
ATOM     16  H31 UNL     1      21.341  18.765  56.500  1.00  0.00     0.278 HD
ATOM     17  H32 UNL     1      20.036  19.352  57.077  1.00  0.00     0.278 HD
HETATM   18  C14 UNL     1      19.835  18.844  55.079  1.00  0.00     0.277 C 
HETATM   19  C22 UNL     1      20.158  20.225  54.654  1.00  0.00     0.249 C 
HETATM   20  O1  UNL     1      20.585  20.328  53.458  1.00  0.00    -0.271 OA
HETATM   21  N4  UNL     1      20.044  21.405  55.419  1.00  0.00    -0.345 N 
ATOM     22  H4  UNL     1      19.604  22.195  54.947  1.00  0.00     0.163 HD
HETATM   23  C23 UNL     1      20.463  21.644  56.767  1.00  0.00     0.184 C 
HETATM   24  C28 UNL     1      19.262  21.628  57.679  1.00  0.00     0.282 C 
HETATM   25  O2  UNL     1      18.153  21.837  57.121  1.00  0.00    -0.263 OA
HETATM   26  O3  UNL     1      19.280  21.413  59.013  1.00  0.00    -0.314 OA
ENDROOT
BRANCH  18  27
HETATM   27  C15 UNL     1      18.345  18.667  55.041  1.00  0.00     0.047 C 
BRANCH  27  28
HETATM   28  C16 UNL     1      17.798  17.862  53.927  1.00  0.00    -0.012 C 
HETATM   29  C17 UNL     1      17.072  16.607  54.322  1.00  0.00     0.005 C 
HETATM   30  C18 UNL     1      16.676  15.843  53.092  1.00  0.00     0.000 C 
HETATM   31  C19 UNL     1      16.256  16.703  51.947  1.00  0.00     0.000 C 
HETATM   32  C20 UNL     1      15.759  18.015  52.478  1.00  0.00     0.000 C 
HETATM   33  C21 UNL     1      16.931  18.763  53.065  1.00  0.00     0.005 C 
ENDBRANCH  27  28
ENDBRANCH  18  27
BRANCH  23  34
HETATM   34  C24 UNL     1      21.046  23.022  56.921  1.00  0.00     0.039 C 
BRANCH  34  35
HETATM   35  C25 UNL     1      21.953  23.517  55.873  1.00  0.00    -0.020 C 
HETATM   36  C26 UNL     1      23.397  23.111  56.286  1.00  0.00     0.009 C 
HETATM   37  C27 UNL     1      22.030  25.004  55.670  1.00  0.00     0.009 C 
ENDBRANCH  34  35
ENDBRANCH  23  34
BRANCH   8  38
HETATM   38  C8  UNL     1      19.443  14.628  61.405  1.00  0.00     0.010 C 
HETATM   39  C9  UNL     1      20.640  13.721  61.649  1.00  0.00     0.011 C 
HETATM   40  C10 UNL     1      18.603  14.673  62.647  1.00  0.00     0.011 C 
ENDBRANCH   8  38
BRANCH   1  41
HETATM   41  C2  UNL     1      21.285  21.118  60.312  1.00  0.00     0.028 C 
HETATM   42  C1  UNL     1      21.148  22.568  60.645  1.00  0.00     0.007 C 
ENDBRANCH   1  41
TORSDOF 6
ENDMDL
