MODEL 1
REMARK VINA RESULT: -7.615353469      0.000      0.000
REMARK  10 active torsions:
REMARK  status: ('A' for Active; 'I' for Inactive)
REMARK    1  A    between atoms: O1_2  and  C2_3 
REMARK    2  A    between atoms: C2_3  and  C3_5 
REMARK    3  A    between atoms: C3_5  and  C4_6 
REMARK    4  A    between atoms: C4_6  and  C5_7 
REMARK    5  A    between atoms: C5_7  and  N1_8 
REMARK    6  A    between atoms: N1_8  and  C7_10 
REMARK    7  A    between atoms: C12_15  and  O3_16 
REMARK    8  A    between atoms: C20_25  and  O4_26 
REMARK    9  A    between atoms: C20_25  and  C21_28 
REMARK   10  A    between atoms: C27_36  and  O7_37 
ROOT
HETATM    1  C7  UNL     1      20.851  21.246  61.742  1.00  0.00     0.251 C 
HETATM    2  C8  UNL     1      21.652  20.509  60.722  1.00  0.00     0.044 C 
HETATM    3  C9  UNL     1      20.865  19.529  59.910  1.00  0.00    -0.003 C 
HETATM    4  C10 UNL     1      21.759  18.356  59.537  1.00  0.00     0.014 C 
HETATM    5  C11 UNL     1      20.839  17.392  60.299  1.00  0.00     0.030 C 
HETATM    6  C12 UNL     1      20.189  16.359  59.463  1.00  0.00     0.066 C 
HETATM    7  C13 UNL     1      20.774  14.997  59.709  1.00  0.00     0.039 C 
HETATM    8  C14 UNL     1      19.857  13.841  59.449  1.00  0.00     0.016 C 
HETATM    9  C15 UNL     1      18.492  13.921  59.969  1.00  0.00     0.002 C 
HETATM   10  C16 UNL     1      17.502  13.738  58.811  1.00  0.00     0.019 C 
HETATM   11  C17 UNL     1      18.175  15.324  60.545  1.00  0.00     0.004 C 
HETATM   12  C18 UNL     1      18.669  15.308  61.910  1.00  0.00     0.009 C 
HETATM   13  C19 UNL     1      18.863  13.824  62.269  1.00  0.00     0.050 C 
HETATM   14  C20 UNL     1      18.121  13.105  61.162  1.00  0.00     0.153 C 
HETATM   15  C22 UNL     1      18.698  16.283  59.550  1.00  0.00     0.025 C 
HETATM   16  C23 UNL     1      18.055  17.646  59.564  1.00  0.00     0.009 C 
HETATM   17  C24 UNL     1      18.613  18.559  60.580  1.00  0.00     0.011 C 
HETATM   18  C25 UNL     1      20.088  18.557  60.761  1.00  0.00    -0.028 C 
HETATM   19  C26 UNL     1      20.418  18.877  62.217  1.00  0.00     0.044 C 
HETATM   20  C27 UNL     1      20.061  20.275  62.604  1.00  0.00     0.152 C 
ENDROOT
BRANCH   1  21
HETATM   21  N1  UNL     1      19.952  22.251  61.215  1.00  0.00     0.091 N 
HETATM   22  C6  UNL     1      19.945  23.325  62.223  1.00  0.00     0.310 C 
BRANCH  21  23
HETATM   23  C5  UNL     1      20.546  22.890  60.030  1.00  0.00     0.273 C 
BRANCH  23  24
HETATM   24  C4  UNL     1      19.498  23.276  59.040  1.00  0.00     0.040 C 
BRANCH  24  25
HETATM   25  C3  UNL     1      19.323  22.221  57.995  1.00  0.00     0.113 C 
BRANCH  25  26
HETATM   26  C2  UNL     1      18.187  22.403  57.088  1.00  0.00     0.258 C 
HETATM   27  O2  UNL     1      17.260  23.224  57.271  1.00  0.00    -0.265 OA
BRANCH  26  28
HETATM   28  O1  UNL     1      18.066  21.633  55.910  1.00  0.00    -0.326 OA
HETATM   29  C1  UNL     1      17.886  20.238  55.976  1.00  0.00     0.213 C 
ENDBRANCH  26  28
ENDBRANCH  25  26
ENDBRANCH  24  25
ENDBRANCH  23  24
ENDBRANCH  21  23
ENDBRANCH   1  21
BRANCH  20  30
HETATM   30  O7  UNL     1      18.684  20.497  62.545  1.00  0.00    -0.393 OA
ATOM     31  H7  UNL     1      18.246  20.318  63.368  1.00  0.00     0.210 HD
ENDBRANCH  20  30
BRANCH   6  32
HETATM   32  O3  UNL     1      20.503  16.676  58.113  1.00  0.00    -0.389 OA
ATOM     33  H3  UNL     1      21.442  16.821  58.080  1.00  0.00     0.210 HD
ENDBRANCH   6  32
BRANCH  14  34
HETATM   34  O4  UNL     1      16.748  13.396  61.389  1.00  0.00    -0.378 OA
ATOM     35  H4  UNL     1      16.331  13.274  60.544  1.00  0.00     0.211 HD
ENDBRANCH  14  34
BRANCH  14  36
HETATM   36  C21 UNL     1      18.293  11.681  61.098  1.00  0.00     0.209 C 
HETATM   37  O5  UNL     1      19.346  11.102  61.412  1.00  0.00    -0.646 OA
HETATM   38  O6  UNL     1      17.248  10.873  60.665  1.00  0.00    -0.646 OA
ENDBRANCH  14  36
TORSDOF 10
ENDMDL
MODEL 2
REMARK VINA RESULT: -7.563093651      3.047      8.460
REMARK  10 active torsions:
REMARK  status: ('A' for Active; 'I' for Inactive)
REMARK    1  A    between atoms: O1_2  and  C2_3 
REMARK    2  A    between atoms: C2_3  and  C3_5 
REMARK    3  A    between atoms: C3_5  and  C4_6 
REMARK    4  A    between atoms: C4_6  and  C5_7 
REMARK    5  A    between atoms: C5_7  and  N1_8 
REMARK    6  A    between atoms: N1_8  and  C7_10 
REMARK    7  A    between atoms: C12_15  and  O3_16 
REMARK    8  A    between atoms: C20_25  and  O4_26 
REMARK    9  A    between atoms: C20_25  and  C21_28 
REMARK   10  A    between atoms: C27_36  and  O7_37 
ROOT
HETATM    1  C7  UNL     1      18.179  14.420  57.233  1.00  0.00     0.251 C 
HETATM    2  C8  UNL     1      18.970  14.135  58.464  1.00  0.00     0.044 C 
HETATM    3  C9  UNL     1      18.735  15.097  59.586  1.00  0.00    -0.003 C 
HETATM    4  C10 UNL     1      20.018  15.253  60.390  1.00  0.00     0.014 C 
HETATM    5  C11 UNL     1      20.067  16.749  60.052  1.00  0.00     0.030 C 
HETATM    6  C12 UNL     1      19.962  17.655  61.217  1.00  0.00     0.066 C 
HETATM    7  C13 UNL     1      21.274  18.323  61.520  1.00  0.00     0.039 C 
HETATM    8  C14 UNL     1      21.180  19.655  62.198  1.00  0.00     0.016 C 
HETATM    9  C15 UNL     1      20.215  20.622  61.677  1.00  0.00     0.002 C 
HETATM   10  C16 UNL     1      19.268  21.046  62.808  1.00  0.00     0.019 C 
HETATM   11  C17 UNL     1      19.293  19.994  60.602  1.00  0.00     0.004 C 
HETATM   12  C18 UNL     1      20.026  20.089  59.353  1.00  0.00     0.009 C 
HETATM   13  C19 UNL     1      21.136  21.128  59.596  1.00  0.00     0.050 C 
HETATM   14  C20 UNL     1      20.708  21.789  60.889  1.00  0.00     0.153 C 
HETATM   15  C22 UNL     1      18.882  18.687  61.154  1.00  0.00     0.025 C 
HETATM   16  C23 UNL     1      17.591  18.131  60.610  1.00  0.00     0.009 C 
HETATM   17  C24 UNL     1      17.741  17.422  59.324  1.00  0.00     0.011 C 
HETATM   18  C25 UNL     1      18.922  16.535  59.170  1.00  0.00    -0.028 C 
HETATM   19  C26 UNL     1      19.355  16.522  57.706  1.00  0.00     0.044 C 
HETATM   20  C27 UNL     1      18.358  15.867  56.807  1.00  0.00     0.152 C 
ENDROOT
BRANCH   1  21
HETATM   21  N1  UNL     1      16.765  14.124  57.325  1.00  0.00     0.091 N 
HETATM   22  C6  UNL     1      16.376  13.691  55.971  1.00  0.00     0.310 C 
BRANCH  21  23
HETATM   23  C5  UNL     1      16.550  12.925  58.149  1.00  0.00     0.273 C 
BRANCH  23  24
HETATM   24  C4  UNL     1      15.106  12.745  58.480  1.00  0.00     0.040 C 
BRANCH  24  25
HETATM   25  C3  UNL     1      14.932  12.059  59.797  1.00  0.00     0.113 C 
BRANCH  25  26
HETATM   26  C2  UNL     1      13.574  11.603  60.104  1.00  0.00     0.258 C 
HETATM   27  O2  UNL     1      12.559  11.897  59.433  1.00  0.00    -0.265 OA
BRANCH  26  28
HETATM   28  O1  UNL     1      13.321  10.771  61.218  1.00  0.00    -0.326 OA
HETATM   29  C1  UNL     1      13.362  11.289  62.528  1.00  0.00     0.213 C 
ENDBRANCH  26  28
ENDBRANCH  25  26
ENDBRANCH  24  25
ENDBRANCH  23  24
ENDBRANCH  21  23
ENDBRANCH   1  21
BRANCH  20  30
HETATM   30  O7  UNL     1      17.153  16.572  56.765  1.00  0.00    -0.393 OA
ATOM     31  H7  UNL     1      16.778  16.609  55.893  1.00  0.00     0.210 HD
ENDBRANCH  20  30
BRANCH   6  32
HETATM   32  O3  UNL     1      19.678  16.834  62.343  1.00  0.00    -0.389 OA
ATOM     33  H3  UNL     1      20.437  16.884  62.912  1.00  0.00     0.210 HD
ENDBRANCH   6  32
BRANCH  14  34
HETATM   34  O4  UNL     1      19.538  22.525  60.557  1.00  0.00    -0.378 OA
ATOM     35  H4  UNL     1      19.735  22.929  59.720  1.00  0.00     0.211 HD
ENDBRANCH  14  34
BRANCH  14  36
HETATM   36  C21 UNL     1      21.660  22.674  61.499  1.00  0.00     0.209 C 
HETATM   37  O5  UNL     1      22.876  22.654  61.247  1.00  0.00    -0.646 OA
HETATM   38  O6  UNL     1      21.236  23.617  62.429  1.00  0.00    -0.646 OA
ENDBRANCH  14  36
TORSDOF 10
ENDMDL
MODEL 3
REMARK VINA RESULT: -7.457524848      1.394      1.699
REMARK  10 active torsions:
REMARK  status: ('A' for Active; 'I' for Inactive)
REMARK    1  A    between atoms: O1_2  and  C2_3 
REMARK    2  A    between atoms: C2_3  and  C3_5 
REMARK    3  A    between atoms: C3_5  and  C4_6 
REMARK    4  A    between atoms: C4_6  and  C5_7 
REMARK    5  A    between atoms: C5_7  and  N1_8 
REMARK    6  A    between atoms: N1_8  and  C7_10 
REMARK    7  A    between atoms: C12_15  and  O3_16 
REMARK    8  A    between atoms: C20_25  and  O4_26 
REMARK    9  A    between atoms: C20_25  and  C21_28 
REMARK   10  A    between atoms: C27_36  and  O7_37 
ROOT
HETATM    1  C7  UNL     1      20.887  21.612  61.742  1.00  0.00     0.251 C 
HETATM    2  C8  UNL     1      21.449  21.018  60.495  1.00  0.00     0.044 C 
HETATM    3  C9  UNL     1      20.582  19.974  59.864  1.00  0.00    -0.003 C 
HETATM    4  C10 UNL     1      21.464  18.937  59.182  1.00  0.00     0.014 C 
HETATM    5  C11 UNL     1      20.907  17.839  60.099  1.00  0.00     0.030 C 
HETATM    6  C12 UNL     1      20.170  16.761  59.403  1.00  0.00     0.066 C 
HETATM    7  C13 UNL     1      20.951  15.477  59.387  1.00  0.00     0.039 C 
HETATM    8  C14 UNL     1      20.134  14.223  59.310  1.00  0.00     0.016 C 
HETATM    9  C15 UNL     1      18.968  14.111  60.187  1.00  0.00     0.002 C 
HETATM   10  C16 UNL     1      17.722  13.843  59.333  1.00  0.00     0.019 C 
HETATM   11  C17 UNL     1      18.669  15.442  60.921  1.00  0.00     0.004 C 
HETATM   12  C18 UNL     1      19.522  15.443  62.095  1.00  0.00     0.009 C 
HETATM   13  C19 UNL     1      19.974  13.983  62.286  1.00  0.00     0.050 C 
HETATM   14  C20 UNL     1      19.039  13.214  61.377  1.00  0.00     0.153 C 
HETATM   15  C22 UNL     1      18.782  16.493  59.888  1.00  0.00     0.025 C 
HETATM   16  C23 UNL     1      18.019  17.762  60.170  1.00  0.00     0.009 C 
HETATM   17  C24 UNL     1      18.732  18.704  61.055  1.00  0.00     0.011 C 
HETATM   18  C25 UNL     1      20.189  18.882  60.826  1.00  0.00    -0.028 C 
HETATM   19  C26 UNL     1      20.874  19.192  62.156  1.00  0.00     0.044 C 
HETATM   20  C27 UNL     1      20.483  20.520  62.719  1.00  0.00     0.152 C 
ENDROOT
BRANCH   1  21
HETATM   21  N1  UNL     1      19.769  22.512  61.549  1.00  0.00     0.091 N 
HETATM   22  C6  UNL     1      20.047  23.661  62.429  1.00  0.00     0.310 C 
BRANCH  21  23
HETATM   23  C5  UNL     1      19.812  23.090  60.197  1.00  0.00     0.273 C 
BRANCH  23  24
HETATM   24  C4  UNL     1      20.493  24.418  60.197  1.00  0.00     0.040 C 
BRANCH  24  25
HETATM   25  C3  UNL     1      20.829  24.856  58.807  1.00  0.00     0.113 C 
BRANCH  25  26
HETATM   26  C2  UNL     1      21.384  23.822  57.930  1.00  0.00     0.258 C 
HETATM   27  O2  UNL     1      22.534  23.341  58.041  1.00  0.00    -0.265 OA
BRANCH  26  28
HETATM   28  O1  UNL     1      20.624  23.286  56.867  1.00  0.00    -0.326 OA
HETATM   29  C1  UNL     1      20.592  21.897  56.631  1.00  0.00     0.213 C 
ENDBRANCH  26  28
ENDBRANCH  25  26
ENDBRANCH  24  25
ENDBRANCH  23  24
ENDBRANCH  21  23
ENDBRANCH   1  21
BRANCH  20  30
HETATM   30  O7  UNL     1      19.128  20.567  63.052  1.00  0.00    -0.393 OA
ATOM     31  H7  UNL     1      18.601  19.970  62.535  1.00  0.00     0.210 HD
ENDBRANCH  20  30
BRANCH   6  32
HETATM   32  O3  UNL     1      20.058  17.161  58.043  1.00  0.00    -0.389 OA
ATOM     33  H3  UNL     1      19.439  17.882  58.024  1.00  0.00     0.210 HD
ENDBRANCH   6  32
BRANCH  14  34
HETATM   34  O4  UNL     1      17.760  13.321  61.989  1.00  0.00    -0.378 OA
ATOM     35  H4  UNL     1      17.835  14.061  62.580  1.00  0.00     0.211 HD
ENDBRANCH  14  34
BRANCH  14  36
HETATM   36  C21 UNL     1      19.346  11.827  61.172  1.00  0.00     0.209 C 
HETATM   37  O5  UNL     1      18.488  10.961  60.933  1.00  0.00    -0.646 OA
HETATM   38  O6  UNL     1      20.665  11.390  61.237  1.00  0.00    -0.646 OA
ENDBRANCH  14  36
TORSDOF 10
ENDMDL
MODEL 4
REMARK VINA RESULT: -7.293205853      1.909      2.620
REMARK  10 active torsions:
REMARK  status: ('A' for Active; 'I' for Inactive)
REMARK    1  A    between atoms: O1_2  and  C2_3 
REMARK    2  A    between atoms: C2_3  and  C3_5 
REMARK    3  A    between atoms: C3_5  and  C4_6 
REMARK    4  A    between atoms: C4_6  and  C5_7 
REMARK    5  A    between atoms: C5_7  and  N1_8 
REMARK    6  A    between atoms: N1_8  and  C7_10 
REMARK    7  A    between atoms: C12_15  and  O3_16 
REMARK    8  A    between atoms: C20_25  and  O4_26 
REMARK    9  A    between atoms: C20_25  and  C21_28 
REMARK   10  A    between atoms: C27_36  and  O7_37 
ROOT
HETATM    1  C7  UNL     1      20.889  21.707  61.698  1.00  0.00     0.251 C 
HETATM    2  C8  UNL     1      21.488  21.099  60.476  1.00  0.00     0.044 C 
HETATM    3  C9  UNL     1      20.628  20.068  59.815  1.00  0.00    -0.003 C 
HETATM    4  C10 UNL     1      21.517  19.014  59.170  1.00  0.00     0.014 C 
HETATM    5  C11 UNL     1      20.908  17.928  60.069  1.00  0.00     0.030 C 
HETATM    6  C12 UNL     1      20.180  16.861  59.349  1.00  0.00     0.066 C 
HETATM    7  C13 UNL     1      20.938  15.563  59.367  1.00  0.00     0.039 C 
HETATM    8  C14 UNL     1      20.103  14.323  59.262  1.00  0.00     0.016 C 
HETATM    9  C15 UNL     1      18.904  14.234  60.095  1.00  0.00     0.002 C 
HETATM   10  C16 UNL     1      17.686  13.984  59.195  1.00  0.00     0.019 C 
HETATM   11  C17 UNL     1      18.599  15.572  60.813  1.00  0.00     0.004 C 
HETATM   12  C18 UNL     1      19.407  15.563  62.019  1.00  0.00     0.009 C 
HETATM   13  C19 UNL     1      19.827  14.097  62.231  1.00  0.00     0.050 C 
HETATM   14  C20 UNL     1      18.914  13.341  61.290  1.00  0.00     0.153 C 
HETATM   15  C22 UNL     1      18.769  16.617  59.782  1.00  0.00     0.025 C 
HETATM   16  C23 UNL     1      18.018  17.900  60.030  1.00  0.00     0.009 C 
HETATM   17  C24 UNL     1      18.713  18.833  60.939  1.00  0.00     0.011 C 
HETATM   18  C25 UNL     1      20.180  18.986  60.765  1.00  0.00    -0.028 C 
HETATM   19  C26 UNL     1      20.819  19.289  62.118  1.00  0.00     0.044 C 
HETATM   20  C27 UNL     1      20.430  20.626  62.662  1.00  0.00     0.152 C 
ENDROOT
BRANCH   1  21
HETATM   21  N1  UNL     1      19.795  22.625  61.461  1.00  0.00     0.091 N 
HETATM   22  C6  UNL     1      19.941  23.670  62.489  1.00  0.00     0.310 C 
BRANCH  21  23
HETATM   23  C5  UNL     1      20.006  23.349  60.197  1.00  0.00     0.273 C 
BRANCH  23  24
HETATM   24  C4  UNL     1      19.729  24.807  60.354  1.00  0.00     0.040 C 
BRANCH  24  25
HETATM   25  C3  UNL     1      20.534  25.619  59.391  1.00  0.00     0.113 C 
BRANCH  25  26
HETATM   26  C2  UNL     1      19.952  26.906  59.000  1.00  0.00     0.258 C 
HETATM   27  O2  UNL     1      20.235  27.521  57.948  1.00  0.00    -0.265 OA
BRANCH  26  28
HETATM   28  O1  UNL     1      19.000  27.551  59.821  1.00  0.00    -0.326 OA
HETATM   29  C1  UNL     1      18.833  28.949  59.769  1.00  0.00     0.213 C 
ENDBRANCH  26  28
ENDBRANCH  25  26
ENDBRANCH  24  25
ENDBRANCH  23  24
ENDBRANCH  21  23
ENDBRANCH   1  21
BRANCH  20  30
HETATM   30  O7  UNL     1      19.065  20.697  62.944  1.00  0.00    -0.393 OA
ATOM     31  H7  UNL     1      18.696  19.857  63.190  1.00  0.00     0.210 HD
ENDBRANCH  20  30
BRANCH   6  32
HETATM   32  O3  UNL     1      20.125  17.257  57.985  1.00  0.00    -0.389 OA
ATOM     33  H3  UNL     1      19.419  16.760  57.587  1.00  0.00     0.210 HD
ENDBRANCH   6  32
BRANCH  14  34
HETATM   34  O4  UNL     1      17.615  13.471  61.852  1.00  0.00    -0.378 OA
ATOM     35  H4  UNL     1      17.746  13.385  62.789  1.00  0.00     0.211 HD
ENDBRANCH  14  34
BRANCH  14  36
HETATM   36  C21 UNL     1      19.205  11.948  61.101  1.00  0.00     0.209 C 
HETATM   37  O5  UNL     1      18.342  11.095  60.834  1.00  0.00    -0.646 OA
HETATM   38  O6  UNL     1      20.513  11.489  61.216  1.00  0.00    -0.646 OA
ENDBRANCH  14  36
TORSDOF 10
ENDMDL
MODEL 5
REMARK VINA RESULT: -7.268408724      1.081      1.438
REMARK  10 active torsions:
REMARK  status: ('A' for Active; 'I' for Inactive)
REMARK    1  A    between atoms: O1_2  and  C2_3 
REMARK    2  A    between atoms: C2_3  and  C3_5 
REMARK    3  A    between atoms: C3_5  and  C4_6 
REMARK    4  A    between atoms: C4_6  and  C5_7 
REMARK    5  A    between atoms: C5_7  and  N1_8 
REMARK    6  A    between atoms: N1_8  and  C7_10 
REMARK    7  A    between atoms: C12_15  and  O3_16 
REMARK    8  A    between atoms: C20_25  and  O4_26 
REMARK    9  A    between atoms: C20_25  and  C21_28 
REMARK   10  A    between atoms: C27_36  and  O7_37 
ROOT
HETATM    1  C7  UNL     1      20.817  20.999  61.727  1.00  0.00     0.251 C 
HETATM    2  C8  UNL     1      21.624  20.250  60.722  1.00  0.00     0.044 C 
HETATM    3  C9  UNL     1      20.837  19.281  59.896  1.00  0.00    -0.003 C 
HETATM    4  C10 UNL     1      21.720  18.094  59.540  1.00  0.00     0.014 C 
HETATM    5  C11 UNL     1      20.772  17.145  60.285  1.00  0.00     0.030 C 
HETATM    6  C12 UNL     1      20.122  16.121  59.438  1.00  0.00     0.066 C 
HETATM    7  C13 UNL     1      20.682  14.751  59.695  1.00  0.00     0.039 C 
HETATM    8  C14 UNL     1      19.752  13.609  59.420  1.00  0.00     0.016 C 
HETATM    9  C15 UNL     1      18.380  13.709  59.916  1.00  0.00     0.002 C 
HETATM   10  C16 UNL     1      17.408  13.540  58.741  1.00  0.00     0.019 C 
HETATM   11  C17 UNL     1      18.074  15.117  60.486  1.00  0.00     0.004 C 
HETATM   12  C18 UNL     1      18.543  15.095  61.859  1.00  0.00     0.009 C 
HETATM   13  C19 UNL     1      18.708  13.608  62.222  1.00  0.00     0.050 C 
HETATM   14  C20 UNL     1      17.975  12.900  61.102  1.00  0.00     0.153 C 
HETATM   15  C22 UNL     1      18.629  16.067  59.499  1.00  0.00     0.025 C 
HETATM   16  C23 UNL     1      18.006  17.440  59.501  1.00  0.00     0.009 C 
HETATM   17  C24 UNL     1      18.560  18.345  60.527  1.00  0.00     0.011 C 
HETATM   18  C25 UNL     1      20.031  18.321  60.733  1.00  0.00    -0.028 C 
HETATM   19  C26 UNL     1      20.340  18.637  62.195  1.00  0.00     0.044 C 
HETATM   20  C27 UNL     1      19.997  20.041  62.575  1.00  0.00     0.152 C 
ENDROOT
BRANCH   1  21
HETATM   21  N1  UNL     1      19.942  22.017  61.183  1.00  0.00     0.091 N 
HETATM   22  C6  UNL     1      19.966  23.110  62.171  1.00  0.00     0.310 C 
BRANCH  21  23
HETATM   23  C5  UNL     1      20.549  22.619  59.985  1.00  0.00     0.273 C 
BRANCH  23  24
HETATM   24  C4  UNL     1      19.517  22.932  58.954  1.00  0.00     0.040 C 
BRANCH  24  25
HETATM   25  C3  UNL     1      19.458  21.869  57.904  1.00  0.00     0.113 C 
BRANCH  25  26
HETATM   26  C2  UNL     1      20.609  21.800  57.001  1.00  0.00     0.258 C 
HETATM   27  O2  UNL     1      21.234  20.751  56.728  1.00  0.00    -0.265 OA
BRANCH  26  28
HETATM   28  O1  UNL     1      21.101  22.960  56.361  1.00  0.00    -0.326 OA
HETATM   29  C1  UNL     1      22.455  23.330  56.480  1.00  0.00     0.213 C 
ENDBRANCH  26  28
ENDBRANCH  25  26
ENDBRANCH  24  25
ENDBRANCH  23  24
ENDBRANCH  21  23
ENDBRANCH   1  21
BRANCH  20  30
HETATM   30  O7  UNL     1      18.625  20.283  62.491  1.00  0.00    -0.393 OA
ATOM     31  H7  UNL     1      18.136  19.883  63.200  1.00  0.00     0.210 HD
ENDBRANCH  20  30
BRANCH   6  32
HETATM   32  O3  UNL     1      20.464  16.432  58.094  1.00  0.00    -0.389 OA
ATOM     33  H3  UNL     1      19.645  16.554  57.627  1.00  0.00     0.210 HD
ENDBRANCH   6  32
BRANCH  14  34
HETATM   34  O4  UNL     1      16.603  13.212  61.305  1.00  0.00    -0.378 OA
ATOM     35  H4  UNL     1      16.460  13.085  62.235  1.00  0.00     0.211 HD
ENDBRANCH  14  34
BRANCH  14  36
HETATM   36  C21 UNL     1      18.127  11.474  61.042  1.00  0.00     0.209 C 
HETATM   37  O5  UNL     1      19.165  10.878  61.377  1.00  0.00    -0.646 OA
HETATM   38  O6  UNL     1      17.079  10.681  60.589  1.00  0.00    -0.646 OA
ENDBRANCH  14  36
TORSDOF 10
ENDMDL
