MODEL 1
REMARK VINA RESULT: -8.293126301      0.000      0.000
REMARK  8 active torsions:
REMARK  status: ('A' for Active; 'I' for Inactive)
REMARK    1  A    between atoms: C2_2  and  N1_3 
REMARK    2  A    between atoms: C2_2  and  C17_26 
REMARK       I    between atoms: N1_3  and  C3_5 
REMARK    3  A    between atoms: C3_5  and  O2_7 
REMARK    4  A    between atoms: O2_7  and  C4_8 
REMARK    5  A    between atoms: C7_11  and  O3_12 
REMARK    6  A    between atoms: C8_15  and  C9_16 
REMARK    7  A    between atoms: C9_16  and  O5_19 
REMARK       I    between atoms: C17_26  and  N2_28 
REMARK    8  A    between atoms: N2_28  and  C18_30 
ROOT
HETATM    1  N1  UNL     1      19.773  18.569  57.195  1.00  0.00    -0.324 N 
ATOM      2  H1  UNL     1      20.736  18.576  56.862  1.00  0.00     0.165 HD
HETATM    3  C3  UNL     1      18.702  18.802  56.300  1.00  0.00     0.361 C 
HETATM    4  O1  UNL     1      17.533  18.789  56.731  1.00  0.00    -0.238 OA
ENDROOT
BRANCH   3   5
HETATM    5  O2  UNL     1      18.882  19.049  54.948  1.00  0.00    -0.298 OA
BRANCH   5   6
HETATM    6  C4  UNL     1      18.593  20.311  54.334  1.00  0.00     0.138 C 
HETATM    7  C5  UNL     1      17.982  20.049  53.018  1.00  0.00     0.038 C 
HETATM    8  C6  UNL     1      18.557  20.776  51.851  1.00  0.00     0.071 C 
HETATM    9  C7  UNL     1      18.786  22.224  52.332  1.00  0.00     0.166 C 
HETATM   10  O4  UNL     1      18.967  22.985  51.243  1.00  0.00    -0.347 OA
HETATM   11  C14 UNL     1      20.002  22.087  53.224  1.00  0.00     0.054 C 
HETATM   12  C8  UNL     1      19.745  24.094  51.272  1.00  0.00     0.158 C 
HETATM   13  C12 UNL     1      20.800  24.182  52.315  1.00  0.00     0.036 C 
HETATM   14  C13 UNL     1      20.503  23.458  53.602  1.00  0.00     0.013 C 
HETATM   15  C15 UNL     1      19.769  21.223  54.397  1.00  0.00     0.020 C 
HETATM   16  C16 UNL     1      19.737  22.053  55.690  1.00  0.00     0.013 C 
BRANCH   9  17
HETATM   17  O3  UNL     1      17.640  22.512  53.084  1.00  0.00    -0.365 OA
ATOM     18  H3  UNL     1      17.048  22.907  52.454  1.00  0.00     0.213 HD
ENDBRANCH   9  17
BRANCH  12  19
HETATM   19  C9  UNL     1      18.945  25.389  51.133  1.00  0.00     0.077 C 
HETATM   20  C10 UNL     1      19.613  26.508  51.917  1.00  0.00     0.048 C 
HETATM   21  C11 UNL     1      18.771  25.853  49.729  1.00  0.00     0.048 C 
BRANCH  19  22
HETATM   22  O5  UNL     1      17.672  25.230  51.683  1.00  0.00    -0.388 OA
ATOM     23  H5  UNL     1      17.267  26.078  51.821  1.00  0.00     0.210 HD
ENDBRANCH  19  22
ENDBRANCH  12  19
ENDBRANCH   5   6
ENDBRANCH   3   5
BRANCH   1  24
HETATM   24  C2  UNL     1      19.482  18.323  58.588  1.00  0.00     0.174 C 
HETATM   25  C1  UNL     1      20.395  17.181  59.040  1.00  0.00     0.042 C 
BRANCH  24  26
HETATM   26  C17 UNL     1      19.725  19.539  59.420  1.00  0.00     0.240 C 
HETATM   27  O6  UNL     1      19.207  19.632  60.552  1.00  0.00    -0.271 OA
HETATM   28  N2  UNL     1      20.538  20.604  58.954  1.00  0.00    -0.350 N 
ATOM     29  H2  UNL     1      20.952  20.510  58.027  1.00  0.00     0.163 HD
BRANCH  28  30
HETATM   30  C18 UNL     1      20.823  21.805  59.689  1.00  0.00     0.034 C 
HETATM   31  C19 UNL     1      21.342  21.556  61.079  1.00  0.00     0.035 C 
HETATM   32  C20 UNL     1      21.657  22.871  61.742  1.00  0.00    -0.012 C 
HETATM   33  C21 UNL     1      20.415  23.728  61.811  1.00  0.00     0.009 C 
HETATM   34  C25 UNL     1      22.760  23.584  61.018  1.00  0.00     0.009 C 
HETATM   35  C22 UNL     1      19.973  24.018  60.399  1.00  0.00    -0.012 C 
HETATM   36  C23 UNL     1      21.041  24.755  59.653  1.00  0.00     0.009 C 
HETATM   37  C27 UNL     1      19.603  22.707  59.745  1.00  0.00     0.035 C 
HETATM   38  C24 UNL     1      22.264  23.868  59.616  1.00  0.00    -0.012 C 
HETATM   39  C26 UNL     1      21.900  22.580  58.955  1.00  0.00     0.035 C 
ENDBRANCH  28  30
ENDBRANCH  24  26
ENDBRANCH   1  24
TORSDOF 8
ENDMDL
MODEL 2
REMARK VINA RESULT: -8.080865318      2.908      5.851
REMARK  8 active torsions:
REMARK  status: ('A' for Active; 'I' for Inactive)
REMARK    1  A    between atoms: C2_2  and  N1_3 
REMARK    2  A    between atoms: C2_2  and  C17_26 
REMARK       I    between atoms: N1_3  and  C3_5 
REMARK    3  A    between atoms: C3_5  and  O2_7 
REMARK    4  A    between atoms: O2_7  and  C4_8 
REMARK    5  A    between atoms: C7_11  and  O3_12 
REMARK    6  A    between atoms: C8_15  and  C9_16 
REMARK    7  A    between atoms: C9_16  and  O5_19 
REMARK       I    between atoms: C17_26  and  N2_28 
REMARK    8  A    between atoms: N2_28  and  C18_30 
ROOT
HETATM    1  N1  UNL     1      20.330  21.945  60.782  1.00  0.00    -0.324 N 
ATOM      2  H1  UNL     1      19.384  22.034  60.411  1.00  0.00     0.165 HD
HETATM    3  C3  UNL     1      21.397  22.679  60.213  1.00  0.00     0.361 C 
HETATM    4  O1  UNL     1      22.544  22.553  60.685  1.00  0.00    -0.238 OA
ENDROOT
BRANCH   3   5
HETATM    5  O2  UNL     1      21.238  23.545  59.143  1.00  0.00    -0.298 OA
BRANCH   5   6
HETATM    6  C4  UNL     1      20.633  23.158  57.902  1.00  0.00     0.138 C 
HETATM    7  C5  UNL     1      19.184  23.410  58.003  1.00  0.00     0.038 C 
HETATM    8  C6  UNL     1      18.276  22.295  57.610  1.00  0.00     0.071 C 
HETATM    9  C7  UNL     1      18.878  21.702  56.319  1.00  0.00     0.166 C 
HETATM   10  O4  UNL     1      17.932  20.945  55.745  1.00  0.00    -0.347 OA
HETATM   11  C14 UNL     1      20.079  20.938  56.836  1.00  0.00     0.054 C 
HETATM   12  C8  UNL     1      18.246  19.860  54.999  1.00  0.00     0.158 C 
HETATM   13  C12 UNL     1      19.556  19.200  55.238  1.00  0.00     0.036 C 
HETATM   14  C13 UNL     1      20.660  20.103  55.724  1.00  0.00     0.013 C 
HETATM   15  C15 UNL     1      21.085  21.803  57.482  1.00  0.00     0.020 C 
HETATM   16  C16 UNL     1      22.354  21.903  56.620  1.00  0.00     0.013 C 
BRANCH   9  17
HETATM   17  O3  UNL     1      19.276  22.828  55.587  1.00  0.00    -0.365 OA
ATOM     18  H3  UNL     1      19.438  22.486  54.715  1.00  0.00     0.213 HD
ENDBRANCH   9  17
BRANCH  12  19
HETATM   19  C9  UNL     1      17.946  20.050  53.512  1.00  0.00     0.077 C 
HETATM   20  C10 UNL     1      19.187  19.757  52.682  1.00  0.00     0.048 C 
HETATM   21  C11 UNL     1      16.840  19.198  52.997  1.00  0.00     0.048 C 
BRANCH  19  22
HETATM   22  O5  UNL     1      17.607  21.380  53.256  1.00  0.00    -0.388 OA
ATOM     23  H5  UNL     1      16.675  21.452  53.086  1.00  0.00     0.210 HD
ENDBRANCH  19  22
ENDBRANCH  12  19
ENDBRANCH   5   6
ENDBRANCH   3   5
BRANCH   1  24
HETATM   24  C2  UNL     1      20.598  21.066  61.896  1.00  0.00     0.174 C 
HETATM   25  C1  UNL     1      19.431  21.214  62.874  1.00  0.00     0.042 C 
BRANCH  24  26
HETATM   26  C17 UNL     1      20.723  19.645  61.453  1.00  0.00     0.240 C 
HETATM   27  O6  UNL     1      21.317  18.818  62.175  1.00  0.00    -0.271 OA
HETATM   28  N2  UNL     1      20.178  19.204  60.219  1.00  0.00    -0.350 N 
ATOM     29  H2  UNL     1      19.697  19.894  59.643  1.00  0.00     0.163 HD
BRANCH  28  30
HETATM   30  C18 UNL     1      20.252  17.859  59.720  1.00  0.00     0.034 C 
HETATM   31  C19 UNL     1      19.881  16.815  60.737  1.00  0.00     0.035 C 
HETATM   32  C20 UNL     1      19.940  15.451  60.101  1.00  0.00    -0.012 C 
HETATM   33  C21 UNL     1      21.333  15.180  59.583  1.00  0.00     0.009 C 
HETATM   34  C25 UNL     1      18.926  15.328  59.003  1.00  0.00     0.009 C 
HETATM   35  C22 UNL     1      21.635  16.200  58.514  1.00  0.00    -0.012 C 
HETATM   36  C23 UNL     1      20.658  16.087  57.386  1.00  0.00     0.009 C 
HETATM   37  C27 UNL     1      21.631  17.567  59.157  1.00  0.00     0.035 C 
HETATM   38  C24 UNL     1      19.282  16.356  57.950  1.00  0.00    -0.012 C 
HETATM   39  C26 UNL     1      19.275  17.713  58.569  1.00  0.00     0.035 C 
ENDBRANCH  28  30
ENDBRANCH  24  26
ENDBRANCH   1  24
TORSDOF 8
ENDMDL
MODEL 3
REMARK VINA RESULT: -8.060111962      2.678      5.705
REMARK  8 active torsions:
REMARK  status: ('A' for Active; 'I' for Inactive)
REMARK    1  A    between atoms: C2_2  and  N1_3 
REMARK    2  A    between atoms: C2_2  and  C17_26 
REMARK       I    between atoms: N1_3  and  C3_5 
REMARK    3  A    between atoms: C3_5  and  O2_7 
REMARK    4  A    between atoms: O2_7  and  C4_8 
REMARK    5  A    between atoms: C7_11  and  O3_12 
REMARK    6  A    between atoms: C8_15  and  C9_16 
REMARK    7  A    between atoms: C9_16  and  O5_19 
REMARK       I    between atoms: C17_26  and  N2_28 
REMARK    8  A    between atoms: N2_28  and  C18_30 
ROOT
HETATM    1  N1  UNL     1      20.788  23.958  57.467  1.00  0.00    -0.324 N 
ATOM      2  H1  UNL     1      19.783  24.083  57.343  1.00  0.00     0.165 HD
HETATM    3  C3  UNL     1      21.590  23.492  56.399  1.00  0.00     0.361 C 
HETATM    4  O1  UNL     1      22.815  23.346  56.575  1.00  0.00    -0.238 OA
ENDROOT
BRANCH   3   5
HETATM    5  O2  UNL     1      21.082  23.182  55.147  1.00  0.00    -0.298 OA
BRANCH   5   6
HETATM    6  C4  UNL     1      20.737  21.850  54.747  1.00  0.00     0.138 C 
HETATM    7  C5  UNL     1      19.885  21.941  53.547  1.00  0.00     0.038 C 
HETATM    8  C6  UNL     1      18.613  21.164  53.563  1.00  0.00     0.071 C 
HETATM    9  C7  UNL     1      18.969  19.790  54.165  1.00  0.00     0.166 C 
HETATM   10  O4  UNL     1      17.961  18.953  53.882  1.00  0.00    -0.347 OA
HETATM   11  C14 UNL     1      19.140  20.108  55.636  1.00  0.00     0.054 C 
HETATM   12  C8  UNL     1      17.642  17.921  54.701  1.00  0.00     0.158 C 
HETATM   13  C12 UNL     1      18.031  18.016  56.132  1.00  0.00     0.036 C 
HETATM   14  C13 UNL     1      19.271  18.825  56.416  1.00  0.00     0.013 C 
HETATM   15  C15 UNL     1      20.243  21.051  55.903  1.00  0.00     0.020 C 
HETATM   16  C16 UNL     1      21.413  20.339  56.603  1.00  0.00     0.013 C 
BRANCH   9  17
HETATM   17  O3  UNL     1      20.199  19.473  53.573  1.00  0.00    -0.365 OA
ATOM     18  H3  UNL     1      19.999  18.726  53.021  1.00  0.00     0.213 HD
ENDBRANCH   9  17
BRANCH  12  19
HETATM   19  C9  UNL     1      17.962  16.555  54.093  1.00  0.00     0.077 C 
HETATM   20  C10 UNL     1      17.707  15.453  55.110  1.00  0.00     0.048 C 
HETATM   21  C11 UNL     1      17.183  16.235  52.866  1.00  0.00     0.048 C 
BRANCH  19  22
HETATM   22  O5  UNL     1      19.316  16.481  53.763  1.00  0.00    -0.388 OA
ATOM     23  H5  UNL     1      19.742  15.805  54.278  1.00  0.00     0.210 HD
ENDBRANCH  19  22
ENDBRANCH  12  19
ENDBRANCH   5   6
ENDBRANCH   3   5
BRANCH   1  24
HETATM   24  C2  UNL     1      21.411  24.252  58.736  1.00  0.00     0.174 C 
HETATM   25  C1  UNL     1      20.685  25.467  59.320  1.00  0.00     0.042 C 
BRANCH  24  26
HETATM   26  C17 UNL     1      21.315  23.094  59.674  1.00  0.00     0.240 C 
HETATM   27  O6  UNL     1      22.080  23.024  60.657  1.00  0.00    -0.271 OA
HETATM   28  N2  UNL     1      20.366  22.058  59.475  1.00  0.00    -0.350 N 
ATOM     29  H2  UNL     1      19.749  22.132  58.666  1.00  0.00     0.163 HD
BRANCH  28  30
HETATM   30  C18 UNL     1      20.207  20.912  60.327  1.00  0.00     0.034 C 
HETATM   31  C19 UNL     1      19.929  21.260  61.764  1.00  0.00     0.035 C 
HETATM   32  C20 UNL     1      19.729  19.996  62.558  1.00  0.00    -0.012 C 
HETATM   33  C21 UNL     1      20.964  19.131  62.477  1.00  0.00     0.009 C 
HETATM   34  C25 UNL     1      18.519  19.250  62.079  1.00  0.00     0.009 C 
HETATM   35  C22 UNL     1      21.161  18.742  61.033  1.00  0.00    -0.012 C 
HETATM   36  C23 UNL     1      19.984  17.969  60.528  1.00  0.00     0.009 C 
HETATM   37  C27 UNL     1      21.419  20.001  60.240  1.00  0.00     0.035 C 
HETATM   38  C24 UNL     1      18.773  18.867  60.636  1.00  0.00    -0.012 C 
HETATM   39  C26 UNL     1      19.021  20.103  59.838  1.00  0.00     0.035 C 
ENDBRANCH  28  30
ENDBRANCH  24  26
ENDBRANCH   1  24
TORSDOF 8
ENDMDL
MODEL 4
REMARK VINA RESULT: -8.048163660      2.445      5.425
REMARK  8 active torsions:
REMARK  status: ('A' for Active; 'I' for Inactive)
REMARK    1  A    between atoms: C2_2  and  N1_3 
REMARK    2  A    between atoms: C2_2  and  C17_26 
REMARK       I    between atoms: N1_3  and  C3_5 
REMARK    3  A    between atoms: C3_5  and  O2_7 
REMARK    4  A    between atoms: O2_7  and  C4_8 
REMARK    5  A    between atoms: C7_11  and  O3_12 
REMARK    6  A    between atoms: C8_15  and  C9_16 
REMARK    7  A    between atoms: C9_16  and  O5_19 
REMARK       I    between atoms: C17_26  and  N2_28 
REMARK    8  A    between atoms: N2_28  and  C18_30 
ROOT
HETATM    1  N1  UNL     1      20.695  23.719  56.815  1.00  0.00    -0.324 N 
ATOM      2  H1  UNL     1      19.908  24.330  56.599  1.00  0.00     0.165 HD
HETATM    3  C3  UNL     1      21.232  22.864  55.824  1.00  0.00     0.361 C 
HETATM    4  O1  UNL     1      22.194  22.126  56.112  1.00  0.00    -0.238 OA
ENDROOT
BRANCH   3   5
HETATM    5  O2  UNL     1      20.740  22.797  54.530  1.00  0.00    -0.298 OA
BRANCH   5   6
HETATM    6  C4  UNL     1      19.648  21.950  54.147  1.00  0.00     0.138 C 
HETATM    7  C5  UNL     1      19.080  21.358  55.372  1.00  0.00     0.038 C 
HETATM    8  C6  UNL     1      18.879  19.881  55.376  1.00  0.00     0.071 C 
HETATM    9  C7  UNL     1      18.288  19.536  53.994  1.00  0.00     0.166 C 
HETATM   10  O4  UNL     1      17.773  18.300  54.074  1.00  0.00    -0.347 OA
HETATM   11  C14 UNL     1      19.487  19.669  53.080  1.00  0.00     0.054 C 
HETATM   12  C8  UNL     1      17.729  17.478  52.999  1.00  0.00     0.158 C 
HETATM   13  C12 UNL     1      18.697  17.713  51.896  1.00  0.00     0.036 C 
HETATM   14  C13 UNL     1      19.136  19.142  51.711  1.00  0.00     0.013 C 
HETATM   15  C15 UNL     1      20.038  21.037  53.038  1.00  0.00     0.020 C 
HETATM   16  C16 UNL     1      19.763  21.697  51.677  1.00  0.00     0.013 C 
BRANCH   9  17
HETATM   17  O3  UNL     1      17.361  20.560  53.761  1.00  0.00    -0.365 OA
ATOM     18  H3  UNL     1      16.630  20.338  54.326  1.00  0.00     0.213 HD
ENDBRANCH   9  17
BRANCH  12  19
HETATM   19  C9  UNL     1      16.307  17.233  52.492  1.00  0.00     0.077 C 
HETATM   20  C10 UNL     1      16.334  16.807  51.032  1.00  0.00     0.048 C 
HETATM   21  C11 UNL     1      15.555  16.201  53.256  1.00  0.00     0.048 C 
BRANCH  19  22
HETATM   22  O5  UNL     1      15.568  18.416  52.543  1.00  0.00    -0.388 OA
ATOM     23  H5  UNL     1      14.664  18.227  52.767  1.00  0.00     0.210 HD
ENDBRANCH  19  22
ENDBRANCH  12  19
ENDBRANCH   5   6
ENDBRANCH   3   5
BRANCH   1  24
HETATM   24  C2  UNL     1      21.278  23.715  58.136  1.00  0.00     0.174 C 
HETATM   25  C1  UNL     1      21.075  25.116  58.719  1.00  0.00     0.042 C 
BRANCH  24  26
HETATM   26  C17 UNL     1      20.633  22.693  59.014  1.00  0.00     0.240 C 
HETATM   27  O6  UNL     1      19.730  23.033  59.805  1.00  0.00    -0.271 OA
HETATM   28  N2  UNL     1      21.026  21.330  58.973  1.00  0.00    -0.350 N 
ATOM     29  H2  UNL     1      21.766  21.072  58.321  1.00  0.00     0.163 HD
BRANCH  28  30
HETATM   30  C18 UNL     1      20.459  20.286  59.781  1.00  0.00     0.034 C 
HETATM   31  C19 UNL     1      19.095  19.842  59.328  1.00  0.00     0.035 C 
HETATM   32  C20 UNL     1      18.616  18.715  60.204  1.00  0.00    -0.012 C 
HETATM   33  C21 UNL     1      18.548  19.170  61.643  1.00  0.00     0.009 C 
HETATM   34  C25 UNL     1      19.502  17.513  60.062  1.00  0.00     0.009 C 
HETATM   35  C22 UNL     1      19.945  19.530  62.080  1.00  0.00    -0.012 C 
HETATM   36  C23 UNL     1      20.853  18.345  61.979  1.00  0.00     0.009 C 
HETATM   37  C27 UNL     1      20.412  20.697  61.241  1.00  0.00     0.035 C 
HETATM   38  C24 UNL     1      20.884  17.920  60.528  1.00  0.00    -0.012 C 
HETATM   39  C26 UNL     1      21.361  19.068  59.704  1.00  0.00     0.035 C 
ENDBRANCH  28  30
ENDBRANCH  24  26
ENDBRANCH   1  24
TORSDOF 8
ENDMDL
MODEL 5
REMARK VINA RESULT: -8.015011531      2.418      5.475
REMARK  8 active torsions:
REMARK  status: ('A' for Active; 'I' for Inactive)
REMARK    1  A    between atoms: C2_2  and  N1_3 
REMARK    2  A    between atoms: C2_2  and  C17_26 
REMARK       I    between atoms: N1_3  and  C3_5 
REMARK    3  A    between atoms: C3_5  and  O2_7 
REMARK    4  A    between atoms: O2_7  and  C4_8 
REMARK    5  A    between atoms: C7_11  and  O3_12 
REMARK    6  A    between atoms: C8_15  and  C9_16 
REMARK    7  A    between atoms: C9_16  and  O5_19 
REMARK       I    between atoms: C17_26  and  N2_28 
REMARK    8  A    between atoms: N2_28  and  C18_30 
ROOT
HETATM    1  N1  UNL     1      20.690  23.671  56.921  1.00  0.00    -0.324 N 
ATOM      2  H1  UNL     1      19.893  24.292  56.779  1.00  0.00     0.165 HD
HETATM    3  C3  UNL     1      21.176  22.875  55.857  1.00  0.00     0.361 C 
HETATM    4  O1  UNL     1      22.152  22.124  56.054  1.00  0.00    -0.238 OA
ENDROOT
BRANCH   3   5
HETATM    5  O2  UNL     1      20.620  22.881  54.588  1.00  0.00    -0.298 OA
BRANCH   5   6
HETATM    6  C4  UNL     1      19.553  22.009  54.193  1.00  0.00     0.138 C 
HETATM    7  C5  UNL     1      18.976  21.413  55.412  1.00  0.00     0.038 C 
HETATM    8  C6  UNL     1      18.806  19.933  55.423  1.00  0.00     0.071 C 
HETATM    9  C7  UNL     1      18.245  19.566  54.034  1.00  0.00     0.166 C 
HETATM   10  O4  UNL     1      17.755  18.321  54.114  1.00  0.00    -0.347 OA
HETATM   11  C14 UNL     1      19.457  19.718  53.138  1.00  0.00     0.054 C 
HETATM   12  C8  UNL     1      17.746  17.490  53.044  1.00  0.00     0.158 C 
HETATM   13  C12 UNL     1      18.727  17.738  51.956  1.00  0.00     0.036 C 
HETATM   14  C13 UNL     1      19.140  19.175  51.768  1.00  0.00     0.013 C 
HETATM   15  C15 UNL     1      19.981  21.097  53.096  1.00  0.00     0.020 C 
HETATM   16  C16 UNL     1      19.714  21.741  51.726  1.00  0.00     0.013 C 
BRANCH   9  17
HETATM   17  O3  UNL     1      17.302  20.570  53.778  1.00  0.00    -0.365 OA
ATOM     18  H3  UNL     1      16.524  20.271  54.234  1.00  0.00     0.213 HD
ENDBRANCH   9  17
BRANCH  12  19
HETATM   19  C9  UNL     1      16.338  17.213  52.515  1.00  0.00     0.077 C 
HETATM   20  C10 UNL     1      16.401  16.746  51.069  1.00  0.00     0.048 C 
HETATM   21  C11 UNL     1      15.583  16.194  53.293  1.00  0.00     0.048 C 
BRANCH  19  22
HETATM   22  O5  UNL     1      15.583  18.387  52.517  1.00  0.00    -0.388 OA
ATOM     23  H5  UNL     1      16.060  19.083  52.081  1.00  0.00     0.210 HD
ENDBRANCH  19  22
ENDBRANCH  12  19
ENDBRANCH   5   6
ENDBRANCH   3   5
BRANCH   1  24
HETATM   24  C2  UNL     1      21.337  23.593  58.209  1.00  0.00     0.174 C 
HETATM   25  C1  UNL     1      21.188  24.965  58.869  1.00  0.00     0.042 C 
BRANCH  24  26
HETATM   26  C17 UNL     1      20.719  22.538  59.067  1.00  0.00     0.240 C 
HETATM   27  O6  UNL     1      19.871  22.853  59.926  1.00  0.00    -0.271 OA
HETATM   28  N2  UNL     1      21.076  21.171  58.932  1.00  0.00    -0.350 N 
ATOM     29  H2  UNL     1      21.772  20.933  58.226  1.00  0.00     0.163 HD
BRANCH  28  30
HETATM   30  C18 UNL     1      20.532  20.097  59.715  1.00  0.00     0.034 C 
HETATM   31  C19 UNL     1      20.297  20.457  61.156  1.00  0.00     0.035 C 
HETATM   32  C20 UNL     1      19.679  19.285  61.873  1.00  0.00    -0.012 C 
HETATM   33  C21 UNL     1      20.595  18.087  61.794  1.00  0.00     0.009 C 
HETATM   34  C25 UNL     1      18.327  18.965  61.308  1.00  0.00     0.009 C 
HETATM   35  C22 UNL     1      20.742  17.712  60.340  1.00  0.00    -0.012 C 
HETATM   36  C23 UNL     1      19.413  17.358  59.749  1.00  0.00     0.009 C 
HETATM   37  C27 UNL     1      21.412  18.863  59.626  1.00  0.00     0.035 C 
HETATM   38  C24 UNL     1      18.529  18.579  59.858  1.00  0.00    -0.012 C 
HETATM   39  C26 UNL     1      19.184  19.710  59.137  1.00  0.00     0.035 C 
ENDBRANCH  28  30
ENDBRANCH  24  26
ENDBRANCH   1  24
TORSDOF 8
ENDMDL
