MODEL 1
REMARK VINA RESULT: -7.604146207      0.000      0.000
REMARK  9 active torsions:
REMARK  status: ('A' for Active; 'I' for Inactive)
REMARK    1  A    between atoms: C2_2  and  C3_3 
REMARK    2  A    between atoms: C3_3  and  C4_4 
REMARK    3  A    between atoms: C4_4  and  C5_5 
REMARK       I    between atoms: C5_5  and  N1_7 
REMARK    4  A    between atoms: N1_7  and  C6_9 
REMARK    5  A    between atoms: C7_10  and  O2_11 
REMARK    6  A    between atoms: C8_13  and  O3_14 
REMARK    7  A    between atoms: C17_25  and  C18_26 
REMARK    8  A    between atoms: C18_26  and  C19_28 
REMARK    9  A    between atoms: C19_28  and  O6_29 
ROOT
HETATM    1  C6  UNL     1      17.653  14.305  57.220  1.00  0.00     0.120 C 
HETATM    2  C7  UNL     1      18.242  14.145  55.861  1.00  0.00     0.170 C 
HETATM    3  C8  UNL     1      19.066  15.345  55.550  1.00  0.00     0.154 C 
HETATM    4  C9  UNL     1      19.092  16.366  56.659  1.00  0.00     0.033 C 
HETATM    5  C10 UNL     1      19.854  17.538  56.103  1.00  0.00     0.086 C 
HETATM    6  C11 UNL     1      19.291  18.799  56.627  1.00  0.00     0.127 C 
HETATM    7  O4  UNL     1      19.095  19.669  55.824  1.00  0.00    -0.298 OA
HETATM    8  C12 UNL     1      18.941  19.106  58.028  1.00  0.00     0.083 C 
HETATM    9  C13 UNL     1      19.738  18.163  58.953  1.00  0.00     0.002 C 
HETATM   10  C14 UNL     1      20.035  18.926  60.174  1.00  0.00    -0.001 C 
HETATM   11  C15 UNL     1      21.477  18.719  60.655  1.00  0.00     0.006 C 
HETATM   12  C16 UNL     1      21.429  18.989  62.140  1.00  0.00     0.013 C 
HETATM   13  C17 UNL     1      19.981  19.260  62.486  1.00  0.00     0.066 C 
HETATM   14  C20 UNL     1      19.253  18.554  61.390  1.00  0.00    -0.030 C 
HETATM   15  C21 UNL     1      17.792  18.880  61.299  1.00  0.00     0.016 C 
HETATM   16  C22 UNL     1      19.495  17.061  61.559  1.00  0.00     0.011 C 
HETATM   17  C23 UNL     1      19.002  16.240  60.418  1.00  0.00     0.006 C 
HETATM   18  C24 UNL     1      19.045  16.852  59.063  1.00  0.00    -0.001 C 
HETATM   19  C25 UNL     1      19.511  15.853  57.978  1.00  0.00    -0.028 C 
HETATM   20  C26 UNL     1      20.962  15.541  58.118  1.00  0.00     0.016 C 
HETATM   21  C27 UNL     1      18.749  14.553  58.224  1.00  0.00     0.016 C 
HETATM   22  C28 UNL     1      19.623  13.349  58.332  1.00  0.00     0.013 C 
ENDROOT
BRANCH   1  23
HETATM   23  N1  UNL     1      16.955  13.096  57.630  1.00  0.00    -0.353 N 
HETATM   24  C5  UNL     1      15.518  13.023  57.657  1.00  0.00     0.217 C 
HETATM   25  O1  UNL     1      14.902  14.056  57.308  1.00  0.00    -0.274 OA
ATOM     26  H1  UNL     1      17.498  12.278  57.906  1.00  0.00     0.163 HD
BRANCH  24  27
HETATM   27  C4  UNL     1      14.823  11.795  58.074  1.00  0.00     0.103 C 
BRANCH  27  28
HETATM   28  C3  UNL     1      13.929  11.916  59.249  1.00  0.00     0.009 C 
BRANCH  28  29
HETATM   29  C2  UNL     1      14.571  11.621  60.580  1.00  0.00    -0.004 C 
HETATM   30  C1  UNL     1      13.475  11.232  61.556  1.00  0.00     0.005 C 
ENDBRANCH  28  29
ENDBRANCH  27  28
ENDBRANCH  24  27
ENDBRANCH   1  23
BRANCH   2  31
HETATM   31  O2  UNL     1      17.167  14.012  54.944  1.00  0.00    -0.391 OA
ATOM     32  H2  UNL     1      16.406  14.425  55.335  1.00  0.00     0.210 HD
ENDBRANCH   2  31
BRANCH   3  33
HETATM   33  O3  UNL     1      20.370  15.002  55.140  1.00  0.00    -0.393 OA
ATOM     34  H3  UNL     1      20.450  14.965  54.194  1.00  0.00     0.210 HD
ENDBRANCH   3  33
BRANCH  13  35
HETATM   35  C18 UNL     1      19.657  20.693  62.609  1.00  0.00     0.154 C 
HETATM   36  O5  UNL     1      18.661  21.121  63.166  1.00  0.00    -0.295 OA
BRANCH  35  37
HETATM   37  C19 UNL     1      20.595  21.682  62.020  1.00  0.00     0.242 C 
BRANCH  37  38
HETATM   38  O6  UNL     1      20.538  22.909  62.719  1.00  0.00    -0.394 OA
ATOM     39  H6  UNL     1      21.408  23.270  62.841  1.00  0.00     0.209 HD
ENDBRANCH  37  38
ENDBRANCH  35  37
ENDBRANCH  13  35
TORSDOF 9
ENDMDL
MODEL 2
REMARK VINA RESULT: -7.592141374      1.857      2.738
REMARK  9 active torsions:
REMARK  status: ('A' for Active; 'I' for Inactive)
REMARK    1  A    between atoms: C2_2  and  C3_3 
REMARK    2  A    between atoms: C3_3  and  C4_4 
REMARK    3  A    between atoms: C4_4  and  C5_5 
REMARK       I    between atoms: C5_5  and  N1_7 
REMARK    4  A    between atoms: N1_7  and  C6_9 
REMARK    5  A    between atoms: C7_10  and  O2_11 
REMARK    6  A    between atoms: C8_13  and  O3_14 
REMARK    7  A    between atoms: C17_25  and  C18_26 
REMARK    8  A    between atoms: C18_26  and  C19_28 
REMARK    9  A    between atoms: C19_28  and  O6_29 
ROOT
HETATM    1  C6  UNL     1      16.467  12.455  59.267  1.00  0.00     0.120 C 
HETATM    2  C7  UNL     1      16.648  11.733  57.977  1.00  0.00     0.170 C 
HETATM    3  C8  UNL     1      17.335  12.636  57.013  1.00  0.00     0.154 C 
HETATM    4  C9  UNL     1      17.660  13.994  57.581  1.00  0.00     0.033 C 
HETATM    5  C10 UNL     1      18.219  14.784  56.430  1.00  0.00     0.086 C 
HETATM    6  C11 UNL     1      17.811  16.199  56.545  1.00  0.00     0.127 C 
HETATM    7  O4  UNL     1      17.384  16.714  55.548  1.00  0.00    -0.298 OA
HETATM    8  C12 UNL     1      17.868  17.049  57.751  1.00  0.00     0.083 C 
HETATM    9  C13 UNL     1      18.907  16.454  58.724  1.00  0.00     0.002 C 
HETATM   10  C14 UNL     1      19.527  17.589  59.420  1.00  0.00    -0.001 C 
HETATM   11  C15 UNL     1      21.050  17.439  59.543  1.00  0.00     0.006 C 
HETATM   12  C16 UNL     1      21.420  18.255  60.757  1.00  0.00     0.013 C 
HETATM   13  C17 UNL     1      20.127  18.781  61.340  1.00  0.00     0.066 C 
HETATM   14  C20 UNL     1      19.127  17.787  60.845  1.00  0.00    -0.030 C 
HETATM   15  C21 UNL     1      17.696  18.199  61.025  1.00  0.00     0.016 C 
HETATM   16  C22 UNL     1      19.427  16.455  61.516  1.00  0.00     0.011 C 
HETATM   17  C23 UNL     1      18.641  15.316  60.964  1.00  0.00     0.006 C 
HETATM   18  C24 UNL     1      18.291  15.359  59.519  1.00  0.00    -0.001 C 
HETATM   19  C25 UNL     1      18.443  13.981  58.833  1.00  0.00    -0.028 C 
HETATM   20  C26 UNL     1      19.878  13.604  58.694  1.00  0.00     0.016 C 
HETATM   21  C27 UNL     1      17.799  12.956  59.762  1.00  0.00     0.016 C 
HETATM   22  C28 UNL     1      18.684  11.803  60.099  1.00  0.00     0.013 C 
ENDROOT
BRANCH   1  23
HETATM   23  N1  UNL     1      15.929  11.570  60.288  1.00  0.00    -0.353 N 
HETATM   24  C5  UNL     1      14.514  11.455  60.524  1.00  0.00     0.217 C 
HETATM   25  O1  UNL     1      13.772  12.159  59.802  1.00  0.00    -0.274 OA
ATOM     26  H1  UNL     1      16.572  11.014  60.852  1.00  0.00     0.163 HD
BRANCH  24  27
HETATM   27  C4  UNL     1      13.982  10.555  61.560  1.00  0.00     0.103 C 
BRANCH  27  28
HETATM   28  C3  UNL     1      13.276  11.203  62.689  1.00  0.00     0.009 C 
BRANCH  28  29
HETATM   29  C2  UNL     1      13.775  10.829  64.062  1.00  0.00    -0.004 C 
HETATM   30  C1  UNL     1      12.989  11.630  65.084  1.00  0.00     0.005 C 
ENDBRANCH  28  29
ENDBRANCH  27  28
ENDBRANCH  24  27
ENDBRANCH   1  23
BRANCH   2  31
HETATM   31  O2  UNL     1      15.360  11.370  57.507  1.00  0.00    -0.391 OA
ATOM     32  H2  UNL     1      15.386  10.445  57.289  1.00  0.00     0.210 HD
ENDBRANCH   2  31
BRANCH   3  33
HETATM   33  O3  UNL     1      18.474  12.035  56.440  1.00  0.00    -0.393 OA
ATOM     34  H3  UNL     1      18.279  11.186  56.063  1.00  0.00     0.210 HD
ENDBRANCH   3  33
BRANCH  13  35
HETATM   35  C18 UNL     1      19.832  20.178  60.970  1.00  0.00     0.154 C 
HETATM   36  O5  UNL     1      19.655  20.556  59.826  1.00  0.00    -0.295 OA
BRANCH  35  37
HETATM   37  C19 UNL     1      19.745  21.190  62.052  1.00  0.00     0.242 C 
BRANCH  37  38
HETATM   38  O6  UNL     1      19.571  20.569  63.310  1.00  0.00    -0.394 OA
ATOM     39  H6  UNL     1      19.180  21.171  63.933  1.00  0.00     0.209 HD
ENDBRANCH  37  38
ENDBRANCH  35  37
ENDBRANCH  13  35
TORSDOF 9
ENDMDL
MODEL 3
REMARK VINA RESULT: -7.370275944      1.668      2.183
REMARK  9 active torsions:
REMARK  status: ('A' for Active; 'I' for Inactive)
REMARK    1  A    between atoms: C2_2  and  C3_3 
REMARK    2  A    between atoms: C3_3  and  C4_4 
REMARK    3  A    between atoms: C4_4  and  C5_5 
REMARK       I    between atoms: C5_5  and  N1_7 
REMARK    4  A    between atoms: N1_7  and  C6_9 
REMARK    5  A    between atoms: C7_10  and  O2_11 
REMARK    6  A    between atoms: C8_13  and  O3_14 
REMARK    7  A    between atoms: C17_25  and  C18_26 
REMARK    8  A    between atoms: C18_26  and  C19_28 
REMARK    9  A    between atoms: C19_28  and  O6_29 
ROOT
HETATM    1  C6  UNL     1      16.819  13.016  58.743  1.00  0.00     0.120 C 
HETATM    2  C7  UNL     1      17.034  12.421  57.394  1.00  0.00     0.170 C 
HETATM    3  C8  UNL     1      17.711  13.426  56.529  1.00  0.00     0.154 C 
HETATM    4  C9  UNL     1      17.996  14.732  57.226  1.00  0.00     0.033 C 
HETATM    5  C10 UNL     1      18.550  15.640  56.162  1.00  0.00     0.086 C 
HETATM    6  C11 UNL     1      18.106  17.027  56.402  1.00  0.00     0.127 C 
HETATM    7  O4  UNL     1      17.680  17.623  55.451  1.00  0.00    -0.298 OA
HETATM    8  C12 UNL     1      18.128  17.762  57.683  1.00  0.00     0.083 C 
HETATM    9  C13 UNL     1      19.169  17.102  58.612  1.00  0.00     0.002 C 
HETATM   10  C14 UNL     1      19.753  18.182  59.420  1.00  0.00    -0.001 C 
HETATM   11  C15 UNL     1      21.277  18.055  59.550  1.00  0.00     0.006 C 
HETATM   12  C16 UNL     1      21.612  18.763  60.840  1.00  0.00     0.013 C 
HETATM   13  C17 UNL     1      20.300  19.202  61.450  1.00  0.00     0.066 C 
HETATM   14  C20 UNL     1      19.330  18.236  60.851  1.00  0.00    -0.030 C 
HETATM   15  C21 UNL     1      17.887  18.596  61.047  1.00  0.00     0.016 C 
HETATM   16  C22 UNL     1      19.654  16.854  61.399  1.00  0.00     0.011 C 
HETATM   17  C23 UNL     1      18.903  15.754  60.732  1.00  0.00     0.006 C 
HETATM   18  C24 UNL     1      18.569  15.924  59.292  1.00  0.00    -0.001 C 
HETATM   19  C25 UNL     1      18.764  14.620  58.483  1.00  0.00    -0.028 C 
HETATM   20  C26 UNL     1      20.209  14.290  58.330  1.00  0.00     0.016 C 
HETATM   21  C27 UNL     1      18.133  13.498  59.303  1.00  0.00     0.016 C 
HETATM   22  C28 UNL     1      19.041  12.339  59.543  1.00  0.00     0.013 C 
ENDROOT
BRANCH   1  23
HETATM   23  N1  UNL     1      16.290  12.026  59.669  1.00  0.00    -0.353 N 
HETATM   24  C5  UNL     1      14.877  11.877  59.894  1.00  0.00     0.217 C 
HETATM   25  O1  UNL     1      14.128  12.645  59.249  1.00  0.00    -0.274 OA
ATOM     26  H1  UNL     1      16.939  11.421  60.173  1.00  0.00     0.163 HD
BRANCH  24  27
HETATM   27  C4  UNL     1      14.354  10.872  60.833  1.00  0.00     0.103 C 
BRANCH  27  28
HETATM   28  C3  UNL     1      15.361  10.146  61.641  1.00  0.00     0.009 C 
BRANCH  28  29
HETATM   29  C2  UNL     1      15.770   8.798  61.102  1.00  0.00    -0.004 C 
HETATM   30  C1  UNL     1      17.283   8.777  60.986  1.00  0.00     0.005 C 
ENDBRANCH  28  29
ENDBRANCH  27  28
ENDBRANCH  24  27
ENDBRANCH   1  23
BRANCH   2  31
HETATM   31  O2  UNL     1      15.761  12.074  56.873  1.00  0.00    -0.391 OA
ATOM     32  H2  UNL     1      15.788  12.218  55.934  1.00  0.00     0.210 HD
ENDBRANCH   2  31
BRANCH   3  33
HETATM   33  O3  UNL     1      18.871  12.908  55.920  1.00  0.00    -0.393 OA
ATOM     34  H3  UNL     1      19.612  13.496  56.003  1.00  0.00     0.210 HD
ENDBRANCH   3  33
BRANCH  13  35
HETATM   35  C18 UNL     1      19.976  20.620  61.209  1.00  0.00     0.154 C 
HETATM   36  O5  UNL     1      19.987  21.143  60.108  1.00  0.00    -0.295 OA
BRANCH  35  37
HETATM   37  C19 UNL     1      19.613  21.469  62.371  1.00  0.00     0.242 C 
BRANCH  37  38
HETATM   38  O6  UNL     1      19.608  20.712  63.565  1.00  0.00    -0.394 OA
ATOM     39  H6  UNL     1      20.487  20.628  63.916  1.00  0.00     0.209 HD
ENDBRANCH  37  38
ENDBRANCH  35  37
ENDBRANCH  13  35
TORSDOF 9
ENDMDL
MODEL 4
REMARK VINA RESULT: -7.335251755      2.919      8.554
REMARK  9 active torsions:
REMARK  status: ('A' for Active; 'I' for Inactive)
REMARK    1  A    between atoms: C2_2  and  C3_3 
REMARK    2  A    between atoms: C3_3  and  C4_4 
REMARK    3  A    between atoms: C4_4  and  C5_5 
REMARK       I    between atoms: C5_5  and  N1_7 
REMARK    4  A    between atoms: N1_7  and  C6_9 
REMARK    5  A    between atoms: C7_10  and  O2_11 
REMARK    6  A    between atoms: C8_13  and  O3_14 
REMARK    7  A    between atoms: C17_25  and  C18_26 
REMARK    8  A    between atoms: C18_26  and  C19_28 
REMARK    9  A    between atoms: C19_28  and  O6_29 
ROOT
HETATM    1  C6  UNL     1      18.772  15.147  60.233  1.00  0.00     0.120 C 
HETATM    2  C7  UNL     1      18.606  14.220  61.388  1.00  0.00     0.170 C 
HETATM    3  C8  UNL     1      17.654  13.142  61.005  1.00  0.00     0.154 C 
HETATM    4  C9  UNL     1      17.132  13.265  59.596  1.00  0.00     0.033 C 
HETATM    5  C10 UNL     1      16.103  12.177  59.456  1.00  0.00     0.086 C 
HETATM    6  C11 UNL     1      15.000  12.637  58.589  1.00  0.00     0.127 C 
HETATM    7  O4  UNL     1      13.887  12.429  58.987  1.00  0.00    -0.298 OA
HETATM    8  C12 UNL     1      15.114  13.327  57.288  1.00  0.00     0.083 C 
HETATM    9  C13 UNL     1      16.503  13.019  56.689  1.00  0.00     0.002 C 
HETATM   10  C14 UNL     1      16.327  12.967  55.231  1.00  0.00    -0.001 C 
HETATM   11  C15 UNL     1      17.082  11.793  54.593  1.00  0.00     0.006 C 
HETATM   12  C16 UNL     1      17.344  12.230  53.173  1.00  0.00     0.013 C 
HETATM   13  C17 UNL     1      16.818  13.643  53.047  1.00  0.00     0.066 C 
HETATM   14  C20 UNL     1      16.866  14.127  54.460  1.00  0.00    -0.030 C 
HETATM   15  C21 UNL     1      16.135  15.414  54.704  1.00  0.00     0.016 C 
HETATM   16  C22 UNL     1      18.329  14.215  54.871  1.00  0.00     0.011 C 
HETATM   17  C23 UNL     1      18.528  14.485  56.322  1.00  0.00     0.006 C 
HETATM   18  C24 UNL     1      17.521  13.935  57.269  1.00  0.00    -0.001 C 
HETATM   19  C25 UNL     1      18.168  13.353  58.547  1.00  0.00    -0.028 C 
HETATM   20  C26 UNL     1      18.901  12.089  58.255  1.00  0.00     0.016 C 
HETATM   21  C27 UNL     1      19.204  14.372  59.016  1.00  0.00     0.016 C 
HETATM   22  C28 UNL     1      20.564  13.797  59.234  1.00  0.00     0.013 C 
ENDROOT
BRANCH   1  23
HETATM   23  N1  UNL     1      19.801  16.139  60.505  1.00  0.00    -0.353 N 
HETATM   24  C5  UNL     1      19.658  17.511  60.098  1.00  0.00     0.217 C 
HETATM   25  O1  UNL     1      18.600  17.806  59.498  1.00  0.00    -0.274 OA
ATOM     26  H1  UNL     1      20.647  15.853  60.998  1.00  0.00     0.163 HD
BRANCH  24  27
HETATM   27  C4  UNL     1      20.707  18.505  60.379  1.00  0.00     0.103 C 
BRANCH  27  28
HETATM   28  C3  UNL     1      20.914  18.852  61.804  1.00  0.00     0.009 C 
BRANCH  28  29
HETATM   29  C2  UNL     1      19.673  19.263  62.555  1.00  0.00    -0.004 C 
HETATM   30  C1  UNL     1      19.796  20.736  62.899  1.00  0.00     0.005 C 
ENDBRANCH  28  29
ENDBRANCH  27  28
ENDBRANCH  24  27
ENDBRANCH   1  23
BRANCH   2  31
HETATM   31  O2  UNL     1      18.106  14.981  62.476  1.00  0.00    -0.391 OA
ATOM     32  H2  UNL     1      18.828  15.494  62.821  1.00  0.00     0.210 HD
ENDBRANCH   2  31
BRANCH   3  33
HETATM   33  O3  UNL     1      18.182  11.858  61.245  1.00  0.00    -0.393 OA
ATOM     34  H3  UNL     1      17.537  11.174  61.106  1.00  0.00     0.210 HD
ENDBRANCH   3  33
BRANCH  13  35
HETATM   35  C18 UNL     1      15.487  13.729  52.418  1.00  0.00     0.154 C 
HETATM   36  O5  UNL     1      14.790  14.729  52.434  1.00  0.00    -0.295 OA
BRANCH  35  37
HETATM   37  C19 UNL     1      14.957  12.530  51.723  1.00  0.00     0.242 C 
BRANCH  37  38
HETATM   38  O6  UNL     1      13.808  12.855  50.966  1.00  0.00    -0.394 OA
ATOM     39  H6  UNL     1      13.049  12.957  51.529  1.00  0.00     0.209 HD
ENDBRANCH  37  38
ENDBRANCH  35  37
ENDBRANCH  13  35
TORSDOF 9
ENDMDL
MODEL 5
REMARK VINA RESULT: -7.242329290      3.118      4.476
REMARK  9 active torsions:
REMARK  status: ('A' for Active; 'I' for Inactive)
REMARK    1  A    between atoms: C2_2  and  C3_3 
REMARK    2  A    between atoms: C3_3  and  C4_4 
REMARK    3  A    between atoms: C4_4  and  C5_5 
REMARK       I    between atoms: C5_5  and  N1_7 
REMARK    4  A    between atoms: N1_7  and  C6_9 
REMARK    5  A    between atoms: C7_10  and  O2_11 
REMARK    6  A    between atoms: C8_13  and  O3_14 
REMARK    7  A    between atoms: C17_25  and  C18_26 
REMARK    8  A    between atoms: C18_26  and  C19_28 
REMARK    9  A    between atoms: C19_28  and  O6_29 
ROOT
HETATM    1  C6  UNL     1      19.618  16.336  59.153  1.00  0.00     0.120 C 
HETATM    2  C7  UNL     1      19.546  15.632  57.842  1.00  0.00     0.170 C 
HETATM    3  C8  UNL     1      19.439  16.645  56.758  1.00  0.00     0.154 C 
HETATM    4  C9  UNL     1      19.438  18.069  57.255  1.00  0.00     0.033 C 
HETATM    5  C10 UNL     1      19.191  18.917  56.038  1.00  0.00     0.086 C 
HETATM    6  C11 UNL     1      18.375  20.092  56.401  1.00  0.00     0.127 C 
HETATM    7  O4  UNL     1      17.447  20.340  55.680  1.00  0.00    -0.298 OA
HETATM    8  C12 UNL     1      18.571  20.995  57.552  1.00  0.00     0.083 C 
HETATM    9  C13 UNL     1      20.041  20.892  58.013  1.00  0.00     0.002 C 
HETATM   10  C14 UNL     1      20.421  22.225  58.501  1.00  0.00    -0.001 C 
HETATM   11  C15 UNL     1      21.818  22.645  58.025  1.00  0.00     0.006 C 
HETATM   12  C16 UNL     1      22.297  23.631  59.063  1.00  0.00     0.013 C 
HETATM   13  C17 UNL     1      21.226  23.696  60.129  1.00  0.00     0.066 C 
HETATM   14  C20 UNL     1      20.548  22.373  59.981  1.00  0.00    -0.030 C 
HETATM   15  C21 UNL     1      19.248  22.252  60.720  1.00  0.00     0.016 C 
HETATM   16  C22 UNL     1      21.540  21.295  60.391  1.00  0.00     0.011 C 
HETATM   17  C23 UNL     1      21.075  19.910  60.098  1.00  0.00     0.006 C 
HETATM   18  C24 UNL     1      20.214  19.713  58.902  1.00  0.00    -0.001 C 
HETATM   19  C25 UNL     1      20.584  18.435  58.112  1.00  0.00    -0.028 C 
HETATM   20  C26 UNL     1      21.890  18.593  57.412  1.00  0.00     0.016 C 
HETATM   21  C27 UNL     1      20.759  17.321  59.140  1.00  0.00     0.016 C 
HETATM   22  C28 UNL     1      22.057  16.595  59.032  1.00  0.00     0.013 C 
ENDROOT
BRANCH   1  23
HETATM   23  N1  UNL     1      19.868  15.397  60.236  1.00  0.00    -0.353 N 
HETATM   24  C5  UNL     1      18.930  15.212  61.311  1.00  0.00     0.217 C 
HETATM   25  O1  UNL     1      17.887  15.904  61.264  1.00  0.00    -0.274 OA
ATOM     26  H1  UNL     1      20.731  14.854  60.232  1.00  0.00     0.163 HD
BRANCH  24  27
HETATM   27  C4  UNL     1      19.194  14.259  62.400  1.00  0.00     0.103 C 
BRANCH  27  28
HETATM   28  C3  UNL     1      20.497  13.556  62.353  1.00  0.00     0.009 C 
BRANCH  28  29
HETATM   29  C2  UNL     1      20.781  12.645  63.521  1.00  0.00    -0.004 C 
HETATM   30  C1  UNL     1      22.219  12.868  63.953  1.00  0.00     0.005 C 
ENDBRANCH  28  29
ENDBRANCH  27  28
ENDBRANCH  24  27
ENDBRANCH   1  23
BRANCH   2  31
HETATM   31  O2  UNL     1      18.403  14.792  57.872  1.00  0.00    -0.391 OA
ATOM     32  H2  UNL     1      18.707  13.894  57.815  1.00  0.00     0.210 HD
ENDBRANCH   2  31
BRANCH   3  33
HETATM   33  O3  UNL     1      20.409  16.455  55.754  1.00  0.00    -0.393 OA
ATOM     34  H3  UNL     1      21.129  17.070  55.831  1.00  0.00     0.210 HD
ENDBRANCH   3  33
BRANCH  13  35
HETATM   35  C18 UNL     1      20.329  24.859  60.000  1.00  0.00     0.154 C 
HETATM   36  O5  UNL     1      19.278  24.978  60.606  1.00  0.00    -0.295 OA
BRANCH  35  37
HETATM   37  C19 UNL     1      20.722  25.955  59.081  1.00  0.00     0.242 C 
BRANCH  37  38
HETATM   38  O6  UNL     1      19.620  26.793  58.796  1.00  0.00    -0.394 OA
ATOM     39  H6  UNL     1      19.908  27.612  58.411  1.00  0.00     0.209 HD
ENDBRANCH  37  38
ENDBRANCH  35  37
ENDBRANCH  13  35
TORSDOF 9
ENDMDL
