MODEL 1
REMARK VINA RESULT: -8.262086526      0.000      0.000
REMARK  10 active torsions:
REMARK  status: ('A' for Active; 'I' for Inactive)
REMARK    1  A    between atoms: C2_2  and  N1_3 
REMARK    2  A    between atoms: C2_2  and  C3_7 
REMARK    3  A    between atoms: C3_7  and  O2_9 
REMARK    4  A    between atoms: O2_9  and  C4_10 
REMARK    5  A    between atoms: C12_18  and  O3_19 
REMARK    6  A    between atoms: C16_24  and  C17_25 
REMARK    7  A    between atoms: C17_25  and  C19_27 
REMARK    8  A    between atoms: C19_27  and  C20_28 
REMARK    9  A    between atoms: C20_28  and  C21_29 
REMARK   10  A    between atoms: C27_37  and  O5_38 
ROOT
HETATM    1  C4  UNL     1      22.023  23.555  54.813  1.00  0.00     0.160 C 
HETATM    2  C5  UNL     1      20.580  23.490  54.305  1.00  0.00     0.036 C 
HETATM    3  C6  UNL     1      20.287  22.118  53.921  1.00  0.00     0.012 C 
HETATM    4  C7  UNL     1      19.679  21.127  54.769  1.00  0.00    -0.040 C 
HETATM    5  C8  UNL     1      19.731  19.865  53.850  1.00  0.00     0.015 C 
HETATM    6  C9  UNL     1      18.156  21.385  54.804  1.00  0.00     0.010 C 
HETATM    7  C10 UNL     1      17.750  20.031  55.389  1.00  0.00     0.008 C 
HETATM    8  C11 UNL     1      18.727  19.925  56.513  1.00  0.00     0.019 C 
HETATM    9  C12 UNL     1      19.034  18.602  57.032  1.00  0.00     0.123 C 
HETATM   10  C13 UNL     1      19.397  18.737  58.528  1.00  0.00     0.042 C 
HETATM   11  C14 UNL     1      20.593  19.521  58.815  1.00  0.00    -0.034 C 
HETATM   12  C15 UNL     1      21.865  18.838  58.243  1.00  0.00     0.016 C 
HETATM   13  C16 UNL     1      20.876  19.577  60.271  1.00  0.00    -0.002 C 
HETATM   14  C22 UNL     1      20.025  20.704  60.839  1.00  0.00     0.006 C 
HETATM   15  C23 UNL     1      19.919  21.644  59.690  1.00  0.00     0.006 C 
HETATM   16  C24 UNL     1      20.613  20.974  58.516  1.00  0.00    -0.001 C 
HETATM   17  C25 UNL     1      20.280  21.574  57.222  1.00  0.00    -0.002 C 
HETATM   18  C26 UNL     1      21.140  22.792  57.019  1.00  0.00     0.039 C 
HETATM   19  C27 UNL     1      22.224  22.640  55.986  1.00  0.00     0.148 C 
HETATM   20  C28 UNL     1      19.999  20.708  56.077  1.00  0.00     0.005 C 
ENDROOT
BRANCH   1  21
HETATM   21  O2  UNL     1      22.520  24.828  54.921  1.00  0.00    -0.312 OA
BRANCH  21  22
HETATM   22  C3  UNL     1      22.578  25.800  53.962  1.00  0.00     0.289 C 
HETATM   23  O1  UNL     1      23.197  25.481  52.947  1.00  0.00    -0.263 OA
BRANCH  22  24
HETATM   24  C2  UNL     1      21.924  27.116  54.188  1.00  0.00     0.278 C 
HETATM   25  C1  UNL     1      20.803  27.340  53.222  1.00  0.00     0.050 C 
BRANCH  24  26
HETATM   26  N1  UNL     1      22.911  28.191  54.111  1.00  0.00    -0.066 N 
ATOM     27  H13 UNL     1      22.465  29.105  54.033  1.00  0.00     0.275 HD
ATOM     28  H12 UNL     1      23.388  28.326  55.002  1.00  0.00     0.275 HD
ATOM     29  H11 UNL     1      23.573  28.031  53.351  1.00  0.00     0.275 HD
ENDBRANCH  24  26
ENDBRANCH  22  24
ENDBRANCH  21  22
ENDBRANCH   1  21
BRANCH  19  30
HETATM   30  O5  UNL     1      23.500  22.871  56.496  1.00  0.00    -0.393 OA
ATOM     31  H5  UNL     1      23.950  22.036  56.547  1.00  0.00     0.210 HD
ENDBRANCH  19  30
BRANCH   9  32
HETATM   32  O3  UNL     1      17.895  17.796  56.979  1.00  0.00    -0.395 OA
ATOM     33  H3  UNL     1      17.607  17.585  57.859  1.00  0.00     0.210 HD
ENDBRANCH   9  32
BRANCH  13  34
HETATM   34  C17 UNL     1      20.857  18.388  61.146  1.00  0.00    -0.010 C 
HETATM   35  C18 UNL     1      21.390  18.987  62.509  1.00  0.00     0.010 C 
BRANCH  34  36
HETATM   36  C19 UNL     1      19.549  17.802  61.534  1.00  0.00     0.037 C 
BRANCH  36  37
HETATM   37  C20 UNL     1      19.458  16.314  61.642  1.00  0.00     0.044 C 
BRANCH  37  38
HETATM   38  C21 UNL     1      18.494  15.545  60.923  1.00  0.00     0.250 C 
HETATM   39  N2  UNL     1      18.428  15.629  59.481  1.00  0.00    -0.058 NA
HETATM   40  O4  UNL     1      17.651  14.768  61.425  1.00  0.00    -0.272 OA
ENDBRANCH  37  38
ENDBRANCH  36  37
ENDBRANCH  34  36
ENDBRANCH  13  34
TORSDOF 10
ENDMDL
MODEL 2
REMARK VINA RESULT: -8.171281861      2.560      4.418
REMARK  10 active torsions:
REMARK  status: ('A' for Active; 'I' for Inactive)
REMARK    1  A    between atoms: C2_2  and  N1_3 
REMARK    2  A    between atoms: C2_2  and  C3_7 
REMARK    3  A    between atoms: C3_7  and  O2_9 
REMARK    4  A    between atoms: O2_9  and  C4_10 
REMARK    5  A    between atoms: C12_18  and  O3_19 
REMARK    6  A    between atoms: C16_24  and  C17_25 
REMARK    7  A    between atoms: C17_25  and  C19_27 
REMARK    8  A    between atoms: C19_27  and  C20_28 
REMARK    9  A    between atoms: C20_28  and  C21_29 
REMARK   10  A    between atoms: C27_37  and  O5_38 
ROOT
HETATM    1  C4  UNL     1      20.766  22.880  56.409  1.00  0.00     0.160 C 
HETATM    2  C5  UNL     1      21.669  23.529  57.462  1.00  0.00     0.036 C 
HETATM    3  C6  UNL     1      20.872  23.798  58.649  1.00  0.00     0.012 C 
HETATM    4  C7  UNL     1      20.746  22.922  59.784  1.00  0.00    -0.040 C 
HETATM    5  C8  UNL     1      19.701  23.695  60.651  1.00  0.00     0.015 C 
HETATM    6  C9  UNL     1      22.007  23.077  60.662  1.00  0.00     0.010 C 
HETATM    7  C10 UNL     1      21.447  22.402  61.915  1.00  0.00     0.008 C 
HETATM    8  C11 UNL     1      20.849  21.175  61.309  1.00  0.00     0.019 C 
HETATM    9  C12 UNL     1      19.796  20.492  62.044  1.00  0.00     0.123 C 
HETATM   10  C13 UNL     1      19.854  18.988  61.694  1.00  0.00     0.042 C 
HETATM   11  C14 UNL     1      19.591  18.658  60.298  1.00  0.00    -0.034 C 
HETATM   12  C15 UNL     1      18.133  19.018  59.899  1.00  0.00     0.016 C 
HETATM   13  C16 UNL     1      19.645  17.194  60.061  1.00  0.00    -0.002 C 
HETATM   14  C22 UNL     1      21.110  16.839  59.847  1.00  0.00     0.006 C 
HETATM   15  C23 UNL     1      21.663  18.084  59.248  1.00  0.00     0.006 C 
HETATM   16  C24 UNL     1      20.535  19.101  59.243  1.00  0.00    -0.001 C 
HETATM   17  C25 UNL     1      20.992  20.479  59.046  1.00  0.00    -0.002 C 
HETATM   18  C26 UNL     1      21.193  20.714  57.572  1.00  0.00     0.039 C 
HETATM   19  C27 UNL     1      20.167  21.604  56.925  1.00  0.00     0.148 C 
HETATM   20  C28 UNL     1      20.424  21.551  59.861  1.00  0.00     0.005 C 
ENDROOT
BRANCH   1  21
HETATM   21  O2  UNL     1      21.309  22.852  55.150  1.00  0.00    -0.312 OA
BRANCH  21  22
HETATM   22  C3  UNL     1      21.064  23.694  54.102  1.00  0.00     0.289 C 
HETATM   23  O1  UNL     1      21.472  24.844  54.263  1.00  0.00    -0.263 OA
BRANCH  22  24
HETATM   24  C2  UNL     1      20.358  23.197  52.892  1.00  0.00     0.278 C 
HETATM   25  C1  UNL     1      20.094  24.307  51.922  1.00  0.00     0.050 C 
BRANCH  24  26
HETATM   26  N1  UNL     1      19.120  22.520  53.270  1.00  0.00    -0.066 N 
ATOM     27  H13 UNL     1      18.359  23.183  53.416  1.00  0.00     0.275 HD
ATOM     28  H12 UNL     1      18.724  21.998  52.488  1.00  0.00     0.275 HD
ATOM     29  H11 UNL     1      19.260  21.924  54.086  1.00  0.00     0.275 HD
ENDBRANCH  24  26
ENDBRANCH  22  24
ENDBRANCH  21  22
ENDBRANCH   1  21
BRANCH  19  30
HETATM   30  O5  UNL     1      19.498  20.988  55.868  1.00  0.00    -0.393 OA
ATOM     31  H5  UNL     1      18.809  20.446  56.235  1.00  0.00     0.210 HD
ENDBRANCH  19  30
BRANCH   9  32
HETATM   32  O3  UNL     1      20.039  20.583  63.416  1.00  0.00    -0.395 OA
ATOM     33  H3  UNL     1      19.805  19.766  63.839  1.00  0.00     0.210 HD
ENDBRANCH   9  32
BRANCH  13  34
HETATM   34  C17 UNL     1      18.967  16.207  60.926  1.00  0.00    -0.010 C 
HETATM   35  C18 UNL     1      18.402  15.184  59.861  1.00  0.00     0.010 C 
BRANCH  34  36
HETATM   36  C19 UNL     1      19.790  15.341  61.809  1.00  0.00     0.037 C 
BRANCH  36  37
HETATM   37  C20 UNL     1      19.088  14.278  62.589  1.00  0.00     0.044 C 
BRANCH  37  38
HETATM   38  C21 UNL     1      19.730  13.071  63.001  1.00  0.00     0.250 C 
HETATM   39  N2  UNL     1      21.149  13.063  63.282  1.00  0.00    -0.058 NA
HETATM   40  O4  UNL     1      19.178  11.958  63.148  1.00  0.00    -0.272 OA
ENDBRANCH  37  38
ENDBRANCH  36  37
ENDBRANCH  34  36
ENDBRANCH  13  34
TORSDOF 10
ENDMDL
MODEL 3
REMARK VINA RESULT: -8.144548391      2.331      4.238
REMARK  10 active torsions:
REMARK  status: ('A' for Active; 'I' for Inactive)
REMARK    1  A    between atoms: C2_2  and  N1_3 
REMARK    2  A    between atoms: C2_2  and  C3_7 
REMARK    3  A    between atoms: C3_7  and  O2_9 
REMARK    4  A    between atoms: O2_9  and  C4_10 
REMARK    5  A    between atoms: C12_18  and  O3_19 
REMARK    6  A    between atoms: C16_24  and  C17_25 
REMARK    7  A    between atoms: C17_25  and  C19_27 
REMARK    8  A    between atoms: C19_27  and  C20_28 
REMARK    9  A    between atoms: C20_28  and  C21_29 
REMARK   10  A    between atoms: C27_37  and  O5_38 
ROOT
HETATM    1  C4  UNL     1      20.871  22.997  56.535  1.00  0.00     0.160 C 
HETATM    2  C5  UNL     1      21.751  23.611  57.627  1.00  0.00     0.036 C 
HETATM    3  C6  UNL     1      20.926  23.855  58.800  1.00  0.00     0.012 C 
HETATM    4  C7  UNL     1      20.764  22.951  59.908  1.00  0.00    -0.040 C 
HETATM    5  C8  UNL     1      19.703  23.709  60.768  1.00  0.00     0.015 C 
HETATM    6  C9  UNL     1      22.004  23.072  60.821  1.00  0.00     0.010 C 
HETATM    7  C10 UNL     1      21.407  22.370  62.042  1.00  0.00     0.008 C 
HETATM    8  C11 UNL     1      20.816  21.164  61.389  1.00  0.00     0.019 C 
HETATM    9  C12 UNL     1      19.739  20.470  62.077  1.00  0.00     0.123 C 
HETATM   10  C13 UNL     1      19.795  18.975  61.690  1.00  0.00     0.042 C 
HETATM   11  C14 UNL     1      19.566  18.684  60.279  1.00  0.00    -0.034 C 
HETATM   12  C15 UNL     1      18.122  19.065  59.853  1.00  0.00     0.016 C 
HETATM   13  C16 UNL     1      19.616  17.226  60.005  1.00  0.00    -0.002 C 
HETATM   14  C22 UNL     1      21.083  16.866  59.820  1.00  0.00     0.006 C 
HETATM   15  C23 UNL     1      21.660  18.122  59.268  1.00  0.00     0.006 C 
HETATM   16  C24 UNL     1      20.540  19.147  59.261  1.00  0.00    -0.001 C 
HETATM   17  C25 UNL     1      21.012  20.526  59.112  1.00  0.00    -0.002 C 
HETATM   18  C26 UNL     1      21.253  20.797  57.651  1.00  0.00     0.039 C 
HETATM   19  C27 UNL     1      20.250  21.712  57.001  1.00  0.00     0.148 C 
HETATM   20  C28 UNL     1      20.430  21.581  59.940  1.00  0.00     0.005 C 
ENDROOT
BRANCH   1  21
HETATM   21  O2  UNL     1      21.447  22.997  55.290  1.00  0.00    -0.312 OA
BRANCH  21  22
HETATM   22  C3  UNL     1      21.255  23.884  54.267  1.00  0.00     0.289 C 
HETATM   23  O1  UNL     1      20.517  23.478  53.369  1.00  0.00    -0.263 OA
BRANCH  22  24
HETATM   24  C2  UNL     1      21.912  25.216  54.297  1.00  0.00     0.278 C 
HETATM   25  C1  UNL     1      21.296  26.150  53.303  1.00  0.00     0.050 C 
BRANCH  24  26
HETATM   26  N1  UNL     1      23.350  25.077  54.072  1.00  0.00    -0.066 N 
ATOM     27  H13 UNL     1      23.865  25.042  54.951  1.00  0.00     0.275 HD
ATOM     28  H12 UNL     1      23.584  24.151  53.715  1.00  0.00     0.275 HD
ATOM     29  H11 UNL     1      23.701  25.815  53.460  1.00  0.00     0.275 HD
ENDBRANCH  24  26
ENDBRANCH  22  24
ENDBRANCH  21  22
ENDBRANCH   1  21
BRANCH  19  30
HETATM   30  O5  UNL     1      19.604  21.129  55.912  1.00  0.00    -0.393 OA
ATOM     31  H5  UNL     1      18.762  20.807  56.210  1.00  0.00     0.210 HD
ENDBRANCH  19  30
BRANCH   9  32
HETATM   32  O3  UNL     1      19.947  20.523  63.457  1.00  0.00    -0.395 OA
ATOM     33  H3  UNL     1      19.784  19.669  63.841  1.00  0.00     0.210 HD
ENDBRANCH   9  32
BRANCH  13  34
HETATM   34  C17 UNL     1      18.909  16.222  60.826  1.00  0.00    -0.010 C 
HETATM   35  C18 UNL     1      18.463  15.172  59.732  1.00  0.00     0.010 C 
BRANCH  34  36
HETATM   36  C19 UNL     1      19.692  15.393  61.778  1.00  0.00     0.037 C 
BRANCH  36  37
HETATM   37  C20 UNL     1      18.947  14.400  62.610  1.00  0.00     0.044 C 
BRANCH  37  38
HETATM   38  C21 UNL     1      19.523  13.166  63.039  1.00  0.00     0.250 C 
HETATM   39  N2  UNL     1      20.959  13.040  63.163  1.00  0.00    -0.058 NA
HETATM   40  O4  UNL     1      18.895  12.124  63.331  1.00  0.00    -0.272 OA
ENDBRANCH  37  38
ENDBRANCH  36  37
ENDBRANCH  34  36
ENDBRANCH  13  34
TORSDOF 10
ENDMDL
MODEL 4
REMARK VINA RESULT: -8.073282915      2.055      8.733
REMARK  10 active torsions:
REMARK  status: ('A' for Active; 'I' for Inactive)
REMARK    1  A    between atoms: C2_2  and  N1_3 
REMARK    2  A    between atoms: C2_2  and  C3_7 
REMARK    3  A    between atoms: C3_7  and  O2_9 
REMARK    4  A    between atoms: O2_9  and  C4_10 
REMARK    5  A    between atoms: C12_18  and  O3_19 
REMARK    6  A    between atoms: C16_24  and  C17_25 
REMARK    7  A    between atoms: C17_25  and  C19_27 
REMARK    8  A    between atoms: C19_27  and  C20_28 
REMARK    9  A    between atoms: C20_28  and  C21_29 
REMARK   10  A    between atoms: C27_37  and  O5_38 
ROOT
HETATM    1  C4  UNL     1      20.869  19.403  61.382  1.00  0.00     0.160 C 
HETATM    2  C5  UNL     1      20.322  20.690  62.007  1.00  0.00     0.036 C 
HETATM    3  C6  UNL     1      21.250  21.772  61.719  1.00  0.00     0.012 C 
HETATM    4  C7  UNL     1      21.158  22.674  60.601  1.00  0.00    -0.040 C 
HETATM    5  C8  UNL     1      22.465  23.511  60.775  1.00  0.00     0.015 C 
HETATM    6  C9  UNL     1      20.093  23.745  60.926  1.00  0.00     0.010 C 
HETATM    7  C10 UNL     1      20.484  24.737  59.829  1.00  0.00     0.008 C 
HETATM    8  C11 UNL     1      20.583  23.812  58.661  1.00  0.00     0.019 C 
HETATM    9  C12 UNL     1      21.395  24.225  57.527  1.00  0.00     0.123 C 
HETATM   10  C13 UNL     1      20.804  23.591  56.247  1.00  0.00     0.042 C 
HETATM   11  C14 UNL     1      20.833  22.134  56.198  1.00  0.00    -0.034 C 
HETATM   12  C15 UNL     1      22.292  21.601  56.169  1.00  0.00     0.016 C 
HETATM   13  C16 UNL     1      20.268  21.616  54.927  1.00  0.00    -0.002 C 
HETATM   14  C22 UNL     1      18.758  21.559  55.111  1.00  0.00     0.006 C 
HETATM   15  C23 UNL     1      18.616  21.314  56.572  1.00  0.00     0.006 C 
HETATM   16  C24 UNL     1      20.019  21.345  57.155  1.00  0.00    -0.001 C 
HETATM   17  C25 UNL     1      20.042  21.502  58.611  1.00  0.00    -0.002 C 
HETATM   18  C26 UNL     1      19.822  20.154  59.245  1.00  0.00     0.039 C 
HETATM   19  C27 UNL     1      21.037  19.553  59.898  1.00  0.00     0.148 C 
HETATM   20  C28 UNL     1      21.000  22.422  59.222  1.00  0.00     0.005 C 
ENDROOT
BRANCH   1  21
HETATM   21  O2  UNL     1      20.255  18.261  61.829  1.00  0.00    -0.312 OA
BRANCH  21  22
HETATM   22  C3  UNL     1      19.092  17.695  61.386  1.00  0.00     0.289 C 
HETATM   23  O1  UNL     1      18.136  18.468  61.327  1.00  0.00    -0.263 OA
BRANCH  22  24
HETATM   24  C2  UNL     1      19.053  16.255  61.018  1.00  0.00     0.278 C 
HETATM   25  C1  UNL     1      18.596  16.066  59.606  1.00  0.00     0.050 C 
BRANCH  24  26
HETATM   26  N1  UNL     1      18.205  15.517  61.952  1.00  0.00    -0.066 N 
ATOM     27  H13 UNL     1      17.400  16.070  62.245  1.00  0.00     0.275 HD
ATOM     28  H12 UNL     1      17.711  14.756  61.488  1.00  0.00     0.275 HD
ATOM     29  H11 UNL     1      18.742  15.183  62.753  1.00  0.00     0.275 HD
ENDBRANCH  24  26
ENDBRANCH  22  24
ENDBRANCH  21  22
ENDBRANCH   1  21
BRANCH  19  30
HETATM   30  O5  UNL     1      21.375  18.305  59.377  1.00  0.00    -0.393 OA
ATOM     31  H5  UNL     1      22.192  18.032  59.779  1.00  0.00     0.210 HD
ENDBRANCH  19  30
BRANCH   9  32
HETATM   32  O3  UNL     1      21.301  25.607  57.355  1.00  0.00    -0.395 OA
ATOM     33  H3  UNL     1      22.162  26.002  57.437  1.00  0.00     0.210 HD
ENDBRANCH   9  32
BRANCH  13  34
HETATM   34  C17 UNL     1      20.634  22.151  53.600  1.00  0.00    -0.010 C 
HETATM   35  C18 UNL     1      20.092  21.019  52.639  1.00  0.00     0.010 C 
BRANCH  34  36
HETATM   36  C19 UNL     1      19.942  23.366  53.100  1.00  0.00     0.037 C 
BRANCH  36  37
HETATM   37  C20 UNL     1      20.773  24.419  52.443  1.00  0.00     0.044 C 
BRANCH  37  38
HETATM   38  C21 UNL     1      21.560  25.355  53.181  1.00  0.00     0.250 C 
HETATM   39  N2  UNL     1      23.002  25.250  53.179  1.00  0.00    -0.058 NA
HETATM   40  O4  UNL     1      21.120  26.301  53.871  1.00  0.00    -0.272 OA
ENDBRANCH  37  38
ENDBRANCH  36  37
ENDBRANCH  34  36
ENDBRANCH  13  34
TORSDOF 10
ENDMDL
MODEL 5
REMARK VINA RESULT: -7.928544224      2.381      4.113
REMARK  10 active torsions:
REMARK  status: ('A' for Active; 'I' for Inactive)
REMARK    1  A    between atoms: C2_2  and  N1_3 
REMARK    2  A    between atoms: C2_2  and  C3_7 
REMARK    3  A    between atoms: C3_7  and  O2_9 
REMARK    4  A    between atoms: O2_9  and  C4_10 
REMARK    5  A    between atoms: C12_18  and  O3_19 
REMARK    6  A    between atoms: C16_24  and  C17_25 
REMARK    7  A    between atoms: C17_25  and  C19_27 
REMARK    8  A    between atoms: C19_27  and  C20_28 
REMARK    9  A    between atoms: C20_28  and  C21_29 
REMARK   10  A    between atoms: C27_37  and  O5_38 
ROOT
HETATM    1  C4  UNL     1      20.843  22.975  55.944  1.00  0.00     0.160 C 
HETATM    2  C5  UNL     1      21.698  23.588  57.058  1.00  0.00     0.036 C 
HETATM    3  C6  UNL     1      20.895  23.658  58.268  1.00  0.00     0.012 C 
HETATM    4  C7  UNL     1      20.861  22.660  59.304  1.00  0.00    -0.040 C 
HETATM    5  C8  UNL     1      19.763  23.240  60.252  1.00  0.00     0.015 C 
HETATM    6  C9  UNL     1      22.115  22.834  60.190  1.00  0.00     0.010 C 
HETATM    7  C10 UNL     1      21.633  21.983  61.367  1.00  0.00     0.008 C 
HETATM    8  C11 UNL     1      21.139  20.778  60.636  1.00  0.00     0.019 C 
HETATM    9  C12 UNL     1      20.160  19.930  61.297  1.00  0.00     0.123 C 
HETATM   10  C13 UNL     1      20.348  18.482  60.790  1.00  0.00     0.042 C 
HETATM   11  C14 UNL     1      20.098  18.279  59.367  1.00  0.00    -0.034 C 
HETATM   12  C15 UNL     1      18.609  18.545  59.014  1.00  0.00     0.016 C 
HETATM   13  C16 UNL     1      20.280  16.858  58.977  1.00  0.00    -0.002 C 
HETATM   14  C22 UNL     1      21.768  16.661  58.722  1.00  0.00     0.006 C 
HETATM   15  C23 UNL     1      22.199  18.007  58.256  1.00  0.00     0.006 C 
HETATM   16  C24 UNL     1      20.985  18.914  58.362  1.00  0.00    -0.001 C 
HETATM   17  C25 UNL     1      21.316  20.339  58.311  1.00  0.00    -0.002 C 
HETATM   18  C26 UNL     1      21.476  20.745  56.870  1.00  0.00     0.039 C 
HETATM   19  C27 UNL     1      20.367  21.603  56.323  1.00  0.00     0.148 C 
HETATM   20  C28 UNL     1      20.664  21.265  59.237  1.00  0.00     0.005 C 
ENDROOT
BRANCH   1  21
HETATM   21  O2  UNL     1      21.371  23.128  54.688  1.00  0.00    -0.312 OA
BRANCH  21  22
HETATM   22  C3  UNL     1      21.052  24.062  53.742  1.00  0.00     0.289 C 
HETATM   23  O1  UNL     1      21.406  25.208  54.014  1.00  0.00    -0.263 OA
BRANCH  22  24
HETATM   24  C2  UNL     1      20.334  23.659  52.504  1.00  0.00     0.278 C 
HETATM   25  C1  UNL     1      19.879  24.853  51.725  1.00  0.00     0.050 C 
BRANCH  24  26
HETATM   26  N1  UNL     1      19.212  22.782  52.832  1.00  0.00    -0.066 N 
ATOM     27  H13 UNL     1      19.479  22.069  53.510  1.00  0.00     0.275 HD
ATOM     28  H12 UNL     1      18.506  23.268  53.385  1.00  0.00     0.275 HD
ATOM     29  H11 UNL     1      18.810  22.367  51.991  1.00  0.00     0.275 HD
ENDBRANCH  24  26
ENDBRANCH  22  24
ENDBRANCH  21  22
ENDBRANCH   1  21
BRANCH  19  30
HETATM   30  O5  UNL     1      19.743  21.043  55.210  1.00  0.00    -0.393 OA
ATOM     31  H5  UNL     1      19.361  21.751  54.703  1.00  0.00     0.210 HD
ENDBRANCH  19  30
BRANCH   9  32
HETATM   32  O3  UNL     1      20.411  19.897  62.670  1.00  0.00    -0.395 OA
ATOM     33  H3  UNL     1      20.110  19.073  63.034  1.00  0.00     0.210 HD
ENDBRANCH   9  32
BRANCH  13  34
HETATM   34  C17 UNL     1      19.704  15.729  59.734  1.00  0.00    -0.010 C 
HETATM   35  C18 UNL     1      18.814  15.026  58.632  1.00  0.00     0.010 C 
BRANCH  34  36
HETATM   36  C19 UNL     1      20.600  14.632  60.180  1.00  0.00     0.037 C 
BRANCH  36  37
HETATM   37  C20 UNL     1      20.357  14.042  61.531  1.00  0.00     0.044 C 
BRANCH  37  38
HETATM   38  C21 UNL     1      19.052  13.921  62.098  1.00  0.00     0.250 C 
HETATM   39  N2  UNL     1      18.198  12.816  61.722  1.00  0.00    -0.058 NA
HETATM   40  O4  UNL     1      18.534  14.706  62.923  1.00  0.00    -0.272 OA
ENDBRANCH  37  38
ENDBRANCH  36  37
ENDBRANCH  34  36
ENDBRANCH  13  34
TORSDOF 10
ENDMDL
