MODEL 1
REMARK VINA RESULT: -11.972436532      0.000      0.000
REMARK  4 active torsions:
REMARK  status: ('A' for Active; 'I' for Inactive)
REMARK    1  A    between atoms: C4_4  and  C5_5 
REMARK    2  A    between atoms: C5_5  and  O1_6 
REMARK    3  A    between atoms: O1_6  and  C6_7 
REMARK    4  A    between atoms: C10_11  and  C11_12 
ROOT
HETATM    1  C11 UNL     1      57.547  30.372  75.341  1.00  0.00    -0.014 A 
HETATM    2  C12 UNL     1      57.209  29.107  75.846  1.00  0.00     0.025 A 
HETATM    3  C13 UNL     1      58.093  28.381  76.614  1.00  0.00    -0.025 A 
HETATM    4  C14 UNL     1      57.784  27.124  77.126  1.00  0.00     0.012 A 
HETATM    5  C15 UNL     1      58.673  26.401  77.896  1.00  0.00     0.001 A 
HETATM    6  C16 UNL     1      59.915  26.973  78.152  1.00  0.00     0.001 A 
HETATM    7  C17 UNL     1      60.219  28.225  77.640  1.00  0.00     0.012 A 
HETATM    8  C18 UNL     1      59.324  28.938  76.873  1.00  0.00    -0.025 A 
HETATM    9  C19 UNL     1      59.674  30.183  76.384  1.00  0.00     0.025 A 
HETATM   10  C20 UNL     1      58.774  30.925  75.601  1.00  0.00    -0.014 A 
HETATM   11  C21 UNL     1      59.143  32.226  75.091  1.00  0.00    -0.025 A 
HETATM   12  C22 UNL     1      59.234  32.474  73.745  1.00  0.00     0.012 A 
HETATM   13  C23 UNL     1      59.595  33.734  73.255  1.00  0.00     0.001 A 
HETATM   14  C24 UNL     1      59.861  34.736  74.140  1.00  0.00     0.000 A 
HETATM   15  C25 UNL     1      59.781  34.530  75.506  1.00  0.00     0.001 A 
HETATM   16  C26 UNL     1      59.418  33.262  75.955  1.00  0.00     0.012 A 
ENDROOT
BRANCH   1  17
HETATM   17  C10 UNL     1      56.579  31.109  74.530  1.00  0.00    -0.022 A 
HETATM   18  C9  UNL     1      55.892  32.189  75.032  1.00  0.00     0.012 A 
HETATM   19  C8  UNL     1      54.999  32.833  74.206  1.00  0.00     0.004 A 
HETATM   20  C7  UNL     1      54.783  32.427  72.910  1.00  0.00     0.037 A 
HETATM   21  C6  UNL     1      55.456  31.347  72.377  1.00  0.00     0.070 A 
HETATM   22  C27 UNL     1      56.343  30.713  73.210  1.00  0.00     0.049 A 
BRANCH  21  23
HETATM   23  O1  UNL     1      55.232  30.940  71.063  1.00  0.00    -0.347 OA
BRANCH  23  24
HETATM   24  C5  UNL     1      55.925  31.601  70.029  1.00  0.00     0.214 C 
BRANCH  24  25
HETATM   25  C4  UNL     1      55.298  32.847  69.599  1.00  0.00    -0.034 A 
HETATM   26  C3  UNL     1      53.985  32.853  69.196  1.00  0.00     0.009 A 
HETATM   27  C2  UNL     1      53.341  34.008  68.776  1.00  0.00     0.001 A 
HETATM   28  C1  UNL     1      54.030  35.205  68.756  1.00  0.00     0.000 A 
HETATM   29  C29 UNL     1      55.342  35.201  69.158  1.00  0.00     0.001 A 
HETATM   30  C28 UNL     1      55.984  34.042  69.577  1.00  0.00     0.009 A 
ENDBRANCH  24  25
ENDBRANCH  23  24
ENDBRANCH  21  23
ENDBRANCH   1  17
TORSDOF 4
ENDMDL
MODEL 2
REMARK VINA RESULT: -11.572549393      2.650      4.885
REMARK  4 active torsions:
REMARK  status: ('A' for Active; 'I' for Inactive)
REMARK    1  A    between atoms: C4_4  and  C5_5 
REMARK    2  A    between atoms: C5_5  and  O1_6 
REMARK    3  A    between atoms: O1_6  and  C6_7 
REMARK    4  A    between atoms: C10_11  and  C11_12 
ROOT
HETATM    1  C11 UNL     1      60.842  32.595  77.354  1.00  0.00    -0.014 A 
HETATM    2  C12 UNL     1      62.017  32.823  78.087  1.00  0.00     0.025 A 
HETATM    3  C13 UNL     1      62.490  31.898  78.992  1.00  0.00    -0.025 A 
HETATM    4  C14 UNL     1      63.652  32.099  79.732  1.00  0.00     0.012 A 
HETATM    5  C15 UNL     1      64.122  31.169  80.637  1.00  0.00     0.001 A 
HETATM    6  C16 UNL     1      63.387  29.998  80.796  1.00  0.00     0.001 A 
HETATM    7  C17 UNL     1      62.231  29.801  80.056  1.00  0.00     0.012 A 
HETATM    8  C18 UNL     1      61.770  30.737  79.155  1.00  0.00    -0.025 A 
HETATM    9  C19 UNL     1      60.611  30.495  78.443  1.00  0.00     0.025 A 
HETATM   10  C20 UNL     1      60.127  31.436  77.519  1.00  0.00    -0.014 A 
HETATM   11  C21 UNL     1      58.915  31.181  76.775  1.00  0.00    -0.025 A 
HETATM   12  C22 UNL     1      57.803  31.973  76.914  1.00  0.00     0.012 A 
HETATM   13  C23 UNL     1      56.630  31.720  76.195  1.00  0.00     0.001 A 
HETATM   14  C24 UNL     1      56.595  30.661  75.338  1.00  0.00     0.000 A 
HETATM   15  C25 UNL     1      57.693  29.836  75.168  1.00  0.00     0.001 A 
HETATM   16  C26 UNL     1      58.843  30.120  75.901  1.00  0.00     0.012 A 
ENDROOT
BRANCH   1  17
HETATM   17  C10 UNL     1      60.375  33.603  76.404  1.00  0.00    -0.022 A 
HETATM   18  C9  UNL     1      60.399  34.944  76.707  1.00  0.00     0.012 A 
HETATM   19  C8  UNL     1      59.946  35.833  75.759  1.00  0.00     0.004 A 
HETATM   20  C7  UNL     1      59.477  35.417  74.535  1.00  0.00     0.037 A 
HETATM   21  C6  UNL     1      59.440  34.079  74.201  1.00  0.00     0.070 A 
HETATM   22  C27 UNL     1      59.894  33.202  75.154  1.00  0.00     0.049 A 
BRANCH  21  23
HETATM   23  O1  UNL     1      58.964  33.663  72.959  1.00  0.00    -0.347 OA
BRANCH  23  24
HETATM   24  C5  UNL     1      57.659  34.036  72.580  1.00  0.00     0.214 C 
BRANCH  24  25
HETATM   25  C4  UNL     1      56.788  32.906  72.267  1.00  0.00    -0.034 A 
HETATM   26  C3  UNL     1      55.425  33.036  72.383  1.00  0.00     0.009 A 
HETATM   27  C2  UNL     1      54.553  31.996  72.099  1.00  0.00     0.001 A 
HETATM   28  C1  UNL     1      55.054  30.777  71.684  1.00  0.00     0.000 A 
HETATM   29  C29 UNL     1      56.416  30.647  71.567  1.00  0.00     0.001 A 
HETATM   30  C28 UNL     1      57.286  31.691  71.852  1.00  0.00     0.009 A 
ENDBRANCH  24  25
ENDBRANCH  23  24
ENDBRANCH  21  23
ENDBRANCH   1  17
TORSDOF 4
ENDMDL
MODEL 3
REMARK VINA RESULT: -11.526806988      2.015      5.080
REMARK  4 active torsions:
REMARK  status: ('A' for Active; 'I' for Inactive)
REMARK    1  A    between atoms: C4_4  and  C5_5 
REMARK    2  A    between atoms: C5_5  and  O1_6 
REMARK    3  A    between atoms: O1_6  and  C6_7 
REMARK    4  A    between atoms: C10_11  and  C11_12 
ROOT
HETATM    1  C11 UNL     1      58.610  33.260  73.516  1.00  0.00    -0.014 A 
HETATM    2  C12 UNL     1      59.501  34.342  73.440  1.00  0.00     0.025 A 
HETATM    3  C13 UNL     1      60.264  34.721  74.523  1.00  0.00    -0.025 A 
HETATM    4  C14 UNL     1      61.154  35.790  74.474  1.00  0.00     0.012 A 
HETATM    5  C15 UNL     1      61.916  36.166  75.562  1.00  0.00     0.001 A 
HETATM    6  C16 UNL     1      61.768  35.434  76.735  1.00  0.00     0.001 A 
HETATM    7  C17 UNL     1      60.881  34.369  76.779  1.00  0.00     0.012 A 
HETATM    8  C18 UNL     1      60.124  34.003  75.687  1.00  0.00    -0.025 A 
HETATM    9  C19 UNL     1      59.252  32.935  75.781  1.00  0.00     0.025 A 
HETATM   10  C20 UNL     1      58.473  32.546  74.678  1.00  0.00    -0.014 A 
HETATM   11  C21 UNL     1      57.562  31.428  74.778  1.00  0.00    -0.025 A 
HETATM   12  C22 UNL     1      56.207  31.588  74.630  1.00  0.00     0.012 A 
HETATM   13  C23 UNL     1      55.328  30.504  74.732  1.00  0.00     0.001 A 
HETATM   14  C24 UNL     1      55.833  29.264  74.985  1.00  0.00     0.000 A 
HETATM   15  C25 UNL     1      57.192  29.059  75.141  1.00  0.00     0.001 A 
HETATM   16  C26 UNL     1      58.036  30.161  75.032  1.00  0.00     0.012 A 
ENDROOT
BRANCH   1  17
HETATM   17  C10 UNL     1      57.819  32.891  72.343  1.00  0.00    -0.022 A 
HETATM   18  C9  UNL     1      57.962  31.666  71.734  1.00  0.00     0.012 A 
HETATM   19  C8  UNL     1      57.180  31.391  70.635  1.00  0.00     0.004 A 
HETATM   20  C7  UNL     1      56.273  32.299  70.141  1.00  0.00     0.037 A 
HETATM   21  C6  UNL     1      56.106  33.535  70.729  1.00  0.00     0.070 A 
HETATM   22  C27 UNL     1      56.891  33.799  71.823  1.00  0.00     0.049 A 
BRANCH  21  23
HETATM   23  O1  UNL     1      55.185  34.451  70.224  1.00  0.00    -0.347 OA
BRANCH  23  24
HETATM   24  C5  UNL     1      54.478  34.116  69.052  1.00  0.00     0.214 C 
BRANCH  24  25
HETATM   25  C4  UNL     1      54.278  35.239  68.140  1.00  0.00    -0.034 A 
HETATM   26  C3  UNL     1      54.636  36.509  68.525  1.00  0.00     0.009 A 
HETATM   27  C2  UNL     1      54.466  37.611  67.699  1.00  0.00     0.001 A 
HETATM   28  C1  UNL     1      53.919  37.444  66.441  1.00  0.00     0.000 A 
HETATM   29  C29 UNL     1      53.562  36.176  66.056  1.00  0.00     0.001 A 
HETATM   30  C28 UNL     1      53.733  35.075  66.886  1.00  0.00     0.009 A 
ENDBRANCH  24  25
ENDBRANCH  23  24
ENDBRANCH  21  23
ENDBRANCH   1  17
TORSDOF 4
ENDMDL
MODEL 4
REMARK VINA RESULT: -11.489740668      2.362      5.385
REMARK  4 active torsions:
REMARK  status: ('A' for Active; 'I' for Inactive)
REMARK    1  A    between atoms: C4_4  and  C5_5 
REMARK    2  A    between atoms: C5_5  and  O1_6 
REMARK    3  A    between atoms: O1_6  and  C6_7 
REMARK    4  A    between atoms: C10_11  and  C11_12 
ROOT
HETATM    1  C11 UNL     1      59.737  30.148  77.389  1.00  0.00    -0.014 A 
HETATM    2  C12 UNL     1      60.451  31.354  77.301  1.00  0.00     0.025 A 
HETATM    3  C13 UNL     1      61.518  31.620  78.131  1.00  0.00    -0.025 A 
HETATM    4  C14 UNL     1      62.241  32.807  78.065  1.00  0.00     0.012 A 
HETATM    5  C15 UNL     1      63.311  33.068  78.899  1.00  0.00     0.001 A 
HETATM    6  C16 UNL     1      63.654  32.092  79.829  1.00  0.00     0.001 A 
HETATM    7  C17 UNL     1      62.931  30.910  79.891  1.00  0.00     0.012 A 
HETATM    8  C18 UNL     1      61.865  30.660  79.054  1.00  0.00    -0.025 A 
HETATM    9  C19 UNL     1      61.175  29.467  79.155  1.00  0.00     0.025 A 
HETATM   10  C20 UNL     1      60.086  29.194  78.310  1.00  0.00    -0.014 A 
HETATM   11  C21 UNL     1      59.366  27.946  78.418  1.00  0.00    -0.025 A 
HETATM   12  C22 UNL     1      58.041  27.906  78.770  1.00  0.00     0.012 A 
HETATM   13  C23 UNL     1      57.348  26.695  78.877  1.00  0.00     0.001 A 
HETATM   14  C24 UNL     1      58.009  25.531  78.625  1.00  0.00     0.000 A 
HETATM   15  C25 UNL     1      59.346  25.525  78.268  1.00  0.00     0.001 A 
HETATM   16  C26 UNL     1      60.002  26.750  78.171  1.00  0.00     0.012 A 
ENDROOT
BRANCH   1  17
HETATM   17  C10 UNL     1      58.611  29.907  76.489  1.00  0.00    -0.022 A 
HETATM   18  C9  UNL     1      58.442  28.699  75.854  1.00  0.00     0.012 A 
HETATM   19  C8  UNL     1      57.355  28.548  75.024  1.00  0.00     0.004 A 
HETATM   20  C7  UNL     1      56.448  29.561  74.819  1.00  0.00     0.037 A 
HETATM   21  C6  UNL     1      56.590  30.784  75.441  1.00  0.00     0.070 A 
HETATM   22  C27 UNL     1      57.677  30.924  76.265  1.00  0.00     0.049 A 
BRANCH  21  23
HETATM   23  O1  UNL     1      55.668  31.807  75.229  1.00  0.00    -0.347 OA
BRANCH  23  24
HETATM   24  C5  UNL     1      56.126  33.021  74.678  1.00  0.00     0.214 C 
BRANCH  24  25
HETATM   25  C4  UNL     1      55.822  33.178  73.258  1.00  0.00    -0.034 A 
HETATM   26  C3  UNL     1      54.950  32.314  72.642  1.00  0.00     0.009 A 
HETATM   27  C2  UNL     1      54.627  32.417  71.297  1.00  0.00     0.001 A 
HETATM   28  C1  UNL     1      55.195  33.419  70.533  1.00  0.00     0.000 A 
HETATM   29  C29 UNL     1      56.066  34.283  71.148  1.00  0.00     0.001 A 
HETATM   30  C28 UNL     1      56.387  34.176  72.495  1.00  0.00     0.009 A 
ENDBRANCH  24  25
ENDBRANCH  23  24
ENDBRANCH  21  23
ENDBRANCH   1  17
TORSDOF 4
ENDMDL
MODEL 5
REMARK VINA RESULT: -11.226098289      2.570      4.498
REMARK  4 active torsions:
REMARK  status: ('A' for Active; 'I' for Inactive)
REMARK    1  A    between atoms: C4_4  and  C5_5 
REMARK    2  A    between atoms: C5_5  and  O1_6 
REMARK    3  A    between atoms: O1_6  and  C6_7 
REMARK    4  A    between atoms: C10_11  and  C11_12 
ROOT
HETATM    1  C11 UNL     1      60.665  32.385  77.053  1.00  0.00    -0.014 A 
HETATM    2  C12 UNL     1      61.857  32.831  77.646  1.00  0.00     0.025 A 
HETATM    3  C13 UNL     1      62.455  32.130  78.671  1.00  0.00    -0.025 A 
HETATM    4  C14 UNL     1      63.636  32.550  79.277  1.00  0.00     0.012 A 
HETATM    5  C15 UNL     1      64.231  31.845  80.304  1.00  0.00     0.001 A 
HETATM    6  C16 UNL     1      63.606  30.677  80.728  1.00  0.00     0.001 A 
HETATM    7  C17 UNL     1      62.430  30.262  80.122  1.00  0.00     0.012 A 
HETATM    8  C18 UNL     1      61.844  30.974  79.098  1.00  0.00    -0.025 A 
HETATM    9  C19 UNL     1      60.670  30.520  78.527  1.00  0.00     0.025 A 
HETATM   10  C20 UNL     1      60.059  31.232  77.481  1.00  0.00    -0.014 A 
HETATM   11  C21 UNL     1      58.832  30.755  76.885  1.00  0.00    -0.025 A 
HETATM   12  C22 UNL     1      57.669  31.480  76.953  1.00  0.00     0.012 A 
HETATM   13  C23 UNL     1      56.481  31.012  76.378  1.00  0.00     0.001 A 
HETATM   14  C24 UNL     1      56.485  29.810  75.738  1.00  0.00     0.000 A 
HETATM   15  C25 UNL     1      57.636  29.047  75.646  1.00  0.00     0.001 A 
HETATM   16  C26 UNL     1      58.798  29.545  76.230  1.00  0.00     0.012 A 
ENDROOT
BRANCH   1  17
HETATM   17  C10 UNL     1      60.065  33.158  75.968  1.00  0.00    -0.022 A 
HETATM   18  C9  UNL     1      60.076  34.534  75.971  1.00  0.00     0.012 A 
HETATM   19  C8  UNL     1      59.493  35.191  74.912  1.00  0.00     0.004 A 
HETATM   20  C7  UNL     1      58.909  34.515  73.867  1.00  0.00     0.037 A 
HETATM   21  C6  UNL     1      58.881  33.136  73.835  1.00  0.00     0.070 A 
HETATM   22  C27 UNL     1      59.465  32.491  74.896  1.00  0.00     0.049 A 
BRANCH  21  23
HETATM   23  O1  UNL     1      58.287  32.455  72.774  1.00  0.00    -0.347 OA
BRANCH  23  24
HETATM   24  C5  UNL     1      56.905  32.187  72.836  1.00  0.00     0.214 C 
BRANCH  24  25
HETATM   25  C4  UNL     1      56.141  32.751  71.727  1.00  0.00    -0.034 A 
HETATM   26  C3  UNL     1      55.026  32.099  71.258  1.00  0.00     0.009 A 
HETATM   27  C2  UNL     1      54.266  32.588  70.206  1.00  0.00     0.001 A 
HETATM   28  C1  UNL     1      54.628  33.773  69.595  1.00  0.00     0.000 A 
HETATM   29  C29 UNL     1      55.742  34.425  70.062  1.00  0.00     0.001 A 
HETATM   30  C28 UNL     1      56.501  33.932  71.116  1.00  0.00     0.009 A 
ENDBRANCH  24  25
ENDBRANCH  23  24
ENDBRANCH  21  23
ENDBRANCH   1  17
TORSDOF 4
ENDMDL
