MODEL 1
REMARK VINA RESULT: -12.225584106      0.000      0.000
REMARK  5 active torsions:
REMARK  status: ('A' for Active; 'I' for Inactive)
REMARK    1  A    between atoms: C2_2  and  C3_3 
REMARK    2  A    between atoms: C2_2  and  C20_21 
REMARK    3  A    between atoms: C5_5  and  O1_6 
REMARK    4  A    between atoms: O1_6  and  C6_7 
REMARK    5  A    between atoms: C6_7  and  C7_8 
ROOT
HETATM    1  C3  UNL     1      57.427  30.498  75.066  1.00  0.00    -0.022 A 
HETATM    2  C4  UNL     1      58.565  31.107  75.515  1.00  0.00     0.050 A 
HETATM    3  C5  UNL     1      59.468  30.520  76.375  1.00  0.00     0.081 A 
HETATM    4  C13 UNL     1      59.141  29.211  76.783  1.00  0.00     0.007 A 
HETATM    5  C14 UNL     1      59.999  28.551  77.661  1.00  0.00     0.015 A 
HETATM    6  C15 UNL     1      59.670  27.284  78.052  1.00  0.00     0.001 A 
HETATM    7  C16 UNL     1      58.509  26.642  77.605  1.00  0.00     0.001 A 
HETATM    8  C17 UNL     1      57.662  27.288  76.743  1.00  0.00     0.012 A 
HETATM    9  C18 UNL     1      58.006  28.590  76.341  1.00  0.00    -0.022 A 
HETATM   10  C19 UNL     1      57.114  29.197  75.475  1.00  0.00     0.024 A 
ENDROOT
BRANCH   1  11
HETATM   11  C2  UNL     1      56.477  31.116  74.173  1.00  0.00    -0.024 C 
HETATM   12  C1  UNL     1      55.457  31.744  74.744  1.00  0.00     0.025 C 
BRANCH  11  13
HETATM   13  C20 UNL     1      56.596  31.137  72.731  1.00  0.00    -0.015 A 
HETATM   14  C21 UNL     1      56.924  29.914  72.115  1.00  0.00     0.013 A 
HETATM   15  C22 UNL     1      57.077  29.914  70.768  1.00  0.00     0.002 A 
HETATM   16  C23 UNL     1      56.920  31.059  69.987  1.00  0.00     0.012 A 
HETATM   17  C24 UNL     1      56.594  32.255  70.644  1.00  0.00    -0.025 A 
HETATM   18  C25 UNL     1      56.430  33.375  69.849  1.00  0.00     0.012 A 
HETATM   19  C29 UNL     1      56.431  32.297  72.002  1.00  0.00    -0.015 A 
HETATM   20  C26 UNL     1      56.088  34.579  70.474  1.00  0.00     0.001 A 
HETATM   21  C27 UNL     1      55.922  34.624  71.840  1.00  0.00     0.001 A 
HETATM   22  C28 UNL     1      56.087  33.503  72.622  1.00  0.00     0.013 A 
ENDBRANCH  11  13
ENDBRANCH   1  11
BRANCH   3  23
HETATM   23  O1  UNL     1      60.625  31.053  76.860  1.00  0.00    -0.346 OA
BRANCH  23  24
HETATM   24  C6  UNL     1      60.943  32.249  77.439  1.00  0.00     0.214 C 
BRANCH  24  25
HETATM   25  C7  UNL     1      62.026  32.032  78.424  1.00  0.00    -0.034 A 
HETATM   26  C8  UNL     1      63.061  32.883  78.619  1.00  0.00     0.009 A 
HETATM   27  C9  UNL     1      63.999  32.580  79.580  1.00  0.00     0.001 A 
HETATM   28  C10 UNL     1      63.910  31.418  80.358  1.00  0.00     0.000 A 
HETATM   29  C11 UNL     1      62.862  30.548  80.166  1.00  0.00     0.001 A 
HETATM   30  C12 UNL     1      61.929  30.887  79.184  1.00  0.00     0.009 A 
ENDBRANCH  24  25
ENDBRANCH  23  24
ENDBRANCH   3  23
TORSDOF 5
ENDMDL
MODEL 2
REMARK VINA RESULT: -12.117802215      0.706      2.027
REMARK  5 active torsions:
REMARK  status: ('A' for Active; 'I' for Inactive)
REMARK    1  A    between atoms: C2_2  and  C3_3 
REMARK    2  A    between atoms: C2_2  and  C20_21 
REMARK    3  A    between atoms: C5_5  and  O1_6 
REMARK    4  A    between atoms: O1_6  and  C6_7 
REMARK    5  A    between atoms: C6_7  and  C7_8 
ROOT
HETATM    1  C3  UNL     1      57.347  29.754  75.669  1.00  0.00    -0.022 A 
HETATM    2  C4  UNL     1      58.455  30.508  75.932  1.00  0.00     0.050 A 
HETATM    3  C5  UNL     1      59.524  30.073  76.686  1.00  0.00     0.081 A 
HETATM    4  C13 UNL     1      59.407  28.762  77.191  1.00  0.00     0.007 A 
HETATM    5  C14 UNL     1      60.443  28.252  77.970  1.00  0.00     0.015 A 
HETATM    6  C15 UNL     1      60.315  26.982  78.457  1.00  0.00     0.001 A 
HETATM    7  C16 UNL     1      59.188  26.192  78.200  1.00  0.00     0.001 A 
HETATM    8  C17 UNL     1      58.167  26.691  77.434  1.00  0.00     0.012 A 
HETATM    9  C18 UNL     1      58.303  27.998  76.934  1.00  0.00    -0.022 A 
HETATM   10  C19 UNL     1      57.242  28.453  76.172  1.00  0.00     0.024 A 
ENDROOT
BRANCH   1  11
HETATM   11  C2  UNL     1      56.224  30.212  74.888  1.00  0.00    -0.024 C 
HETATM   12  C1  UNL     1      55.102  29.514  75.008  1.00  0.00     0.025 C 
BRANCH  11  13
HETATM   13  C20 UNL     1      56.231  31.389  74.047  1.00  0.00    -0.015 A 
HETATM   14  C21 UNL     1      55.884  32.603  74.670  1.00  0.00     0.013 A 
HETATM   15  C22 UNL     1      55.849  33.716  73.896  1.00  0.00     0.002 A 
HETATM   16  C23 UNL     1      56.142  33.701  72.532  1.00  0.00     0.012 A 
HETATM   17  C24 UNL     1      56.483  32.469  71.954  1.00  0.00    -0.025 A 
HETATM   18  C25 UNL     1      56.784  32.479  70.605  1.00  0.00     0.012 A 
HETATM   19  C29 UNL     1      56.530  31.323  72.701  1.00  0.00    -0.015 A 
HETATM   20  C26 UNL     1      57.143  31.268  70.003  1.00  0.00     0.001 A 
HETATM   21  C27 UNL     1      57.193  30.114  70.752  1.00  0.00     0.001 A 
HETATM   22  C28 UNL     1      56.893  30.115  72.096  1.00  0.00     0.013 A 
ENDBRANCH  11  13
ENDBRANCH   1  11
BRANCH   3  23
HETATM   23  O1  UNL     1      60.665  30.756  76.986  1.00  0.00    -0.346 OA
BRANCH  23  24
HETATM   24  C6  UNL     1      60.917  32.012  77.460  1.00  0.00     0.214 C 
BRANCH  24  25
HETATM   25  C7  UNL     1      62.030  31.944  78.433  1.00  0.00    -0.034 A 
HETATM   26  C8  UNL     1      63.012  32.871  78.534  1.00  0.00     0.009 A 
HETATM   27  C9  UNL     1      63.985  32.707  79.494  1.00  0.00     0.001 A 
HETATM   28  C10 UNL     1      63.985  31.608  80.364  1.00  0.00     0.000 A 
HETATM   29  C11 UNL     1      62.992  30.661  80.268  1.00  0.00     0.001 A 
HETATM   30  C12 UNL     1      62.021  30.861  79.283  1.00  0.00     0.009 A 
ENDBRANCH  24  25
ENDBRANCH  23  24
ENDBRANCH   3  23
TORSDOF 5
ENDMDL
MODEL 3
REMARK VINA RESULT: -11.993496049      2.127      4.570
REMARK  5 active torsions:
REMARK  status: ('A' for Active; 'I' for Inactive)
REMARK    1  A    between atoms: C2_2  and  C3_3 
REMARK    2  A    between atoms: C2_2  and  C20_21 
REMARK    3  A    between atoms: C5_5  and  O1_6 
REMARK    4  A    between atoms: O1_6  and  C6_7 
REMARK    5  A    between atoms: C6_7  and  C7_8 
ROOT
HETATM    1  C3  UNL     1      57.900  33.755  74.580  1.00  0.00    -0.022 A 
HETATM    2  C4  UNL     1      58.600  32.774  75.224  1.00  0.00     0.050 A 
HETATM    3  C5  UNL     1      59.799  32.978  75.872  1.00  0.00     0.081 A 
HETATM    4  C13 UNL     1      60.284  34.301  75.831  1.00  0.00     0.007 A 
HETATM    5  C14 UNL     1      61.496  34.588  76.455  1.00  0.00     0.015 A 
HETATM    6  C15 UNL     1      61.957  35.873  76.405  1.00  0.00     0.001 A 
HETATM    7  C16 UNL     1      61.257  36.894  75.751  1.00  0.00     0.001 A 
HETATM    8  C17 UNL     1      60.065  36.615  75.134  1.00  0.00     0.012 A 
HETATM    9  C18 UNL     1      59.592  35.292  75.190  1.00  0.00    -0.022 A 
HETATM   10  C19 UNL     1      58.389  35.066  74.548  1.00  0.00     0.024 A 
ENDROOT
BRANCH   1  11
HETATM   11  C2  UNL     1      56.650  33.540  73.894  1.00  0.00    -0.024 C 
HETATM   12  C1  UNL     1      55.578  33.387  74.661  1.00  0.00     0.025 C 
BRANCH  11  13
HETATM   13  C20 UNL     1      56.490  33.534  72.456  1.00  0.00    -0.015 A 
HETATM   14  C21 UNL     1      56.098  34.752  71.868  1.00  0.00     0.013 A 
HETATM   15  C22 UNL     1      55.907  34.766  70.526  1.00  0.00     0.002 A 
HETATM   16  C23 UNL     1      56.084  33.638  69.723  1.00  0.00     0.012 A 
HETATM   17  C24 UNL     1      56.476  32.447  70.352  1.00  0.00    -0.025 A 
HETATM   18  C25 UNL     1      56.659  31.346  69.536  1.00  0.00     0.012 A 
HETATM   19  C29 UNL     1      56.679  32.392  71.705  1.00  0.00    -0.015 A 
HETATM   20  C26 UNL     1      57.065  30.147  70.133  1.00  0.00     0.001 A 
HETATM   21  C27 UNL     1      57.273  30.089  71.493  1.00  0.00     0.001 A 
HETATM   22  C28 UNL     1      57.087  31.192  72.296  1.00  0.00     0.013 A 
ENDBRANCH  11  13
ENDBRANCH   1  11
BRANCH   3  23
HETATM   23  O1  UNL     1      60.551  32.060  76.542  1.00  0.00    -0.346 OA
BRANCH  23  24
HETATM   24  C6  UNL     1      60.249  30.968  77.304  1.00  0.00     0.214 C 
BRANCH  24  25
HETATM   25  C7  UNL     1      61.239  30.858  78.400  1.00  0.00    -0.034 A 
HETATM   26  C8  UNL     1      61.402  29.758  79.173  1.00  0.00     0.009 A 
HETATM   27  C9  UNL     1      62.371  29.771  80.151  1.00  0.00     0.001 A 
HETATM   28  C10 UNL     1      63.188  30.889  80.366  1.00  0.00     0.000 A 
HETATM   29  C11 UNL     1      63.028  32.011  79.586  1.00  0.00     0.001 A 
HETATM   30  C12 UNL     1      62.036  31.963  78.603  1.00  0.00     0.009 A 
ENDBRANCH  24  25
ENDBRANCH  23  24
ENDBRANCH   3  23
TORSDOF 5
ENDMDL
MODEL 4
REMARK VINA RESULT: -11.951333413      2.003      3.761
REMARK  5 active torsions:
REMARK  status: ('A' for Active; 'I' for Inactive)
REMARK    1  A    between atoms: C2_2  and  C3_3 
REMARK    2  A    between atoms: C2_2  and  C20_21 
REMARK    3  A    between atoms: C5_5  and  O1_6 
REMARK    4  A    between atoms: O1_6  and  C6_7 
REMARK    5  A    between atoms: C6_7  and  C7_8 
ROOT
HETATM    1  C3  UNL     1      57.956  32.858  74.747  1.00  0.00    -0.022 A 
HETATM    2  C4  UNL     1      58.771  32.070  75.508  1.00  0.00     0.050 A 
HETATM    3  C5  UNL     1      59.914  32.517  76.135  1.00  0.00     0.081 A 
HETATM    4  C13 UNL     1      60.209  33.881  75.939  1.00  0.00     0.007 A 
HETATM    5  C14 UNL     1      61.354  34.409  76.532  1.00  0.00     0.015 A 
HETATM    6  C15 UNL     1      61.631  35.732  76.331  1.00  0.00     0.001 A 
HETATM    7  C16 UNL     1      60.809  36.558  75.555  1.00  0.00     0.001 A 
HETATM    8  C17 UNL     1      59.683  36.042  74.968  1.00  0.00     0.012 A 
HETATM    9  C18 UNL     1      59.400  34.681  75.179  1.00  0.00    -0.022 A 
HETATM   10  C19 UNL     1      58.256  34.212  74.561  1.00  0.00     0.024 A 
ENDROOT
BRANCH   1  11
HETATM   11  C2  UNL     1      56.765  32.387  74.083  1.00  0.00    -0.024 C 
HETATM   12  C1  UNL     1      55.632  32.494  74.765  1.00  0.00     0.025 C 
BRANCH  11  13
HETATM   13  C20 UNL     1      56.725  31.870  72.733  1.00  0.00    -0.015 A 
HETATM   14  C21 UNL     1      57.013  30.499  72.582  1.00  0.00     0.013 A 
HETATM   15  C22 UNL     1      57.017  29.995  71.323  1.00  0.00     0.002 A 
HETATM   16  C23 UNL     1      56.748  30.772  70.195  1.00  0.00     0.012 A 
HETATM   17  C24 UNL     1      56.466  32.131  70.393  1.00  0.00    -0.025 A 
HETATM   18  C25 UNL     1      56.188  32.878  69.264  1.00  0.00     0.012 A 
HETATM   19  C29 UNL     1      56.451  32.678  71.648  1.00  0.00    -0.015 A 
HETATM   20  C26 UNL     1      55.887  34.234  69.431  1.00  0.00     0.001 A 
HETATM   21  C27 UNL     1      55.870  34.787  70.691  1.00  0.00     0.001 A 
HETATM   22  C28 UNL     1      56.147  34.034  71.810  1.00  0.00     0.013 A 
ENDBRANCH  11  13
ENDBRANCH   1  11
BRANCH   3  23
HETATM   23  O1  UNL     1      60.772  31.800  76.915  1.00  0.00    -0.346 OA
BRANCH  23  24
HETATM   24  C6  UNL     1      60.611  31.023  78.026  1.00  0.00     0.214 C 
BRANCH  24  25
HETATM   25  C7  UNL     1      61.808  31.160  78.886  1.00  0.00    -0.034 A 
HETATM   26  C8  UNL     1      62.602  32.257  78.919  1.00  0.00     0.009 A 
HETATM   27  C9  UNL     1      63.679  32.273  79.776  1.00  0.00     0.001 A 
HETATM   28  C10 UNL     1      63.974  31.187  80.611  1.00  0.00     0.000 A 
HETATM   29  C11 UNL     1      63.174  30.069  80.583  1.00  0.00     0.001 A 
HETATM   30  C12 UNL     1      62.089  30.087  79.703  1.00  0.00     0.009 A 
ENDBRANCH  24  25
ENDBRANCH  23  24
ENDBRANCH   3  23
TORSDOF 5
ENDMDL
MODEL 5
REMARK VINA RESULT: -11.930993317      1.780      4.285
REMARK  5 active torsions:
REMARK  status: ('A' for Active; 'I' for Inactive)
REMARK    1  A    between atoms: C2_2  and  C3_3 
REMARK    2  A    between atoms: C2_2  and  C20_21 
REMARK    3  A    between atoms: C5_5  and  O1_6 
REMARK    4  A    between atoms: O1_6  and  C6_7 
REMARK    5  A    between atoms: C6_7  and  C7_8 
ROOT
HETATM    1  C3  UNL     1      57.776  32.603  74.960  1.00  0.00    -0.022 A 
HETATM    2  C4  UNL     1      58.199  31.934  76.073  1.00  0.00     0.050 A 
HETATM    3  C5  UNL     1      59.308  32.285  76.811  1.00  0.00     0.081 A 
HETATM    4  C13 UNL     1      60.011  33.411  76.337  1.00  0.00     0.007 A 
HETATM    5  C14 UNL     1      61.151  33.825  77.024  1.00  0.00     0.015 A 
HETATM    6  C15 UNL     1      61.825  34.916  76.552  1.00  0.00     0.001 A 
HETATM    7  C16 UNL     1      61.410  35.616  75.413  1.00  0.00     0.001 A 
HETATM    8  C17 UNL     1      60.291  35.212  74.735  1.00  0.00     0.012 A 
HETATM    9  C18 UNL     1      59.598  34.090  75.224  1.00  0.00    -0.022 A 
HETATM   10  C19 UNL     1      58.479  33.722  74.499  1.00  0.00     0.024 A 
ENDROOT
BRANCH   1  11
HETATM   11  C2  UNL     1      56.621  32.231  74.181  1.00  0.00    -0.024 C 
HETATM   12  C1  UNL     1      55.442  32.384  74.770  1.00  0.00     0.025 C 
BRANCH  11  13
HETATM   13  C20 UNL     1      56.666  31.764  72.812  1.00  0.00    -0.015 A 
HETATM   14  C21 UNL     1      56.990  30.406  72.628  1.00  0.00     0.013 A 
HETATM   15  C22 UNL     1      57.074  29.950  71.354  1.00  0.00     0.002 A 
HETATM   16  C23 UNL     1      56.852  30.763  70.242  1.00  0.00     0.012 A 
HETATM   17  C24 UNL     1      56.531  32.109  70.474  1.00  0.00    -0.025 A 
HETATM   18  C25 UNL     1      56.301  32.893  69.358  1.00  0.00     0.012 A 
HETATM   19  C29 UNL     1      56.436  32.607  71.745  1.00  0.00    -0.015 A 
HETATM   20  C26 UNL     1      55.963  34.236  69.558  1.00  0.00     0.001 A 
HETATM   21  C27 UNL     1      55.865  34.740  70.835  1.00  0.00     0.001 A 
HETATM   22  C28 UNL     1      56.096  33.950  71.939  1.00  0.00     0.013 A 
ENDBRANCH  11  13
ENDBRANCH   1  11
BRANCH   3  23
HETATM   23  O1  UNL     1      59.789  31.678  77.933  1.00  0.00    -0.346 OA
BRANCH  23  24
HETATM   24  C6  UNL     1      60.646  30.638  78.150  1.00  0.00     0.214 C 
BRANCH  24  25
HETATM   25  C7  UNL     1      59.866  29.382  78.236  1.00  0.00    -0.034 A 
HETATM   26  C8  UNL     1      58.547  29.323  78.537  1.00  0.00     0.009 A 
HETATM   27  C9  UNL     1      57.927  28.094  78.568  1.00  0.00     0.001 A 
HETATM   28  C10 UNL     1      58.624  26.909  78.299  1.00  0.00     0.000 A 
HETATM   29  C11 UNL     1      59.964  26.960  77.993  1.00  0.00     0.001 A 
HETATM   30  C12 UNL     1      60.561  28.223  77.969  1.00  0.00     0.009 A 
ENDBRANCH  24  25
ENDBRANCH  23  24
ENDBRANCH   3  23
TORSDOF 5
ENDMDL
