MODEL 1
REMARK VINA RESULT: -12.195087678      0.000      0.000
REMARK  5 active torsions:
REMARK  status: ('A' for Active; 'I' for Inactive)
REMARK    1  A    between atoms: C4_4  and  C5_5 
REMARK    2  A    between atoms: C5_5  and  O1_6 
REMARK    3  A    between atoms: O1_6  and  C6_7 
REMARK    4  A    between atoms: C10_11  and  C11_12 
REMARK    5  A    between atoms: C20_21  and  C21_22 
ROOT
HETATM    1  C11 UNL     1      59.786  32.016  76.850  1.00  0.00    -0.014 A 
HETATM    2  C12 UNL     1      60.500  33.191  76.890  1.00  0.00     0.014 A 
HETATM    3  C13 UNL     1      61.576  33.281  77.726  1.00  0.00     0.013 A 
HETATM    4  C14 UNL     1      61.954  32.209  78.530  1.00  0.00    -0.025 A 
HETATM    5  C15 UNL     1      63.037  32.337  79.370  1.00  0.00     0.012 A 
HETATM    6  C16 UNL     1      63.404  31.286  80.171  1.00  0.00     0.001 A 
HETATM    7  C17 UNL     1      62.701  30.095  80.148  1.00  0.00     0.001 A 
HETATM    8  C18 UNL     1      61.613  29.945  79.311  1.00  0.00     0.013 A 
HETATM    9  C19 UNL     1      61.256  31.006  78.514  1.00  0.00    -0.014 A 
HETATM   10  C20 UNL     1      60.156  30.936  77.648  1.00  0.00    -0.004 A 
ENDROOT
BRANCH   1  11
HETATM   11  C10 UNL     1      58.625  31.948  75.982  1.00  0.00    -0.022 A 
HETATM   12  C9  UNL     1      57.374  31.764  76.493  1.00  0.00     0.012 A 
HETATM   13  C8  UNL     1      56.328  31.713  75.579  1.00  0.00     0.004 A 
HETATM   14  C7  UNL     1      56.516  31.838  74.216  1.00  0.00     0.037 A 
HETATM   15  C6  UNL     1      57.776  32.021  73.704  1.00  0.00     0.070 A 
HETATM   16  C27 UNL     1      58.818  32.074  74.604  1.00  0.00     0.049 A 
BRANCH  15  17
HETATM   17  O1  UNL     1      58.038  32.154  72.320  1.00  0.00    -0.347 OA
BRANCH  17  18
HETATM   18  C5  UNL     1      57.231  31.398  71.411  1.00  0.00     0.214 C 
BRANCH  18  19
HETATM   19  C4  UNL     1      56.307  32.310  70.712  1.00  0.00    -0.034 A 
HETATM   20  C3  UNL     1      55.172  31.800  70.072  1.00  0.00     0.009 A 
HETATM   21  C2  UNL     1      54.279  32.615  69.407  1.00  0.00     0.001 A 
HETATM   22  C1  UNL     1      54.471  33.971  69.348  1.00  0.00     0.000 A 
HETATM   23  C29 UNL     1      55.600  34.488  69.984  1.00  0.00     0.001 A 
HETATM   24  C28 UNL     1      56.497  33.672  70.651  1.00  0.00     0.009 A 
ENDBRANCH  18  19
ENDBRANCH  17  18
ENDBRANCH  15  17
ENDBRANCH   1  11
BRANCH  10  25
HETATM   25  C21 UNL     1      59.407  29.697  77.615  1.00  0.00    -0.024 A 
HETATM   26  C22 UNL     1      58.461  29.331  78.580  1.00  0.00     0.012 A 
HETATM   27  C23 UNL     1      57.766  28.147  78.476  1.00  0.00     0.001 A 
HETATM   28  C24 UNL     1      57.977  27.288  77.427  1.00  0.00     0.000 A 
HETATM   29  C25 UNL     1      58.896  27.618  76.468  1.00  0.00     0.001 A 
HETATM   30  C26 UNL     1      59.578  28.810  76.595  1.00  0.00     0.012 A 
ENDBRANCH  10  25
TORSDOF 5
ENDMDL
MODEL 2
REMARK VINA RESULT: -11.883164316      2.692      5.493
REMARK  5 active torsions:
REMARK  status: ('A' for Active; 'I' for Inactive)
REMARK    1  A    between atoms: C4_4  and  C5_5 
REMARK    2  A    between atoms: C5_5  and  O1_6 
REMARK    3  A    between atoms: O1_6  and  C6_7 
REMARK    4  A    between atoms: C10_11  and  C11_12 
REMARK    5  A    between atoms: C20_21  and  C21_22 
ROOT
HETATM    1  C11 UNL     1      56.800  30.408  73.231  1.00  0.00    -0.014 A 
HETATM    2  C12 UNL     1      56.362  29.114  73.386  1.00  0.00     0.014 A 
HETATM    3  C13 UNL     1      56.501  28.512  74.604  1.00  0.00     0.013 A 
HETATM    4  C14 UNL     1      57.076  29.186  75.678  1.00  0.00    -0.025 A 
HETATM    5  C15 UNL     1      57.212  28.545  76.889  1.00  0.00     0.012 A 
HETATM    6  C16 UNL     1      57.789  29.203  77.945  1.00  0.00     0.001 A 
HETATM    7  C17 UNL     1      58.237  30.505  77.813  1.00  0.00     0.001 A 
HETATM    8  C18 UNL     1      58.109  31.166  76.607  1.00  0.00     0.013 A 
HETATM    9  C19 UNL     1      57.529  30.495  75.557  1.00  0.00    -0.014 A 
HETATM   10  C20 UNL     1      57.375  31.093  74.299  1.00  0.00    -0.004 A 
ENDROOT
BRANCH   1  11
HETATM   11  C10 UNL     1      56.675  31.023  71.923  1.00  0.00    -0.022 A 
HETATM   12  C9  UNL     1      57.528  30.699  70.909  1.00  0.00     0.012 A 
HETATM   13  C8  UNL     1      57.325  31.343  69.694  1.00  0.00     0.004 A 
HETATM   14  C7  UNL     1      56.320  32.269  69.494  1.00  0.00     0.037 A 
HETATM   15  C6  UNL     1      55.465  32.594  70.515  1.00  0.00     0.070 A 
HETATM   16  C27 UNL     1      55.658  31.960  71.724  1.00  0.00     0.049 A 
BRANCH  15  17
HETATM   17  O1  UNL     1      54.416  33.535  70.379  1.00  0.00    -0.347 OA
BRANCH  17  18
HETATM   18  C5  UNL     1      53.458  33.321  69.337  1.00  0.00     0.214 C 
BRANCH  18  19
HETATM   19  C4  UNL     1      53.586  34.397  68.336  1.00  0.00    -0.034 A 
HETATM   20  C3  UNL     1      53.110  34.201  67.035  1.00  0.00     0.009 A 
HETATM   21  C2  UNL     1      53.206  35.179  66.066  1.00  0.00     0.001 A 
HETATM   22  C1  UNL     1      53.777  36.394  66.345  1.00  0.00     0.000 A 
HETATM   23  C29 UNL     1      54.253  36.598  67.639  1.00  0.00     0.001 A 
HETATM   24  C28 UNL     1      54.158  35.618  68.613  1.00  0.00     0.009 A 
ENDBRANCH  18  19
ENDBRANCH  17  18
ENDBRANCH  15  17
ENDBRANCH   1  11
BRANCH  10  25
HETATM   25  C21 UNL     1      57.842  32.455  74.143  1.00  0.00    -0.024 A 
HETATM   26  C22 UNL     1      57.086  33.584  74.484  1.00  0.00     0.012 A 
HETATM   27  C23 UNL     1      57.601  34.851  74.332  1.00  0.00     0.001 A 
HETATM   28  C24 UNL     1      58.867  35.052  73.843  1.00  0.00     0.000 A 
HETATM   29  C25 UNL     1      59.630  33.968  73.501  1.00  0.00     0.001 A 
HETATM   30  C26 UNL     1      59.091  32.709  73.663  1.00  0.00     0.012 A 
ENDBRANCH  10  25
TORSDOF 5
ENDMDL
MODEL 3
REMARK VINA RESULT: -11.706781498      1.674      2.571
REMARK  5 active torsions:
REMARK  status: ('A' for Active; 'I' for Inactive)
REMARK    1  A    between atoms: C4_4  and  C5_5 
REMARK    2  A    between atoms: C5_5  and  O1_6 
REMARK    3  A    between atoms: O1_6  and  C6_7 
REMARK    4  A    between atoms: C10_11  and  C11_12 
REMARK    5  A    between atoms: C20_21  and  C21_22 
ROOT
HETATM    1  C11 UNL     1      58.842  33.524  75.077  1.00  0.00    -0.014 A 
HETATM    2  C12 UNL     1      59.630  34.639  74.912  1.00  0.00     0.014 A 
HETATM    3  C13 UNL     1      60.747  34.778  75.687  1.00  0.00     0.013 A 
HETATM    4  C14 UNL     1      61.091  33.816  76.632  1.00  0.00    -0.025 A 
HETATM    5  C15 UNL     1      62.216  33.993  77.405  1.00  0.00     0.012 A 
HETATM    6  C16 UNL     1      62.550  33.052  78.344  1.00  0.00     0.001 A 
HETATM    7  C17 UNL     1      61.773  31.923  78.528  1.00  0.00     0.001 A 
HETATM    8  C18 UNL     1      60.641  31.725  77.762  1.00  0.00     0.013 A 
HETATM    9  C19 UNL     1      60.317  32.676  76.825  1.00  0.00    -0.014 A 
HETATM   10  C20 UNL     1      59.178  32.553  76.018  1.00  0.00    -0.004 A 
ENDROOT
BRANCH   1  11
HETATM   11  C10 UNL     1      57.641  33.407  74.270  1.00  0.00    -0.022 A 
HETATM   12  C9  UNL     1      56.403  33.485  74.836  1.00  0.00     0.012 A 
HETATM   13  C8  UNL     1      55.317  33.361  73.977  1.00  0.00     0.004 A 
HETATM   14  C7  UNL     1      55.454  33.166  72.616  1.00  0.00     0.037 A 
HETATM   15  C6  UNL     1      56.700  33.087  72.050  1.00  0.00     0.070 A 
HETATM   16  C27 UNL     1      57.783  33.210  72.894  1.00  0.00     0.049 A 
BRANCH  15  17
HETATM   17  O1  UNL     1      56.912  32.887  70.666  1.00  0.00    -0.347 OA
BRANCH  17  18
HETATM   18  C5  UNL     1      55.806  32.429  69.880  1.00  0.00     0.214 C 
BRANCH  18  19
HETATM   19  C4  UNL     1      55.067  33.595  69.361  1.00  0.00    -0.034 A 
HETATM   20  C3  UNL     1      55.743  34.793  69.105  1.00  0.00     0.009 A 
HETATM   21  C2  UNL     1      55.093  35.910  68.618  1.00  0.00     0.001 A 
HETATM   22  C1  UNL     1      53.746  35.886  68.362  1.00  0.00     0.000 A 
HETATM   23  C29 UNL     1      53.065  34.696  68.614  1.00  0.00     0.001 A 
HETATM   24  C28 UNL     1      53.714  33.575  69.104  1.00  0.00     0.009 A 
ENDBRANCH  18  19
ENDBRANCH  17  18
ENDBRANCH  15  17
ENDBRANCH   1  11
BRANCH  10  25
HETATM   25  C21 UNL     1      58.351  31.378  76.201  1.00  0.00    -0.024 A 
HETATM   26  C22 UNL     1      57.471  31.204  77.276  1.00  0.00     0.012 A 
HETATM   27  C23 UNL     1      56.695  30.071  77.378  1.00  0.00     0.001 A 
HETATM   28  C24 UNL     1      56.757  29.078  76.433  1.00  0.00     0.000 A 
HETATM   29  C25 UNL     1      57.609  29.221  75.370  1.00  0.00     0.001 A 
HETATM   30  C26 UNL     1      58.375  30.365  75.291  1.00  0.00     0.012 A 
ENDBRANCH  10  25
TORSDOF 5
ENDMDL
MODEL 4
REMARK VINA RESULT: -11.666485449      1.893      8.646
REMARK  5 active torsions:
REMARK  status: ('A' for Active; 'I' for Inactive)
REMARK    1  A    between atoms: C4_4  and  C5_5 
REMARK    2  A    between atoms: C5_5  and  O1_6 
REMARK    3  A    between atoms: O1_6  and  C6_7 
REMARK    4  A    between atoms: C10_11  and  C11_12 
REMARK    5  A    between atoms: C20_21  and  C21_22 
ROOT
HETATM    1  C11 UNL     1      55.484  31.478  72.019  1.00  0.00    -0.014 A 
HETATM    2  C12 UNL     1      54.457  30.948  71.274  1.00  0.00     0.014 A 
HETATM    3  C13 UNL     1      53.938  31.685  70.247  1.00  0.00     0.013 A 
HETATM    4  C14 UNL     1      54.432  32.952  69.951  1.00  0.00    -0.025 A 
HETATM    5  C15 UNL     1      53.878  33.673  68.916  1.00  0.00     0.012 A 
HETATM    6  C16 UNL     1      54.355  34.926  68.631  1.00  0.00     0.001 A 
HETATM    7  C17 UNL     1      55.387  35.480  69.366  1.00  0.00     0.001 A 
HETATM    8  C18 UNL     1      55.957  34.773  70.407  1.00  0.00     0.013 A 
HETATM    9  C19 UNL     1      55.470  33.518  70.682  1.00  0.00    -0.014 A 
HETATM   10  C20 UNL     1      55.988  32.744  71.730  1.00  0.00    -0.004 A 
ENDROOT
BRANCH   1  11
HETATM   11  C10 UNL     1      56.002  30.698  73.127  1.00  0.00    -0.022 A 
HETATM   12  C9  UNL     1      56.430  29.416  72.946  1.00  0.00     0.012 A 
HETATM   13  C8  UNL     1      56.909  28.754  74.071  1.00  0.00     0.004 A 
HETATM   14  C7  UNL     1      56.959  29.339  75.322  1.00  0.00     0.037 A 
HETATM   15  C6  UNL     1      56.526  30.627  75.501  1.00  0.00     0.070 A 
HETATM   16  C27 UNL     1      56.051  31.292  74.392  1.00  0.00     0.049 A 
BRANCH  15  17
HETATM   17  O1  UNL     1      56.548  31.285  76.754  1.00  0.00    -0.347 OA
BRANCH  17  18
HETATM   18  C5  UNL     1      57.266  30.660  77.824  1.00  0.00     0.214 C 
BRANCH  18  19
HETATM   19  C4  UNL     1      58.675  31.091  77.776  1.00  0.00    -0.034 A 
HETATM   20  C3  UNL     1      59.672  30.285  78.338  1.00  0.00     0.009 A 
HETATM   21  C2  UNL     1      61.004  30.647  78.316  1.00  0.00     0.001 A 
HETATM   22  C1  UNL     1      61.405  31.822  77.736  1.00  0.00     0.000 A 
HETATM   23  C29 UNL     1      60.419  32.631  77.174  1.00  0.00     0.001 A 
HETATM   24  C28 UNL     1      59.082  32.271  77.195  1.00  0.00     0.009 A 
ENDBRANCH  18  19
ENDBRANCH  17  18
ENDBRANCH  15  17
ENDBRANCH   1  11
BRANCH  10  25
HETATM   25  C21 UNL     1      57.066  33.311  72.513  1.00  0.00    -0.024 A 
HETATM   26  C22 UNL     1      56.890  34.321  73.467  1.00  0.00     0.012 A 
HETATM   27  C23 UNL     1      57.957  34.800  74.194  1.00  0.00     0.001 A 
HETATM   28  C24 UNL     1      59.224  34.306  74.009  1.00  0.00     0.000 A 
HETATM   29  C25 UNL     1      59.427  33.319  73.082  1.00  0.00     0.001 A 
HETATM   30  C26 UNL     1      58.342  32.857  72.367  1.00  0.00     0.012 A 
ENDBRANCH  10  25
TORSDOF 5
ENDMDL
MODEL 5
REMARK VINA RESULT: -11.563668975      2.323      4.023
REMARK  5 active torsions:
REMARK  status: ('A' for Active; 'I' for Inactive)
REMARK    1  A    between atoms: C4_4  and  C5_5 
REMARK    2  A    between atoms: C5_5  and  O1_6 
REMARK    3  A    between atoms: O1_6  and  C6_7 
REMARK    4  A    between atoms: C10_11  and  C11_12 
REMARK    5  A    between atoms: C20_21  and  C21_22 
ROOT
HETATM    1  C11 UNL     1      58.332  32.974  73.336  1.00  0.00    -0.014 A 
HETATM    2  C12 UNL     1      59.088  34.069  72.989  1.00  0.00     0.014 A 
HETATM    3  C13 UNL     1      59.921  34.618  73.922  1.00  0.00     0.013 A 
HETATM    4  C14 UNL     1      60.012  34.087  75.206  1.00  0.00    -0.025 A 
HETATM    5  C15 UNL     1      60.852  34.672  76.126  1.00  0.00     0.012 A 
HETATM    6  C16 UNL     1      60.934  34.158  77.395  1.00  0.00     0.001 A 
HETATM    7  C17 UNL     1      60.183  33.057  77.766  1.00  0.00     0.001 A 
HETATM    8  C18 UNL     1      59.335  32.455  76.858  1.00  0.00     0.013 A 
HETATM    9  C19 UNL     1      59.262  32.981  75.590  1.00  0.00    -0.014 A 
HETATM   10  C20 UNL     1      58.416  32.433  74.616  1.00  0.00    -0.004 A 
ENDROOT
BRANCH   1  11
HETATM   11  C10 UNL     1      57.427  32.423  72.344  1.00  0.00    -0.022 A 
HETATM   12  C9  UNL     1      57.588  31.155  71.871  1.00  0.00     0.012 A 
HETATM   13  C8  UNL     1      56.668  30.720  70.924  1.00  0.00     0.004 A 
HETATM   14  C7  UNL     1      55.633  31.512  70.465  1.00  0.00     0.037 A 
HETATM   15  C6  UNL     1      55.473  32.788  70.941  1.00  0.00     0.070 A 
HETATM   16  C27 UNL     1      56.381  33.227  71.882  1.00  0.00     0.049 A 
BRANCH  15  17
HETATM   17  O1  UNL     1      54.437  33.651  70.513  1.00  0.00    -0.347 OA
BRANCH  17  18
HETATM   18  C5  UNL     1      53.628  33.228  69.410  1.00  0.00     0.214 C 
BRANCH  18  19
HETATM   19  C4  UNL     1      53.674  34.258  68.356  1.00  0.00    -0.034 A 
HETATM   20  C3  UNL     1      53.147  33.985  67.089  1.00  0.00     0.009 A 
HETATM   21  C2  UNL     1      53.166  34.918  66.072  1.00  0.00     0.001 A 
HETATM   22  C1  UNL     1      53.707  36.163  66.267  1.00  0.00     0.000 A 
HETATM   23  C29 UNL     1      54.234  36.444  67.527  1.00  0.00     0.001 A 
HETATM   24  C28 UNL     1      54.216  35.509  68.549  1.00  0.00     0.009 A 
ENDBRANCH  18  19
ENDBRANCH  17  18
ENDBRANCH  15  17
ENDBRANCH   1  11
BRANCH  10  25
HETATM   25  C21 UNL     1      57.620  31.282  74.991  1.00  0.00    -0.024 A 
HETATM   26  C22 UNL     1      56.235  31.325  75.196  1.00  0.00     0.012 A 
HETATM   27  C23 UNL     1      55.535  30.188  75.528  1.00  0.00     0.001 A 
HETATM   28  C24 UNL     1      56.166  28.978  75.669  1.00  0.00     0.000 A 
HETATM   29  C25 UNL     1      57.519  28.905  75.474  1.00  0.00     0.001 A 
HETATM   30  C26 UNL     1      58.198  30.059  75.142  1.00  0.00     0.012 A 
ENDBRANCH  10  25
TORSDOF 5
ENDMDL
