MODEL 1
REMARK VINA RESULT: -11.234104152      0.000      0.000
REMARK  5 active torsions:
REMARK  status: ('A' for Active; 'I' for Inactive)
REMARK    1  A    between atoms: C4_4  and  O1_5 
REMARK    2  A    between atoms: O1_5  and  C5_6 
REMARK    3  A    between atoms: C5_6  and  C6_7 
REMARK    4  A    between atoms: C5_6  and  C18_19 
REMARK    5  A    between atoms: C10_11  and  C11_12 
ROOT
HETATM    1  C5  UNL     1      60.577  31.885  77.095  1.00  0.00     0.196 C 
ENDROOT
BRANCH   1   2
HETATM    2  O1  UNL     1      61.135  32.477  78.244  1.00  0.00    -0.337 OA
BRANCH   2   3
HETATM    3  C4  UNL     1      62.220  32.149  78.960  1.00  0.00     0.070 A 
HETATM    4  C3  UNL     1      63.388  32.866  78.941  1.00  0.00     0.037 A 
HETATM    5  C2  UNL     1      64.491  32.472  79.715  1.00  0.00     0.003 A 
HETATM    6  C1  UNL     1      64.419  31.352  80.509  1.00  0.00     0.000 A 
HETATM    7  C29 UNL     1      63.238  30.620  80.534  1.00  0.00     0.003 A 
HETATM    8  C28 UNL     1      62.186  31.033  79.768  1.00  0.00     0.037 A 
ENDBRANCH   2   3
ENDBRANCH   1   2
BRANCH   1   9
HETATM    9  C6  UNL     1      60.216  33.018  76.186  1.00  0.00    -0.024 A 
HETATM   10  C7  UNL     1      60.677  34.302  76.348  1.00  0.00     0.010 A 
HETATM   11  C8  UNL     1      60.309  35.322  75.488  1.00  0.00     0.002 A 
HETATM   12  C9  UNL     1      59.457  35.072  74.424  1.00  0.00     0.012 A 
HETATM   13  C10 UNL     1      58.975  33.795  74.231  1.00  0.00    -0.025 A 
HETATM   14  C17 UNL     1      59.361  32.818  75.100  1.00  0.00     0.022 A 
BRANCH  13  15
HETATM   15  C11 UNL     1      58.064  33.503  73.104  1.00  0.00    -0.026 A 
HETATM   16  C12 UNL     1      58.179  32.276  72.470  1.00  0.00     0.012 A 
HETATM   17  C13 UNL     1      57.337  31.983  71.416  1.00  0.00     0.001 A 
HETATM   18  C14 UNL     1      56.391  32.903  70.996  1.00  0.00     0.000 A 
HETATM   19  C15 UNL     1      56.272  34.128  71.625  1.00  0.00     0.001 A 
HETATM   20  C16 UNL     1      57.119  34.407  72.676  1.00  0.00     0.012 A 
ENDBRANCH  13  15
ENDBRANCH   1   9
BRANCH   1  21
HETATM   21  C18 UNL     1      59.409  31.130  77.443  1.00  0.00    -0.013 A 
HETATM   22  C19 UNL     1      58.204  31.786  77.578  1.00  0.00     0.011 A 
HETATM   23  C20 UNL     1      57.029  31.131  77.901  1.00  0.00     0.002 A 
HETATM   24  C21 UNL     1      57.035  29.770  78.103  1.00  0.00     0.012 A 
HETATM   25  C22 UNL     1      58.251  29.073  77.974  1.00  0.00    -0.025 A 
HETATM   26  C23 UNL     1      58.282  27.710  78.177  1.00  0.00     0.012 A 
HETATM   27  C27 UNL     1      59.395  29.749  77.653  1.00  0.00    -0.017 A 
HETATM   28  C24 UNL     1      59.477  27.039  78.054  1.00  0.00     0.001 A 
HETATM   29  C25 UNL     1      60.634  27.738  77.727  1.00  0.00     0.001 A 
HETATM   30  C26 UNL     1      60.573  29.098  77.529  1.00  0.00     0.013 A 
ENDBRANCH   1  21
TORSDOF 5
ENDMDL
MODEL 2
REMARK VINA RESULT: -11.122564591      1.099      1.527
REMARK  5 active torsions:
REMARK  status: ('A' for Active; 'I' for Inactive)
REMARK    1  A    between atoms: C4_4  and  O1_5 
REMARK    2  A    between atoms: O1_5  and  C5_6 
REMARK    3  A    between atoms: C5_6  and  C6_7 
REMARK    4  A    between atoms: C5_6  and  C18_19 
REMARK    5  A    between atoms: C10_11  and  C11_12 
ROOT
HETATM    1  C5  UNL     1      59.894  31.421  76.243  1.00  0.00     0.196 C 
ENDROOT
BRANCH   1   2
HETATM    2  O1  UNL     1      60.206  32.029  77.473  1.00  0.00    -0.337 OA
BRANCH   2   3
HETATM    3  C4  UNL     1      61.340  32.029  78.189  1.00  0.00     0.070 A 
HETATM    4  C3  UNL     1      62.290  33.013  78.107  1.00  0.00     0.037 A 
HETATM    5  C2  UNL     1      63.458  32.956  78.883  1.00  0.00     0.003 A 
HETATM    6  C1  UNL     1      63.671  31.906  79.745  1.00  0.00     0.000 A 
HETATM    7  C29 UNL     1      62.711  30.905  79.834  1.00  0.00     0.003 A 
HETATM    8  C28 UNL     1      61.588  30.993  79.064  1.00  0.00     0.037 A 
ENDBRANCH   2   3
ENDBRANCH   1   2
BRANCH   1   9
HETATM    9  C6  UNL     1      59.591  32.542  75.298  1.00  0.00    -0.024 A 
HETATM   10  C7  UNL     1      60.034  33.830  75.477  1.00  0.00     0.010 A 
HETATM   11  C8  UNL     1      59.722  34.838  74.582  1.00  0.00     0.002 A 
HETATM   12  C9  UNL     1      58.947  34.571  73.464  1.00  0.00     0.012 A 
HETATM   13  C10 UNL     1      58.486  33.289  73.252  1.00  0.00    -0.025 A 
HETATM   14  C17 UNL     1      58.815  32.325  74.157  1.00  0.00     0.022 A 
BRANCH  13  15
HETATM   15  C11 UNL     1      57.658  32.980  72.068  1.00  0.00    -0.026 A 
HETATM   16  C12 UNL     1      56.921  34.007  71.499  1.00  0.00     0.012 A 
HETATM   17  C13 UNL     1      56.141  33.740  70.391  1.00  0.00     0.001 A 
HETATM   18  C14 UNL     1      56.094  32.463  69.857  1.00  0.00     0.000 A 
HETATM   19  C15 UNL     1      56.826  31.436  70.421  1.00  0.00     0.001 A 
HETATM   20  C16 UNL     1      57.600  31.717  71.526  1.00  0.00     0.012 A 
ENDBRANCH  13  15
ENDBRANCH   1   9
BRANCH   1  21
HETATM   21  C18 UNL     1      58.751  30.566  76.388  1.00  0.00    -0.013 A 
HETATM   22  C19 UNL     1      57.508  31.043  76.032  1.00  0.00     0.011 A 
HETATM   23  C20 UNL     1      56.358  30.281  76.132  1.00  0.00     0.002 A 
HETATM   24  C21 UNL     1      56.430  28.990  76.602  1.00  0.00     0.012 A 
HETATM   25  C22 UNL     1      57.685  28.474  76.973  1.00  0.00    -0.025 A 
HETATM   26  C23 UNL     1      57.779  27.185  77.453  1.00  0.00     0.012 A 
HETATM   27  C27 UNL     1      58.803  29.253  76.863  1.00  0.00    -0.017 A 
HETATM   28  C24 UNL     1      59.012  26.693  77.819  1.00  0.00     0.001 A 
HETATM   29  C25 UNL     1      60.141  27.495  77.702  1.00  0.00     0.001 A 
HETATM   30  C26 UNL     1      60.017  28.778  77.220  1.00  0.00     0.013 A 
ENDBRANCH   1  21
TORSDOF 5
ENDMDL
MODEL 3
REMARK VINA RESULT: -11.075317766      1.534      6.869
REMARK  5 active torsions:
REMARK  status: ('A' for Active; 'I' for Inactive)
REMARK    1  A    between atoms: C4_4  and  O1_5 
REMARK    2  A    between atoms: O1_5  and  C5_6 
REMARK    3  A    between atoms: C5_6  and  C6_7 
REMARK    4  A    between atoms: C5_6  and  C18_19 
REMARK    5  A    between atoms: C10_11  and  C11_12 
ROOT
HETATM    1  C5  UNL     1      58.149  31.606  74.400  1.00  0.00     0.196 C 
ENDROOT
BRANCH   1   2
HETATM    2  O1  UNL     1      57.289  31.020  75.349  1.00  0.00    -0.337 OA
BRANCH   2   3
HETATM    3  C4  UNL     1      57.471  29.977  76.171  1.00  0.00     0.070 A 
HETATM    4  C3  UNL     1      57.454  30.076  77.538  1.00  0.00     0.037 A 
HETATM    5  C2  UNL     1      57.652  28.946  78.346  1.00  0.00     0.003 A 
HETATM    6  C1  UNL     1      57.867  27.712  77.779  1.00  0.00     0.000 A 
HETATM    7  C29 UNL     1      57.886  27.604  76.393  1.00  0.00     0.003 A 
HETATM    8  C28 UNL     1      57.691  28.725  75.639  1.00  0.00     0.037 A 
ENDBRANCH   2   3
ENDBRANCH   1   2
BRANCH   1   9
HETATM    9  C6  UNL     1      59.125  32.426  75.185  1.00  0.00    -0.024 A 
HETATM   10  C7  UNL     1      59.388  33.750  74.927  1.00  0.00     0.010 A 
HETATM   11  C8  UNL     1      60.307  34.468  75.672  1.00  0.00     0.002 A 
HETATM   12  C9  UNL     1      60.993  33.864  76.714  1.00  0.00     0.012 A 
HETATM   13  C10 UNL     1      60.754  32.537  77.001  1.00  0.00    -0.025 A 
HETATM   14  C17 UNL     1      59.842  31.865  76.243  1.00  0.00     0.022 A 
BRANCH  13  15
HETATM   15  C11 UNL     1      61.474  31.870  78.106  1.00  0.00    -0.026 A 
HETATM   16  C12 UNL     1      61.094  30.583  78.453  1.00  0.00     0.012 A 
HETATM   17  C13 UNL     1      61.755  29.942  79.481  1.00  0.00     0.001 A 
HETATM   18  C14 UNL     1      62.782  30.576  80.159  1.00  0.00     0.000 A 
HETATM   19  C15 UNL     1      63.165  31.860  79.818  1.00  0.00     0.001 A 
HETATM   20  C16 UNL     1      62.497  32.488  78.789  1.00  0.00     0.012 A 
ENDBRANCH  13  15
ENDBRANCH   1   9
BRANCH   1  21
HETATM   21  C18 UNL     1      57.403  32.439  73.502  1.00  0.00    -0.013 A 
HETATM   22  C19 UNL     1      56.927  33.651  73.952  1.00  0.00     0.011 A 
HETATM   23  C20 UNL     1      56.208  34.517  73.148  1.00  0.00     0.002 A 
HETATM   24  C21 UNL     1      55.942  34.179  71.841  1.00  0.00     0.012 A 
HETATM   25  C22 UNL     1      56.415  32.947  71.352  1.00  0.00    -0.025 A 
HETATM   26  C23 UNL     1      56.155  32.584  70.048  1.00  0.00     0.012 A 
HETATM   27  C27 UNL     1      57.123  32.113  72.173  1.00  0.00    -0.017 A 
HETATM   28  C24 UNL     1      56.617  31.374  69.582  1.00  0.00     0.001 A 
HETATM   29  C25 UNL     1      57.335  30.535  70.426  1.00  0.00     0.001 A 
HETATM   30  C26 UNL     1      57.580  30.922  71.723  1.00  0.00     0.013 A 
ENDBRANCH   1  21
TORSDOF 5
ENDMDL
MODEL 4
REMARK VINA RESULT: -11.039926417      1.561      6.831
REMARK  5 active torsions:
REMARK  status: ('A' for Active; 'I' for Inactive)
REMARK    1  A    between atoms: C4_4  and  O1_5 
REMARK    2  A    between atoms: O1_5  and  C5_6 
REMARK    3  A    between atoms: C5_6  and  C6_7 
REMARK    4  A    between atoms: C5_6  and  C18_19 
REMARK    5  A    between atoms: C10_11  and  C11_12 
ROOT
HETATM    1  C5  UNL     1      58.079  31.425  74.646  1.00  0.00     0.196 C 
ENDROOT
BRANCH   1   2
HETATM    2  O1  UNL     1      57.330  30.818  75.672  1.00  0.00    -0.337 OA
BRANCH   2   3
HETATM    3  C4  UNL     1      57.530  29.676  76.346  1.00  0.00     0.070 A 
HETATM    4  C3  UNL     1      57.584  28.442  75.753  1.00  0.00     0.037 A 
HETATM    5  C2  UNL     1      57.797  27.283  76.515  1.00  0.00     0.003 A 
HETATM    6  C1  UNL     1      57.956  27.365  77.878  1.00  0.00     0.000 A 
HETATM    7  C29 UNL     1      57.902  28.613  78.487  1.00  0.00     0.003 A 
HETATM    8  C28 UNL     1      57.693  29.719  77.715  1.00  0.00     0.037 A 
ENDBRANCH   2   3
ENDBRANCH   1   2
BRANCH   1   9
HETATM    9  C6  UNL     1      59.070  32.311  75.334  1.00  0.00    -0.024 A 
HETATM   10  C7  UNL     1      59.281  33.626  74.994  1.00  0.00     0.010 A 
HETATM   11  C8  UNL     1      60.216  34.407  75.651  1.00  0.00     0.002 A 
HETATM   12  C9  UNL     1      60.973  33.877  76.684  1.00  0.00     0.012 A 
HETATM   13  C10 UNL     1      60.788  32.561  77.052  1.00  0.00    -0.025 A 
HETATM   14  C17 UNL     1      59.858  31.826  76.380  1.00  0.00     0.022 A 
BRANCH  13  15
HETATM   15  C11 UNL     1      61.584  31.974  78.150  1.00  0.00    -0.026 A 
HETATM   16  C12 UNL     1      62.642  32.711  78.658  1.00  0.00     0.012 A 
HETATM   17  C13 UNL     1      63.398  32.182  79.684  1.00  0.00     0.001 A 
HETATM   18  C14 UNL     1      63.104  30.930  80.200  1.00  0.00     0.000 A 
HETATM   19  C15 UNL     1      62.051  30.191  79.696  1.00  0.00     0.001 A 
HETATM   20  C16 UNL     1      61.304  30.732  78.672  1.00  0.00     0.012 A 
ENDBRANCH  13  15
ENDBRANCH   1   9
BRANCH   1  21
HETATM   21  C18 UNL     1      57.221  32.198  73.796  1.00  0.00    -0.013 A 
HETATM   22  C19 UNL     1      56.611  33.324  74.306  1.00  0.00     0.011 A 
HETATM   23  C20 UNL     1      55.778  34.129  73.551  1.00  0.00     0.002 A 
HETATM   24  C21 UNL     1      55.530  33.816  72.234  1.00  0.00     0.012 A 
HETATM   25  C22 UNL     1      56.138  32.672  71.685  1.00  0.00    -0.025 A 
HETATM   26  C23 UNL     1      55.899  32.336  70.369  1.00  0.00     0.012 A 
HETATM   27  C27 UNL     1      56.957  31.896  72.458  1.00  0.00    -0.017 A 
HETATM   28  C24 UNL     1      56.495  31.212  69.844  1.00  0.00     0.001 A 
HETATM   29  C25 UNL     1      57.325  30.431  70.640  1.00  0.00     0.001 A 
HETATM   30  C26 UNL     1      57.546  30.790  71.950  1.00  0.00     0.013 A 
ENDBRANCH   1  21
TORSDOF 5
ENDMDL
MODEL 5
REMARK VINA RESULT: -10.963920769      2.282      7.468
REMARK  5 active torsions:
REMARK  status: ('A' for Active; 'I' for Inactive)
REMARK    1  A    between atoms: C4_4  and  O1_5 
REMARK    2  A    between atoms: O1_5  and  C5_6 
REMARK    3  A    between atoms: C5_6  and  C6_7 
REMARK    4  A    between atoms: C5_6  and  C18_19 
REMARK    5  A    between atoms: C10_11  and  C11_12 
ROOT
HETATM    1  C5  UNL     1      57.443  32.202  73.779  1.00  0.00     0.196 C 
ENDROOT
BRANCH   1   2
HETATM    2  O1  UNL     1      58.819  32.437  73.961  1.00  0.00    -0.337 OA
BRANCH   2   3
HETATM    3  C4  UNL     1      59.463  33.399  74.637  1.00  0.00     0.070 A 
HETATM    4  C3  UNL     1      59.693  34.654  74.138  1.00  0.00     0.037 A 
HETATM    5  C2  UNL     1      60.374  35.620  74.895  1.00  0.00     0.003 A 
HETATM    6  C1  UNL     1      60.825  35.322  76.159  1.00  0.00     0.000 A 
HETATM    7  C29 UNL     1      60.595  34.051  76.673  1.00  0.00     0.003 A 
HETATM    8  C28 UNL     1      59.930  33.137  75.908  1.00  0.00     0.037 A 
ENDBRANCH   2   3
ENDBRANCH   1   2
BRANCH   1   9
HETATM    9  C6  UNL     1      57.114  31.014  74.627  1.00  0.00    -0.024 A 
HETATM   10  C7  UNL     1      55.861  30.455  74.703  1.00  0.00     0.010 A 
HETATM   11  C8  UNL     1      55.599  29.361  75.508  1.00  0.00     0.002 A 
HETATM   12  C9  UNL     1      56.608  28.790  76.269  1.00  0.00     0.012 A 
HETATM   13  C10 UNL     1      57.877  29.325  76.217  1.00  0.00    -0.025 A 
HETATM   14  C17 UNL     1      58.094  30.402  75.412  1.00  0.00     0.022 A 
BRANCH  13  15
HETATM   15  C11 UNL     1      58.969  28.734  77.019  1.00  0.00    -0.026 A 
HETATM   16  C12 UNL     1      60.000  29.564  77.433  1.00  0.00     0.012 A 
HETATM   17  C13 UNL     1      61.029  29.033  78.185  1.00  0.00     0.001 A 
HETATM   18  C14 UNL     1      61.033  27.689  78.519  1.00  0.00     0.000 A 
HETATM   19  C15 UNL     1      60.008  26.858  78.109  1.00  0.00     0.001 A 
HETATM   20  C16 UNL     1      58.987  27.401  77.360  1.00  0.00     0.012 A 
ENDBRANCH  13  15
ENDBRANCH   1   9
BRANCH   1  21
HETATM   21  C18 UNL     1      57.166  31.925  72.399  1.00  0.00    -0.013 A 
HETATM   22  C19 UNL     1      57.429  30.667  71.902  1.00  0.00     0.011 A 
HETATM   23  C20 UNL     1      57.182  30.315  70.588  1.00  0.00     0.002 A 
HETATM   24  C21 UNL     1      56.652  31.240  69.719  1.00  0.00     0.012 A 
HETATM   25  C22 UNL     1      56.373  32.534  70.195  1.00  0.00    -0.025 A 
HETATM   26  C23 UNL     1      55.848  33.479  69.340  1.00  0.00     0.012 A 
HETATM   27  C27 UNL     1      56.629  32.851  71.501  1.00  0.00    -0.017 A 
HETATM   28  C24 UNL     1      55.584  34.744  69.816  1.00  0.00     0.001 A 
HETATM   29  C25 UNL     1      55.849  35.053  71.145  1.00  0.00     0.001 A 
HETATM   30  C26 UNL     1      56.373  34.091  71.976  1.00  0.00     0.013 A 
ENDBRANCH   1  21
TORSDOF 5
ENDMDL
