MODEL 1
REMARK VINA RESULT: -9.564075109      0.000      0.000
REMARK  6 active torsions:
REMARK  status: ('A' for Active; 'I' for Inactive)
REMARK       I    between atoms: C1_2  and  N1_3 
REMARK    1  A    between atoms: C1_2  and  C8_14 
REMARK    2  A    between atoms: N1_3  and  C2_5 
REMARK    3  A    between atoms: C2_5  and  C3_6 
REMARK    4  A    between atoms: C3_6  and  C4_7 
REMARK    5  A    between atoms: C4_7  and  N2_8 
REMARK    6  A    between atoms: N6_29  and  O3_30 
ROOT
HETATM    1  C8  UNL     1      -3.620   5.490   8.750  1.00  0.00     0.175 A 
HETATM    2  N4  UNL     1      -4.213   6.610   9.187  1.00  0.00    -0.336 N 
ATOM      3  H4  UNL     1      -4.329   7.479   8.666  1.00  0.00     0.168 HD
HETATM    4  C9  UNL     1      -4.622   6.371  10.434  1.00  0.00     0.061 A 
HETATM    5  C10 UNL     1      -5.279   7.163  11.336  1.00  0.00     0.032 A 
HETATM    6  C11 UNL     1      -5.584   6.659  12.568  1.00  0.00     0.011 A 
HETATM    7  C12 UNL     1      -5.238   5.337  12.935  1.00  0.00    -0.037 A 
HETATM    8  C13 UNL     1      -4.584   4.554  12.030  1.00  0.00     0.051 A 
HETATM    9  C14 UNL     1      -4.271   5.071  10.765  1.00  0.00     0.075 A 
HETATM   10  N5  UNL     1      -3.647   4.528   9.715  1.00  0.00    -0.335 N 
ATOM     11  H5  UNL     1      -3.269   3.583   9.648  1.00  0.00     0.168 HD
HETATM   12  C15 UNL     1      -4.223   3.181  12.356  1.00  0.00     0.197 A 
HETATM   13  O2  UNL     1      -3.632   2.407  11.599  1.00  0.00    -0.286 OA
HETATM   14  C16 UNL     1      -4.592   2.685  13.687  1.00  0.00     0.040 A 
HETATM   15  C17 UNL     1      -4.300   1.386  14.062  1.00  0.00     0.139 A 
HETATM   16  N6  UNL     1      -4.625   0.864  15.258  1.00  0.00    -0.234 N 
HETATM   17  C18 UNL     1      -5.273   1.657  16.136  1.00  0.00     0.072 A 
HETATM   18  C19 UNL     1      -5.645   1.179  17.395  1.00  0.00     0.033 A 
HETATM   19  C20 UNL     1      -6.311   1.963  18.313  1.00  0.00     0.002 A 
HETATM   20  C21 UNL     1      -6.604   3.258  17.943  1.00  0.00     0.001 A 
HETATM   21  C22 UNL     1      -6.259   3.783  16.707  1.00  0.00     0.014 A 
HETATM   22  C23 UNL     1      -5.596   2.956  15.831  1.00  0.00     0.001 A 
HETATM   23  C24 UNL     1      -5.248   3.498  14.568  1.00  0.00    -0.026 A 
HETATM   24  C25 UNL     1      -5.576   4.868  14.270  1.00  0.00     0.080 A 
ENDROOT
BRANCH   1  25
HETATM   25  C1  UNL     1      -3.012   5.270   7.436  1.00  0.00     0.285 C 
HETATM   26  O1  UNL     1      -3.666   4.682   6.558  1.00  0.00    -0.264 OA
HETATM   27  N1  UNL     1      -1.697   5.709   7.141  1.00  0.00    -0.354 N 
ATOM     28  H1  UNL     1      -1.152   6.192   7.855  1.00  0.00     0.162 HD
BRANCH  27  29
HETATM   29  C2  UNL     1      -1.120   5.474   5.823  1.00  0.00     0.124 C 
BRANCH  29  30
HETATM   30  C3  UNL     1       0.322   5.031   5.938  1.00  0.00     0.040 C 
BRANCH  30  31
HETATM   31  C4  UNL     1       0.489   3.934   6.942  1.00  0.00     0.130 C 
BRANCH  31  32
HETATM   32  N2  UNL     1       1.288   4.311   8.092  1.00  0.00    -0.352 N 
HETATM   33  C5  UNL     1       2.391   5.053   8.074  1.00  0.00     0.108 A 
HETATM   34  C6  UNL     1       2.851   5.184   9.363  1.00  0.00     0.106 A 
HETATM   35  N3  UNL     1       1.997   4.506  10.130  1.00  0.00    -0.361 N 
HETATM   36  C7  UNL     1       1.037   3.970   9.356  1.00  0.00     0.182 A 
ATOM     37  H3  UNL     1       2.062   4.409  11.144  1.00  0.00     0.166 HD
ENDBRANCH  31  32
ENDBRANCH  30  31
ENDBRANCH  29  30
ENDBRANCH  27  29
ENDBRANCH   1  25
BRANCH  16  38
HETATM   38  O3  UNL     1      -4.336  -0.425  15.633  1.00  0.00    -0.283 OA
ATOM     39  H3  UNL     1      -4.743  -1.192  15.247  1.00  0.00     0.245 HD
ENDBRANCH  16  38
TORSDOF 6
ENDMDL
MODEL 2
REMARK VINA RESULT: -9.504781042      1.064      1.207
REMARK  6 active torsions:
REMARK  status: ('A' for Active; 'I' for Inactive)
REMARK       I    between atoms: C1_2  and  N1_3 
REMARK    1  A    between atoms: C1_2  and  C8_14 
REMARK    2  A    between atoms: N1_3  and  C2_5 
REMARK    3  A    between atoms: C2_5  and  C3_6 
REMARK    4  A    between atoms: C3_6  and  C4_7 
REMARK    5  A    between atoms: C4_7  and  N2_8 
REMARK    6  A    between atoms: N6_29  and  O3_30 
ROOT
HETATM    1  C8  UNL     1      -3.937   5.861   8.981  1.00  0.00     0.175 A 
HETATM    2  N4  UNL     1      -4.839   6.813   9.258  1.00  0.00    -0.336 N 
ATOM      3  H4  UNL     1      -5.139   7.566   8.639  1.00  0.00     0.168 HD
HETATM    4  C9  UNL     1      -5.272   6.587  10.500  1.00  0.00     0.061 A 
HETATM    5  C10 UNL     1      -6.186   7.250  11.272  1.00  0.00     0.032 A 
HETATM    6  C11 UNL     1      -6.447   6.798  12.534  1.00  0.00     0.011 A 
HETATM    7  C12 UNL     1      -5.794   5.659  13.063  1.00  0.00    -0.037 A 
HETATM    8  C13 UNL     1      -4.884   5.003  12.286  1.00  0.00     0.051 A 
HETATM    9  C14 UNL     1      -4.616   5.468  10.992  1.00  0.00     0.075 A 
HETATM   10  N5  UNL     1      -3.788   5.021  10.043  1.00  0.00    -0.335 N 
ATOM     11  H5  UNL     1      -3.168   4.212  10.102  1.00  0.00     0.168 HD
HETATM   12  C15 UNL     1      -4.200   3.817  12.782  1.00  0.00     0.197 A 
HETATM   13  O2  UNL     1      -3.365   3.167  12.149  1.00  0.00    -0.286 OA
HETATM   14  C16 UNL     1      -4.532   3.363  14.137  1.00  0.00     0.040 A 
HETATM   15  C17 UNL     1      -3.938   2.234  14.669  1.00  0.00     0.139 A 
HETATM   16  N6  UNL     1      -4.210   1.756  15.896  1.00  0.00    -0.234 N 
HETATM   17  C18 UNL     1      -5.114   2.419  16.644  1.00  0.00     0.072 A 
HETATM   18  C19 UNL     1      -5.448   1.976  17.927  1.00  0.00     0.033 A 
HETATM   19  C20 UNL     1      -6.371   2.631  18.716  1.00  0.00     0.002 A 
HETATM   20  C21 UNL     1      -6.966   3.757  18.189  1.00  0.00     0.001 A 
HETATM   21  C22 UNL     1      -6.672   4.240  16.923  1.00  0.00     0.014 A 
HETATM   22  C23 UNL     1      -5.743   3.547  16.181  1.00  0.00     0.001 A 
HETATM   23  C24 UNL     1      -5.450   4.045  14.887  1.00  0.00    -0.026 A 
HETATM   24  C25 UNL     1      -6.104   5.240  14.421  1.00  0.00     0.080 A 
ENDROOT
BRANCH   1  25
HETATM   25  C1  UNL     1      -3.187   5.695   7.734  1.00  0.00     0.285 C 
HETATM   26  O1  UNL     1      -3.665   4.987   6.831  1.00  0.00    -0.264 OA
HETATM   27  N1  UNL     1      -1.931   6.319   7.532  1.00  0.00    -0.354 N 
ATOM     28  H1  UNL     1      -1.530   6.901   8.267  1.00  0.00     0.162 HD
BRANCH  27  29
HETATM   29  C2  UNL     1      -1.209   6.133   6.279  1.00  0.00     0.124 C 
BRANCH  29  30
HETATM   30  C3  UNL     1       0.164   5.549   6.530  1.00  0.00     0.040 C 
BRANCH  30  31
HETATM   31  C4  UNL     1       0.094   4.099   6.895  1.00  0.00     0.130 C 
BRANCH  31  32
HETATM   32  N2  UNL     1      -0.046   3.860   8.318  1.00  0.00    -0.352 N 
HETATM   33  C5  UNL     1       0.749   4.328   9.275  1.00  0.00     0.108 A 
HETATM   34  C6  UNL     1       0.282   3.880  10.488  1.00  0.00     0.106 A 
HETATM   35  N3  UNL     1      -0.797   3.144  10.220  1.00  0.00    -0.361 N 
HETATM   36  C7  UNL     1      -1.002   3.130   8.891  1.00  0.00     0.182 A 
ATOM     37  H3  UNL     1      -1.375   2.667  10.913  1.00  0.00     0.166 HD
ENDBRANCH  31  32
ENDBRANCH  30  31
ENDBRANCH  29  30
ENDBRANCH  27  29
ENDBRANCH   1  25
BRANCH  16  38
HETATM   38  O3  UNL     1      -3.621   0.634  16.427  1.00  0.00    -0.283 OA
ATOM     39  H3  UNL     1      -4.108  -0.098  16.788  1.00  0.00     0.245 HD
ENDBRANCH  16  38
TORSDOF 6
ENDMDL
MODEL 3
REMARK VINA RESULT: -9.123701070      2.670      9.278
REMARK  6 active torsions:
REMARK  status: ('A' for Active; 'I' for Inactive)
REMARK       I    between atoms: C1_2  and  N1_3 
REMARK    1  A    between atoms: C1_2  and  C8_14 
REMARK    2  A    between atoms: N1_3  and  C2_5 
REMARK    3  A    between atoms: C2_5  and  C3_6 
REMARK    4  A    between atoms: C3_6  and  C4_7 
REMARK    5  A    between atoms: C4_7  and  N2_8 
REMARK    6  A    between atoms: N6_29  and  O3_30 
ROOT
HETATM    1  C8  UNL     1      -4.064   1.130  14.390  1.00  0.00     0.175 A 
HETATM    2  N4  UNL     1      -4.338   0.215  13.451  1.00  0.00    -0.336 N 
ATOM      3  H4  UNL     1      -4.933  -0.607  13.558  1.00  0.00     0.168 HD
HETATM    4  C9  UNL     1      -3.684   0.583  12.348  1.00  0.00     0.061 A 
HETATM    5  C10 UNL     1      -3.615   0.010  11.107  1.00  0.00     0.032 A 
HETATM    6  C11 UNL     1      -2.856   0.606  10.140  1.00  0.00     0.011 A 
HETATM    7  C12 UNL     1      -2.140   1.802  10.390  1.00  0.00    -0.037 A 
HETATM    8  C13 UNL     1      -2.216   2.365  11.630  1.00  0.00     0.051 A 
HETATM    9  C14 UNL     1      -2.994   1.753  12.622  1.00  0.00     0.075 A 
HETATM   10  N5  UNL     1      -3.233   2.090  13.893  1.00  0.00    -0.335 N 
ATOM     11  H5  UNL     1      -2.868   2.902  14.392  1.00  0.00     0.168 HD
HETATM   12  C15 UNL     1      -1.511   3.604  11.928  1.00  0.00     0.197 A 
HETATM   13  O2  UNL     1      -1.524   4.179  13.020  1.00  0.00    -0.286 OA
HETATM   14  C16 UNL     1      -0.727   4.211  10.847  1.00  0.00     0.040 A 
HETATM   15  C17 UNL     1      -0.045   5.398  11.050  1.00  0.00     0.139 A 
HETATM   16  N6  UNL     1       0.676   6.015  10.098  1.00  0.00    -0.234 N 
HETATM   17  C18 UNL     1       0.734   5.440   8.879  1.00  0.00     0.072 A 
HETATM   18  C19 UNL     1       1.462   6.029   7.842  1.00  0.00     0.033 A 
HETATM   19  C20 UNL     1       1.539   5.468   6.585  1.00  0.00     0.002 A 
HETATM   20  C21 UNL     1       0.861   4.285   6.379  1.00  0.00     0.001 A 
HETATM   21  C22 UNL     1       0.123   3.658   7.372  1.00  0.00     0.014 A 
HETATM   22  C23 UNL     1       0.083   4.263   8.607  1.00  0.00     0.001 A 
HETATM   23  C24 UNL     1      -0.675   3.619   9.617  1.00  0.00    -0.026 A 
HETATM   24  C25 UNL     1      -1.337   2.375   9.321  1.00  0.00     0.080 A 
ENDROOT
BRANCH   1  25
HETATM   25  C1  UNL     1      -4.556   1.153  15.770  1.00  0.00     0.285 C 
HETATM   26  O1  UNL     1      -3.775   0.869  16.694  1.00  0.00    -0.264 OA
HETATM   27  N1  UNL     1      -5.897   1.489  16.077  1.00  0.00    -0.354 N 
ATOM     28  H1  UNL     1      -6.546   1.723  15.325  1.00  0.00     0.162 HD
BRANCH  27  29
HETATM   29  C2  UNL     1      -6.356   1.502  17.461  1.00  0.00     0.124 C 
BRANCH  29  30
HETATM   30  C3  UNL     1      -6.210   2.883  18.064  1.00  0.00     0.040 C 
BRANCH  30  31
HETATM   31  C4  UNL     1      -6.860   3.931  17.217  1.00  0.00     0.130 C 
BRANCH  31  32
HETATM   32  N2  UNL     1      -6.010   4.436  16.156  1.00  0.00    -0.352 N 
HETATM   33  C5  UNL     1      -6.380   4.681  14.903  1.00  0.00     0.108 A 
HETATM   34  C6  UNL     1      -5.289   5.149  14.209  1.00  0.00     0.106 A 
HETATM   35  N3  UNL     1      -4.279   5.171  15.080  1.00  0.00    -0.361 N 
HETATM   36  C7  UNL     1      -4.717   4.735  16.275  1.00  0.00     0.182 A 
ATOM     37  H3  UNL     1      -3.327   5.471  14.873  1.00  0.00     0.166 HD
ENDBRANCH  31  32
ENDBRANCH  30  31
ENDBRANCH  29  30
ENDBRANCH  27  29
ENDBRANCH   1  25
BRANCH  16  38
HETATM   38  O3  UNL     1       1.354   7.193  10.296  1.00  0.00    -0.283 OA
ATOM     39  H3  UNL     1       0.949   8.051  10.244  1.00  0.00     0.245 HD
ENDBRANCH  16  38
TORSDOF 6
ENDMDL
MODEL 4
REMARK VINA RESULT: -9.076150922      2.668      4.820
REMARK  6 active torsions:
REMARK  status: ('A' for Active; 'I' for Inactive)
REMARK       I    between atoms: C1_2  and  N1_3 
REMARK    1  A    between atoms: C1_2  and  C8_14 
REMARK    2  A    between atoms: N1_3  and  C2_5 
REMARK    3  A    between atoms: C2_5  and  C3_6 
REMARK    4  A    between atoms: C3_6  and  C4_7 
REMARK    5  A    between atoms: C4_7  and  N2_8 
REMARK    6  A    between atoms: N6_29  and  O3_30 
ROOT
HETATM    1  C8  UNL     1      -2.231   3.901   8.892  1.00  0.00     0.175 A 
HETATM    2  N4  UNL     1      -1.816   2.630   8.978  1.00  0.00    -0.336 N 
ATOM      3  H4  UNL     1      -1.264   2.123   8.287  1.00  0.00     0.168 HD
HETATM    4  C9  UNL     1      -2.264   2.155  10.141  1.00  0.00     0.061 A 
HETATM    5  C10 UNL     1      -2.129   0.924  10.725  1.00  0.00     0.032 A 
HETATM    6  C11 UNL     1      -2.699   0.700  11.946  1.00  0.00     0.011 A 
HETATM    7  C12 UNL     1      -3.425   1.709  12.623  1.00  0.00    -0.037 A 
HETATM    8  C13 UNL     1      -3.553   2.933  12.034  1.00  0.00     0.051 A 
HETATM    9  C14 UNL     1      -2.970   3.163  10.781  1.00  0.00     0.075 A 
HETATM   10  N5  UNL     1      -2.946   4.247  10.000  1.00  0.00    -0.335 N 
ATOM     11  H5  UNL     1      -3.377   5.152  10.193  1.00  0.00     0.168 HD
HETATM   12  C15 UNL     1      -4.276   4.007  12.700  1.00  0.00     0.197 A 
HETATM   13  O2  UNL     1      -4.441   5.139  12.239  1.00  0.00    -0.286 OA
HETATM   14  C16 UNL     1      -4.851   3.717  14.018  1.00  0.00     0.040 A 
HETATM   15  C17 UNL     1      -5.535   4.693  14.721  1.00  0.00     0.139 A 
HETATM   16  N6  UNL     1      -6.071   4.498  15.938  1.00  0.00    -0.234 N 
HETATM   17  C18 UNL     1      -5.929   3.280  16.501  1.00  0.00     0.072 A 
HETATM   18  C19 UNL     1      -6.456   3.009  17.766  1.00  0.00     0.033 A 
HETATM   19  C20 UNL     1      -6.326   1.776  18.370  1.00  0.00     0.002 A 
HETATM   20  C21 UNL     1      -5.645   0.801  17.674  1.00  0.00     0.001 A 
HETATM   21  C22 UNL     1      -5.100   1.016  16.417  1.00  0.00     0.014 A 
HETATM   22  C23 UNL     1      -5.262   2.265  15.863  1.00  0.00     0.001 A 
HETATM   23  C24 UNL     1      -4.702   2.479  14.578  1.00  0.00    -0.026 A 
HETATM   24  C25 UNL     1      -4.022   1.399  13.913  1.00  0.00     0.080 A 
ENDROOT
BRANCH   1  25
HETATM   25  C1  UNL     1      -1.984   4.837   7.792  1.00  0.00     0.285 C 
HETATM   26  O1  UNL     1      -0.813   5.061   7.441  1.00  0.00    -0.264 OA
HETATM   27  N1  UNL     1      -3.044   5.492   7.119  1.00  0.00    -0.354 N 
ATOM     28  H1  UNL     1      -4.009   5.315   7.400  1.00  0.00     0.162 HD
BRANCH  27  29
HETATM   29  C2  UNL     1      -2.765   6.417   6.027  1.00  0.00     0.124 C 
BRANCH  29  30
HETATM   30  C3  UNL     1      -3.530   7.711   6.209  1.00  0.00     0.040 C 
BRANCH  30  31
HETATM   31  C4  UNL     1      -4.936   7.600   5.710  1.00  0.00     0.130 C 
BRANCH  31  32
HETATM   32  N2  UNL     1      -5.900   7.278   6.745  1.00  0.00    -0.352 N 
HETATM   33  C5  UNL     1      -6.231   8.048   7.776  1.00  0.00     0.108 A 
HETATM   34  C6  UNL     1      -7.177   7.390   8.527  1.00  0.00     0.106 A 
HETATM   35  N3  UNL     1      -7.389   6.225   7.913  1.00  0.00    -0.361 N 
HETATM   36  C7  UNL     1      -6.609   6.153   6.821  1.00  0.00     0.182 A 
ATOM     37  H3  UNL     1      -8.040   5.504   8.225  1.00  0.00     0.166 HD
ENDBRANCH  31  32
ENDBRANCH  30  31
ENDBRANCH  29  30
ENDBRANCH  27  29
ENDBRANCH   1  25
BRANCH  16  38
HETATM   38  O3  UNL     1      -6.750   5.465  16.638  1.00  0.00    -0.283 OA
ATOM     39  H3  UNL     1      -7.199   6.196  16.230  1.00  0.00     0.245 HD
ENDBRANCH  16  38
TORSDOF 6
ENDMDL
MODEL 5
REMARK VINA RESULT: -9.025894784      2.437      3.057
REMARK  6 active torsions:
REMARK  status: ('A' for Active; 'I' for Inactive)
REMARK       I    between atoms: C1_2  and  N1_3 
REMARK    1  A    between atoms: C1_2  and  C8_14 
REMARK    2  A    between atoms: N1_3  and  C2_5 
REMARK    3  A    between atoms: C2_5  and  C3_6 
REMARK    4  A    between atoms: C3_6  and  C4_7 
REMARK    5  A    between atoms: C4_7  and  N2_8 
REMARK    6  A    between atoms: N6_29  and  O3_30 
ROOT
HETATM    1  C8  UNL     1      -0.335   6.738  11.155  1.00  0.00     0.175 A 
HETATM    2  N4  UNL     1      -0.642   7.776  11.945  1.00  0.00    -0.336 N 
ATOM      3  H4  UNL     1      -0.326   8.739  11.833  1.00  0.00     0.168 HD
HETATM    4  C9  UNL     1      -1.440   7.308  12.906  1.00  0.00     0.061 A 
HETATM    5  C10 UNL     1      -2.038   7.934  13.966  1.00  0.00     0.032 A 
HETATM    6  C11 UNL     1      -2.821   7.205  14.815  1.00  0.00     0.011 A 
HETATM    7  C12 UNL     1      -3.028   5.818  14.627  1.00  0.00    -0.037 A 
HETATM    8  C13 UNL     1      -2.428   5.202  13.567  1.00  0.00     0.051 A 
HETATM    9  C14 UNL     1      -1.624   5.950  12.696  1.00  0.00     0.075 A 
HETATM   10  N5  UNL     1      -0.935   5.600  11.606  1.00  0.00    -0.335 N 
ATOM     11  H5  UNL     1      -0.871   4.669  11.193  1.00  0.00     0.168 HD
HETATM   12  C15 UNL     1      -2.626   3.780  13.323  1.00  0.00     0.197 A 
HETATM   13  O2  UNL     1      -2.121   3.146  12.393  1.00  0.00    -0.286 OA
HETATM   14  C16 UNL     1      -3.491   3.049  14.255  1.00  0.00     0.040 A 
HETATM   15  C17 UNL     1      -3.742   1.701  14.077  1.00  0.00     0.139 A 
HETATM   16  N6  UNL     1      -4.538   0.978  14.884  1.00  0.00    -0.234 N 
HETATM   17  C18 UNL     1      -5.122   1.608  15.923  1.00  0.00     0.072 A 
HETATM   18  C19 UNL     1      -5.965   0.919  16.799  1.00  0.00     0.033 A 
HETATM   19  C20 UNL     1      -6.579   1.536  17.869  1.00  0.00     0.002 A 
HETATM   20  C21 UNL     1      -6.332   2.880  18.050  1.00  0.00     0.001 A 
HETATM   21  C22 UNL     1      -5.506   3.612  17.211  1.00  0.00     0.014 A 
HETATM   22  C23 UNL     1      -4.919   2.945  16.160  1.00  0.00     0.001 A 
HETATM   23  C24 UNL     1      -4.077   3.700  15.306  1.00  0.00    -0.026 A 
HETATM   24  C25 UNL     1      -3.859   5.096  15.578  1.00  0.00     0.080 A 
ENDROOT
BRANCH   1  25
HETATM   25  C1  UNL     1       0.517   6.759   9.963  1.00  0.00     0.285 C 
HETATM   26  O1  UNL     1       0.580   7.797   9.283  1.00  0.00    -0.264 OA
HETATM   27  N1  UNL     1       1.270   5.626   9.566  1.00  0.00    -0.354 N 
ATOM     28  H1  UNL     1       1.224   4.769  10.117  1.00  0.00     0.162 HD
BRANCH  27  29
HETATM   29  C2  UNL     1       2.108   5.679   8.375  1.00  0.00     0.124 C 
BRANCH  29  30
HETATM   30  C3  UNL     1       1.352   5.182   7.161  1.00  0.00     0.040 C 
BRANCH  30  31
HETATM   31  C4  UNL     1       0.704   3.857   7.415  1.00  0.00     0.130 C 
BRANCH  31  32
HETATM   32  N2  UNL     1      -0.649   3.957   7.928  1.00  0.00    -0.352 N 
HETATM   33  C5  UNL     1      -1.586   4.804   7.514  1.00  0.00     0.108 A 
HETATM   34  C6  UNL     1      -2.728   4.585   8.246  1.00  0.00     0.106 A 
HETATM   35  N3  UNL     1      -2.439   3.597   9.094  1.00  0.00    -0.361 N 
HETATM   36  C7  UNL     1      -1.166   3.209   8.902  1.00  0.00     0.182 A 
ATOM     37  H3  UNL     1      -3.081   3.199   9.779  1.00  0.00     0.166 HD
ENDBRANCH  31  32
ENDBRANCH  30  31
ENDBRANCH  29  30
ENDBRANCH  27  29
ENDBRANCH   1  25
BRANCH  16  38
HETATM   38  O3  UNL     1      -4.789  -0.362  14.710  1.00  0.00    -0.283 OA
ATOM     39  H3  UNL     1      -5.281  -0.717  13.979  1.00  0.00     0.245 HD
ENDBRANCH  16  38
TORSDOF 6
ENDMDL
