MODEL 1
REMARK VINA RESULT: -8.805269387      0.000      0.000
REMARK  9 active torsions:
REMARK  status: ('A' for Active; 'I' for Inactive)
REMARK    1  A    between atoms: O1_1  and  C1_3 
REMARK    2  A    between atoms: C1_3  and  C2_4 
REMARK    3  A    between atoms: C1_3  and  N6_30 
REMARK    4  A    between atoms: C5_7  and  N1_8 
REMARK    5  A    between atoms: N1_8  and  C6_10 
REMARK    6  A    between atoms: C9_15  and  N3_16 
REMARK    7  A    between atoms: N3_16  and  C10_18 
REMARK    8  A    between atoms: C10_18  and  C11_19 
REMARK    9  A    between atoms: N7_33  and  C20_34 
ROOT
HETATM    1  C2  UNL     1      -4.334   5.780  12.920  1.00  0.00     0.015 A 
HETATM    2  C3  UNL     1      -5.721   5.522  12.946  1.00  0.00     0.018 A 
HETATM    3  C4  UNL     1      -6.391   5.176  14.085  1.00  0.00     0.031 A 
HETATM    4  C5  UNL     1      -5.667   5.078  15.250  1.00  0.00     0.049 A 
HETATM    5  C16 UNL     1      -4.314   5.317  15.288  1.00  0.00     0.031 A 
HETATM    6  C17 UNL     1      -3.640   5.673  14.104  1.00  0.00     0.018 A 
ENDROOT
BRANCH   4   7
HETATM    7  N1  UNL     1      -6.320   4.720  16.471  1.00  0.00    -0.192 N 
ATOM      8  H1  UNL     1      -6.895   5.387  16.985  1.00  0.00     0.184 HD
BRANCH   7   9
HETATM    9  C6  UNL     1      -6.144   3.511  16.890  1.00  0.00     0.684 A 
HETATM   10  N2  UNL     1      -6.500   3.085  18.112  1.00  0.00    -0.202 N 
HETATM   11  C7  UNL     1      -6.310   1.829  18.533  1.00  0.00     0.110 A 
ATOM     12  H2  UNL     1      -6.938   3.750  18.750  1.00  0.00     0.183 HD
HETATM   13  C8  UNL     1      -5.714   0.921  17.666  1.00  0.00     0.066 A 
HETATM   14  C9  UNL     1      -5.344   1.344  16.411  1.00  0.00     0.118 A 
HETATM   15  N5  UNL     1      -5.569   2.627  16.059  1.00  0.00    -0.177 N 
ATOM     16  H5  UNL     1      -5.293   2.936  15.127  1.00  0.00     0.186 HD
BRANCH  14  17
HETATM   17  N3  UNL     1      -4.781   0.515  15.577  1.00  0.00    -0.372 N 
ATOM     18  H3  UNL     1      -5.098  -0.455  15.557  1.00  0.00     0.161 HD
BRANCH  17  19
HETATM   19  C10 UNL     1      -3.728   0.920  14.680  1.00  0.00     0.160 C 
BRANCH  19  20
HETATM   20  C11 UNL     1      -4.130   0.856  13.255  1.00  0.00    -0.038 A 
HETATM   21  C12 UNL     1      -4.537   2.003  12.602  1.00  0.00     0.025 A 
HETATM   22  C13 UNL     1      -4.918   1.965  11.269  1.00  0.00     0.088 A 
HETATM   23  N4  UNL     1      -4.908   0.820  10.567  1.00  0.00    -0.375 N 
HETATM   24  C14 UNL     1      -4.509  -0.316  11.196  1.00  0.00     0.088 A 
ATOM     25  H4  UNL     1      -5.192   0.804   9.588  1.00  0.00     0.164 HD
HETATM   26  C15 UNL     1      -4.128  -0.304  12.512  1.00  0.00     0.025 A 
ENDBRANCH  19  20
ENDBRANCH  17  19
ENDBRANCH  14  17
ENDBRANCH   7   9
ENDBRANCH   4   7
BRANCH   1  27
HETATM   27  C1  UNL     1      -3.729   6.134  11.675  1.00  0.00     0.148 C 
BRANCH  27  28
HETATM   28  O1  UNL     1      -2.424   6.006  11.666  1.00  0.00    -0.346 OA
ATOM     29  H1  UNL     1      -2.094   5.495  10.936  1.00  0.00     0.219 HD
ENDBRANCH  27  28
BRANCH  27  30
HETATM   30  N6  UNL     1      -4.268   6.589  10.472  1.00  0.00    -0.358 N 
HETATM   31  C18 UNL     1      -4.811   5.885   9.368  1.00  0.00     0.145 C 
HETATM   32  C19 UNL     1      -5.326   6.807   8.260  1.00  0.00     0.144 C 
HETATM   33  N7  UNL     1      -6.074   7.907   8.778  1.00  0.00    -0.364 N 
HETATM   34  C25 UNL     1      -5.778   8.383  10.111  1.00  0.00     0.144 C 
HETATM   35  C26 UNL     1      -4.285   8.076  10.298  1.00  0.00     0.145 C 
BRANCH  33  36
HETATM   36  C20 UNL     1      -7.090   8.554   8.039  1.00  0.00     0.102 A 
HETATM   37  C21 UNL     1      -8.409   8.572   8.469  1.00  0.00     0.048 A 
HETATM   38  C22 UNL     1      -9.394   9.205   7.746  1.00  0.00     0.005 A 
HETATM   39  C23 UNL     1      -9.013   9.822   6.575  1.00  0.00     0.017 A 
HETATM   40  C24 UNL     1      -7.712   9.821   6.122  1.00  0.00     0.089 A 
HETATM   41  N8  UNL     1      -6.794   9.187   6.869  1.00  0.00    -0.352 N 
ATOM     42  H8  UNL     1      -5.826   9.179   6.545  1.00  0.00     0.166 HD
ENDBRANCH  33  36
ENDBRANCH  27  30
ENDBRANCH   1  27
TORSDOF 9
ENDMDL
MODEL 2
REMARK VINA RESULT: -8.610264256      3.406      5.898
REMARK  9 active torsions:
REMARK  status: ('A' for Active; 'I' for Inactive)
REMARK    1  A    between atoms: O1_1  and  C1_3 
REMARK    2  A    between atoms: C1_3  and  C2_4 
REMARK    3  A    between atoms: C1_3  and  N6_30 
REMARK    4  A    between atoms: C5_7  and  N1_8 
REMARK    5  A    between atoms: N1_8  and  C6_10 
REMARK    6  A    between atoms: C9_15  and  N3_16 
REMARK    7  A    between atoms: N3_16  and  C10_18 
REMARK    8  A    between atoms: C10_18  and  C11_19 
REMARK    9  A    between atoms: N7_33  and  C20_34 
ROOT
HETATM    1  C2  UNL     1      -4.193   5.898  12.951  1.00  0.00     0.015 A 
HETATM    2  C3  UNL     1      -5.583   5.676  12.858  1.00  0.00     0.018 A 
HETATM    3  C4  UNL     1      -6.348   5.302  13.927  1.00  0.00     0.031 A 
HETATM    4  C5  UNL     1      -5.719   5.139  15.139  1.00  0.00     0.049 A 
HETATM    5  C16 UNL     1      -4.369   5.341  15.291  1.00  0.00     0.031 A 
HETATM    6  C17 UNL     1      -3.597   5.726  14.179  1.00  0.00     0.018 A 
ENDROOT
BRANCH   4   7
HETATM    7  N1  UNL     1      -6.474   4.749  16.289  1.00  0.00    -0.192 N 
ATOM      8  H1  UNL     1      -7.147   5.379  16.726  1.00  0.00     0.184 HD
BRANCH   7   9
HETATM    9  C6  UNL     1      -6.260   3.561  16.749  1.00  0.00     0.684 A 
HETATM   10  N2  UNL     1      -6.594   3.168  17.988  1.00  0.00    -0.202 N 
HETATM   11  C7  UNL     1      -6.363   1.934  18.451  1.00  0.00     0.110 A 
ATOM     12  H2  UNL     1      -7.044   3.842  18.606  1.00  0.00     0.183 HD
HETATM   13  C8  UNL     1      -5.749   1.013  17.610  1.00  0.00     0.066 A 
HETATM   14  C9  UNL     1      -5.402   1.402  16.339  1.00  0.00     0.118 A 
HETATM   15  N5  UNL     1      -5.667   2.665  15.944  1.00  0.00    -0.177 N 
ATOM     16  H5  UNL     1      -5.408   2.949  14.999  1.00  0.00     0.186 HD
BRANCH  14  17
HETATM   17  N3  UNL     1      -4.822   0.561  15.528  1.00  0.00    -0.372 N 
ATOM     18  H3  UNL     1      -5.135  -0.410  15.521  1.00  0.00     0.161 HD
BRANCH  17  19
HETATM   19  C10 UNL     1      -3.755   0.954  14.642  1.00  0.00     0.160 C 
BRANCH  19  20
HETATM   20  C11 UNL     1      -4.143   0.891  13.212  1.00  0.00    -0.038 A 
HETATM   21  C12 UNL     1      -4.529   2.041  12.552  1.00  0.00     0.025 A 
HETATM   22  C13 UNL     1      -4.896   2.004  11.216  1.00  0.00     0.088 A 
HETATM   23  N4  UNL     1      -4.892   0.856  10.517  1.00  0.00    -0.375 N 
HETATM   24  C14 UNL     1      -4.513  -0.283  11.154  1.00  0.00     0.088 A 
ATOM     25  H4  UNL     1      -5.165   0.841   9.534  1.00  0.00     0.164 HD
HETATM   26  C15 UNL     1      -4.146  -0.271  12.473  1.00  0.00     0.025 A 
ENDBRANCH  19  20
ENDBRANCH  17  19
ENDBRANCH  14  17
ENDBRANCH   7   9
ENDBRANCH   4   7
BRANCH   1  27
HETATM   27  C1  UNL     1      -3.484   6.286  11.772  1.00  0.00     0.148 C 
BRANCH  27  28
HETATM   28  O1  UNL     1      -4.233   6.340  10.698  1.00  0.00    -0.346 OA
ATOM     29  H1  UNL     1      -3.915   6.946  10.038  1.00  0.00     0.219 HD
ENDBRANCH  27  28
BRANCH  27  30
HETATM   30  N6  UNL     1      -2.146   6.618  11.555  1.00  0.00    -0.358 N 
HETATM   31  C18 UNL     1      -1.478   7.868  11.585  1.00  0.00     0.145 C 
HETATM   32  C19 UNL     1       0.024   7.754  11.316  1.00  0.00     0.144 C 
HETATM   33  N7  UNL     1       0.619   6.667  12.024  1.00  0.00    -0.364 N 
HETATM   34  C25 UNL     1      -0.201   5.522  12.357  1.00  0.00     0.144 C 
HETATM   35  C26 UNL     1      -1.245   5.467  11.232  1.00  0.00     0.145 C 
BRANCH  33  36
HETATM   36  C20 UNL     1       1.978   6.661  12.411  1.00  0.00     0.102 A 
HETATM   37  C21 UNL     1       2.646   7.828  12.756  1.00  0.00     0.048 A 
HETATM   38  C22 UNL     1       3.968   7.815  13.133  1.00  0.00     0.005 A 
HETATM   39  C23 UNL     1       4.603   6.593  13.157  1.00  0.00     0.017 A 
HETATM   40  C24 UNL     1       3.966   5.418  12.820  1.00  0.00     0.089 A 
HETATM   41  N8  UNL     1       2.675   5.491  12.459  1.00  0.00    -0.352 N 
ATOM     42  H8  UNL     1       2.192   4.628  12.208  1.00  0.00     0.166 HD
ENDBRANCH  33  36
ENDBRANCH  27  30
ENDBRANCH   1  27
TORSDOF 9
ENDMDL
MODEL 3
REMARK VINA RESULT: -8.601159314      2.963      4.310
REMARK  9 active torsions:
REMARK  status: ('A' for Active; 'I' for Inactive)
REMARK    1  A    between atoms: O1_1  and  C1_3 
REMARK    2  A    between atoms: C1_3  and  C2_4 
REMARK    3  A    between atoms: C1_3  and  N6_30 
REMARK    4  A    between atoms: C5_7  and  N1_8 
REMARK    5  A    between atoms: N1_8  and  C6_10 
REMARK    6  A    between atoms: C9_15  and  N3_16 
REMARK    7  A    between atoms: N3_16  and  C10_18 
REMARK    8  A    between atoms: C10_18  and  C11_19 
REMARK    9  A    between atoms: N7_33  and  C20_34 
ROOT
HETATM    1  C2  UNL     1      -4.334   5.811  13.074  1.00  0.00     0.015 A 
HETATM    2  C3  UNL     1      -5.708   5.489  13.037  1.00  0.00     0.018 A 
HETATM    3  C4  UNL     1      -6.412   5.108  14.144  1.00  0.00     0.031 A 
HETATM    4  C5  UNL     1      -5.737   5.039  15.340  1.00  0.00     0.049 A 
HETATM    5  C16 UNL     1      -4.400   5.340  15.440  1.00  0.00     0.031 A 
HETATM    6  C17 UNL     1      -3.691   5.731  14.288  1.00  0.00     0.018 A 
ENDROOT
BRANCH   4   7
HETATM    7  N1  UNL     1      -6.427   4.647  16.529  1.00  0.00    -0.192 N 
ATOM      8  H1  UNL     1      -7.054   5.285  17.019  1.00  0.00     0.184 HD
BRANCH   7   9
HETATM    9  C6  UNL     1      -6.217   3.444  16.952  1.00  0.00     0.684 A 
HETATM   10  N2  UNL     1      -6.531   3.021  18.187  1.00  0.00    -0.202 N 
HETATM   11  C7  UNL     1      -6.305   1.772  18.611  1.00  0.00     0.110 A 
ATOM     12  H2  UNL     1      -6.962   3.682  18.832  1.00  0.00     0.183 HD
HETATM   13  C8  UNL     1      -5.717   0.868  17.734  1.00  0.00     0.066 A 
HETATM   14  C9  UNL     1      -5.391   1.288  16.466  1.00  0.00     0.118 A 
HETATM   15  N5  UNL     1      -5.650   2.564  16.111  1.00  0.00    -0.177 N 
ATOM     16  H5  UNL     1      -5.407   2.871  15.169  1.00  0.00     0.186 HD
BRANCH  14  17
HETATM   17  N3  UNL     1      -4.837   0.463  15.622  1.00  0.00    -0.372 N 
ATOM     18  H3  UNL     1      -5.179  -0.497  15.576  1.00  0.00     0.161 HD
BRANCH  17  19
HETATM   19  C10 UNL     1      -3.758   0.860  14.751  1.00  0.00     0.160 C 
BRANCH  19  20
HETATM   20  C11 UNL     1      -4.140   0.843  13.319  1.00  0.00    -0.038 A 
HETATM   21  C12 UNL     1      -4.514   2.015  12.692  1.00  0.00     0.025 A 
HETATM   22  C13 UNL     1      -4.875   2.021  11.353  1.00  0.00     0.088 A 
HETATM   23  N4  UNL     1      -4.878   0.895  10.620  1.00  0.00    -0.375 N 
HETATM   24  C14 UNL     1      -4.512  -0.266  11.225  1.00  0.00     0.088 A 
ATOM     25  H4  UNL     1      -5.147   0.911   9.637  1.00  0.00     0.164 HD
HETATM   26  C15 UNL     1      -4.150  -0.297  12.546  1.00  0.00     0.025 A 
ENDBRANCH  19  20
ENDBRANCH  17  19
ENDBRANCH  14  17
ENDBRANCH   7   9
ENDBRANCH   4   7
BRANCH   1  27
HETATM   27  C1  UNL     1      -3.691   6.198  11.859  1.00  0.00     0.148 C 
BRANCH  27  28
HETATM   28  O1  UNL     1      -3.496   7.489  11.751  1.00  0.00    -0.346 OA
ATOM     29  H1  UNL     1      -2.948   7.854  12.436  1.00  0.00     0.219 HD
ENDBRANCH  27  28
BRANCH  27  30
HETATM   30  N6  UNL     1      -3.232   5.456  10.769  1.00  0.00    -0.358 N 
HETATM   31  C18 UNL     1      -3.852   5.131   9.536  1.00  0.00     0.145 C 
HETATM   32  C19 UNL     1      -2.951   4.312   8.608  1.00  0.00     0.144 C 
HETATM   33  N7  UNL     1      -1.617   4.817   8.568  1.00  0.00    -0.364 N 
HETATM   34  C25 UNL     1      -1.106   5.527   9.720  1.00  0.00     0.144 C 
HETATM   35  C26 UNL     1      -1.850   4.899  10.908  1.00  0.00     0.145 C 
BRANCH  33  36
HETATM   36  C20 UNL     1      -0.771   4.649   7.448  1.00  0.00     0.102 A 
HETATM   37  C21 UNL     1       0.375   3.868   7.507  1.00  0.00     0.048 A 
HETATM   38  C22 UNL     1       1.193   3.707   6.413  1.00  0.00     0.005 A 
HETATM   39  C23 UNL     1       0.824   4.352   5.253  1.00  0.00     0.017 A 
HETATM   40  C24 UNL     1      -0.307   5.134   5.164  1.00  0.00     0.089 A 
HETATM   41  N8  UNL     1      -1.067   5.255   6.264  1.00  0.00    -0.352 N 
ATOM     42  H8  UNL     1      -1.909   5.831   6.211  1.00  0.00     0.166 HD
ENDBRANCH  33  36
ENDBRANCH  27  30
ENDBRANCH   1  27
TORSDOF 9
ENDMDL
MODEL 4
REMARK VINA RESULT: -8.498961739      3.432      5.965
REMARK  9 active torsions:
REMARK  status: ('A' for Active; 'I' for Inactive)
REMARK    1  A    between atoms: O1_1  and  C1_3 
REMARK    2  A    between atoms: C1_3  and  C2_4 
REMARK    3  A    between atoms: C1_3  and  N6_30 
REMARK    4  A    between atoms: C5_7  and  N1_8 
REMARK    5  A    between atoms: N1_8  and  C6_10 
REMARK    6  A    between atoms: C9_15  and  N3_16 
REMARK    7  A    between atoms: N3_16  and  C10_18 
REMARK    8  A    between atoms: C10_18  and  C11_19 
REMARK    9  A    between atoms: N7_33  and  C20_34 
ROOT
HETATM    1  C2  UNL     1      -4.118   5.847  12.935  1.00  0.00     0.015 A 
HETATM    2  C3  UNL     1      -5.506   5.608  12.848  1.00  0.00     0.018 A 
HETATM    3  C4  UNL     1      -6.265   5.246  13.924  1.00  0.00     0.031 A 
HETATM    4  C5  UNL     1      -5.634   5.112  15.138  1.00  0.00     0.049 A 
HETATM    5  C16 UNL     1      -4.285   5.331  15.285  1.00  0.00     0.031 A 
HETATM    6  C17 UNL     1      -3.519   5.703  14.165  1.00  0.00     0.018 A 
ENDROOT
BRANCH   4   7
HETATM    7  N1  UNL     1      -6.383   4.736  16.297  1.00  0.00    -0.192 N 
ATOM      8  H1  UNL     1      -7.049   5.374  16.733  1.00  0.00     0.184 HD
BRANCH   7   9
HETATM    9  C6  UNL     1      -6.174   3.550  16.764  1.00  0.00     0.684 A 
HETATM   10  N2  UNL     1      -6.458   3.182  18.023  1.00  0.00    -0.202 N 
HETATM   11  C7  UNL     1      -6.234   1.949  18.493  1.00  0.00     0.110 A 
ATOM     12  H2  UNL     1      -6.864   3.874  18.652  1.00  0.00     0.183 HD
HETATM   13  C8  UNL     1      -5.680   1.003  17.638  1.00  0.00     0.066 A 
HETATM   14  C9  UNL     1      -5.384   1.366  16.346  1.00  0.00     0.118 A 
HETATM   15  N5  UNL     1      -5.640   2.629  15.945  1.00  0.00    -0.177 N 
ATOM     16  H5  UNL     1      -5.419   2.894  14.985  1.00  0.00     0.186 HD
BRANCH  14  17
HETATM   17  N3  UNL     1      -4.863   0.501  15.522  1.00  0.00    -0.372 N 
ATOM     18  H3  UNL     1      -5.248  -0.443  15.491  1.00  0.00     0.161 HD
BRANCH  17  19
HETATM   19  C10 UNL     1      -3.761   0.831  14.652  1.00  0.00     0.160 C 
BRANCH  19  20
HETATM   20  C11 UNL     1      -4.151   0.873  13.222  1.00  0.00    -0.038 A 
HETATM   21  C12 UNL     1      -4.143  -0.287  12.473  1.00  0.00     0.025 A 
HETATM   22  C13 UNL     1      -4.503  -0.271  11.134  1.00  0.00     0.088 A 
HETATM   23  N4  UNL     1      -4.869   0.866  10.518  1.00  0.00    -0.375 N 
HETATM   24  C14 UNL     1      -4.881   2.015  11.243  1.00  0.00     0.088 A 
ATOM     25  H4  UNL     1      -5.130   0.866   9.532  1.00  0.00     0.164 HD
HETATM   26  C15 UNL     1      -4.530   2.024  12.568  1.00  0.00     0.025 A 
ENDBRANCH  19  20
ENDBRANCH  17  19
ENDBRANCH  14  17
ENDBRANCH   7   9
ENDBRANCH   4   7
BRANCH   1  27
HETATM   27  C1  UNL     1      -3.414   6.220  11.748  1.00  0.00     0.148 C 
BRANCH  27  28
HETATM   28  O1  UNL     1      -4.171   6.272  10.679  1.00  0.00    -0.346 OA
ATOM     29  H1  UNL     1      -4.087   7.081  10.188  1.00  0.00     0.219 HD
ENDBRANCH  27  28
BRANCH  27  30
HETATM   30  N6  UNL     1      -2.075   6.539  11.519  1.00  0.00    -0.358 N 
HETATM   31  C18 UNL     1      -1.408   7.789  11.482  1.00  0.00     0.145 C 
HETATM   32  C19 UNL     1       0.096   7.661  11.226  1.00  0.00     0.144 C 
HETATM   33  N7  UNL     1       0.687   6.615  11.998  1.00  0.00    -0.364 N 
HETATM   34  C25 UNL     1      -0.134   5.491  12.391  1.00  0.00     0.144 C 
HETATM   35  C26 UNL     1      -1.173   5.372  11.265  1.00  0.00     0.145 C 
BRANCH  33  36
HETATM   36  C20 UNL     1       2.044   6.631  12.391  1.00  0.00     0.102 A 
HETATM   37  C21 UNL     1       2.816   5.478  12.405  1.00  0.00     0.048 A 
HETATM   38  C22 UNL     1       4.137   5.500  12.787  1.00  0.00     0.005 A 
HETATM   39  C23 UNL     1       4.663   6.719  13.154  1.00  0.00     0.017 A 
HETATM   40  C24 UNL     1       3.922   7.881  13.151  1.00  0.00     0.089 A 
HETATM   41  N8  UNL     1       2.638   7.799  12.769  1.00  0.00    -0.352 N 
ATOM     42  H8  UNL     1       2.078   8.652  12.761  1.00  0.00     0.166 HD
ENDBRANCH  33  36
ENDBRANCH  27  30
ENDBRANCH   1  27
TORSDOF 9
ENDMDL
MODEL 5
REMARK VINA RESULT: -8.475211874      1.953      4.668
REMARK  9 active torsions:
REMARK  status: ('A' for Active; 'I' for Inactive)
REMARK    1  A    between atoms: O1_1  and  C1_3 
REMARK    2  A    between atoms: C1_3  and  C2_4 
REMARK    3  A    between atoms: C1_3  and  N6_30 
REMARK    4  A    between atoms: C5_7  and  N1_8 
REMARK    5  A    between atoms: N1_8  and  C6_10 
REMARK    6  A    between atoms: C9_15  and  N3_16 
REMARK    7  A    between atoms: N3_16  and  C10_18 
REMARK    8  A    between atoms: C10_18  and  C11_19 
REMARK    9  A    between atoms: N7_33  and  C20_34 
ROOT
HETATM    1  C2  UNL     1      -3.515   5.345   9.112  1.00  0.00     0.015 A 
HETATM    2  C3  UNL     1      -2.821   4.265   8.525  1.00  0.00     0.018 A 
HETATM    3  C4  UNL     1      -2.225   3.279   9.259  1.00  0.00     0.031 A 
HETATM    4  C5  UNL     1      -2.313   3.357  10.629  1.00  0.00     0.049 A 
HETATM    5  C16 UNL     1      -2.975   4.384  11.258  1.00  0.00     0.031 A 
HETATM    6  C17 UNL     1      -3.584   5.391  10.486  1.00  0.00     0.018 A 
ENDROOT
BRANCH   4   7
HETATM    7  N1  UNL     1      -1.708   2.350  11.444  1.00  0.00    -0.192 N 
ATOM      8  H1  UNL     1      -0.731   2.412  11.732  1.00  0.00     0.184 HD
BRANCH   7   9
HETATM    9  C6  UNL     1      -2.457   1.359  11.796  1.00  0.00     0.684 A 
HETATM   10  N2  UNL     1      -2.631   0.253  11.055  1.00  0.00    -0.202 N 
HETATM   11  C7  UNL     1      -3.413  -0.765  11.433  1.00  0.00     0.110 A 
ATOM     12  H2  UNL     1      -2.142   0.185  10.163  1.00  0.00     0.183 HD
HETATM   13  C8  UNL     1      -4.080  -0.674  12.649  1.00  0.00     0.066 A 
HETATM   14  C9  UNL     1      -3.912   0.452  13.418  1.00  0.00     0.118 A 
HETATM   15  N5  UNL     1      -3.106   1.438  12.970  1.00  0.00    -0.177 N 
ATOM     16  H5  UNL     1      -2.984   2.272  13.544  1.00  0.00     0.186 HD
BRANCH  14  17
HETATM   17  N3  UNL     1      -4.526   0.566  14.562  1.00  0.00    -0.372 N 
ATOM     18  H3  UNL     1      -5.427   0.104  14.685  1.00  0.00     0.161 HD
BRANCH  17  19
HETATM   19  C10 UNL     1      -3.977   1.322  15.660  1.00  0.00     0.160 C 
BRANCH  19  20
HETATM   20  C11 UNL     1      -4.933   2.311  16.212  1.00  0.00    -0.038 A 
HETATM   21  C12 UNL     1      -5.189   3.480  15.523  1.00  0.00     0.025 A 
HETATM   22  C13 UNL     1      -6.079   4.419  16.021  1.00  0.00     0.088 A 
HETATM   23  N4  UNL     1      -6.721   4.231  17.187  1.00  0.00    -0.375 N 
HETATM   24  C14 UNL     1      -6.479   3.084  17.876  1.00  0.00     0.088 A 
ATOM     25  H4  UNL     1      -7.373   4.929  17.544  1.00  0.00     0.164 HD
HETATM   26  C15 UNL     1      -5.604   2.142  17.403  1.00  0.00     0.025 A 
ENDBRANCH  19  20
ENDBRANCH  17  19
ENDBRANCH  14  17
ENDBRANCH   7   9
ENDBRANCH   4   7
BRANCH   1  27
HETATM   27  C1  UNL     1      -4.103   6.325   8.254  1.00  0.00     0.148 C 
BRANCH  27  28
HETATM   28  O1  UNL     1      -3.229   7.023   7.571  1.00  0.00    -0.346 OA
ATOM     29  H1  UNL     1      -3.325   7.962   7.672  1.00  0.00     0.219 HD
ENDBRANCH  27  28
BRANCH  27  30
HETATM   30  N6  UNL     1      -5.432   6.674   8.010  1.00  0.00    -0.358 N 
HETATM   31  C18 UNL     1      -6.533   6.823   8.890  1.00  0.00     0.145 C 
HETATM   32  C19 UNL     1      -7.817   7.260   8.180  1.00  0.00     0.144 C 
HETATM   33  N7  UNL     1      -7.580   8.300   7.231  1.00  0.00    -0.364 N 
HETATM   34  C25 UNL     1      -6.277   8.392   6.610  1.00  0.00     0.144 C 
HETATM   35  C26 UNL     1      -5.772   6.942   6.578  1.00  0.00     0.145 C 
BRANCH  33  36
HETATM   36  C20 UNL     1      -8.570   9.241   6.870  1.00  0.00     0.102 A 
HETATM   37  C21 UNL     1      -9.631   9.547   7.711  1.00  0.00     0.048 A 
HETATM   38  C22 UNL     1     -10.590  10.465   7.354  1.00  0.00     0.005 A 
HETATM   39  C23 UNL     1     -10.453  11.072   6.125  1.00  0.00     0.017 A 
HETATM   40  C24 UNL     1      -9.411  10.789   5.268  1.00  0.00     0.089 A 
HETATM   41  N8  UNL     1      -8.505   9.884   5.669  1.00  0.00    -0.352 N 
ATOM     42  H8  UNL     1      -7.728   9.665   5.045  1.00  0.00     0.166 HD
ENDBRANCH  33  36
ENDBRANCH  27  30
ENDBRANCH   1  27
TORSDOF 9
ENDMDL
