MODEL 1
REMARK VINA RESULT: -9.838021578      0.000      0.000
REMARK  6 active torsions:
REMARK  status: ('A' for Active; 'I' for Inactive)
REMARK       I    between atoms: C2_2  and  N1_4 
REMARK    1  A    between atoms: N1_4  and  C3_6 
REMARK    2  A    between atoms: N3_15  and  C9_16 
REMARK    3  A    between atoms: C9_16  and  C10_17 
REMARK       I    between atoms: C10_17  and  N4_19 
REMARK    4  A    between atoms: N4_19  and  C11_21 
REMARK    5  A    between atoms: C14_24  and  N5_25 
REMARK    6  A    between atoms: C19_30  and  C20_31 
ROOT
HETATM    1  C3  UNL     1      -4.868   2.211  11.731  1.00  0.00     0.687 A 
HETATM    2  N2  UNL     1      -4.373   3.352  11.251  1.00  0.00    -0.175 N 
ATOM      3  H2  UNL     1      -4.155   3.410  10.256  1.00  0.00     0.186 HD
HETATM    4  C4  UNL     1      -4.145   4.448  12.040  1.00  0.00     0.139 A 
HETATM    5  C5  UNL     1      -4.440   4.392  13.409  1.00  0.00     0.037 A 
HETATM    6  C6  UNL     1      -4.153   5.474  14.164  1.00  0.00     0.023 A 
HETATM    7  C7  UNL     1      -3.587   6.603  13.548  1.00  0.00     0.075 A 
HETATM    8  C8  UNL     1      -3.312   6.641  12.206  1.00  0.00     0.249 A 
HETATM    9  O2  UNL     1      -2.812   7.667  11.706  1.00  0.00    -0.268 OA
HETATM   10  N3  UNL     1      -3.605   5.544  11.483  1.00  0.00    -0.290 N 
HETATM   11  C19 UNL     1      -4.948   3.234  13.897  1.00  0.00     0.073 A 
HETATM   12  N6  UNL     1      -5.143   2.175  13.029  1.00  0.00    -0.190 N 
ATOM     13  H6  UNL     1      -5.522   1.308  13.411  1.00  0.00     0.184 HD
ENDROOT
BRANCH  10  14
HETATM   14  C9  UNL     1      -3.339   5.522  10.065  1.00  0.00     0.237 C 
BRANCH  14  15
HETATM   15  C10 UNL     1      -4.567   5.988   9.336  1.00  0.00     0.240 C 
HETATM   16  O3  UNL     1      -5.312   5.105   8.882  1.00  0.00    -0.271 OA
HETATM   17  N4  UNL     1      -4.827   7.352   9.194  1.00  0.00    -0.326 N 
ATOM     18  H4  UNL     1      -4.131   7.970   9.612  1.00  0.00     0.169 HD
BRANCH  17  19
HETATM   19  C11 UNL     1      -5.906   8.008   8.562  1.00  0.00     0.034 A 
HETATM   20  C12 UNL     1      -7.151   8.044   9.191  1.00  0.00     0.032 A 
HETATM   21  C13 UNL     1      -8.195   8.662   8.585  1.00  0.00     0.031 A 
HETATM   22  C14 UNL     1      -8.091   9.272   7.349  1.00  0.00     0.029 A 
HETATM   23  C17 UNL     1      -6.862   9.221   6.758  1.00  0.00     0.031 A 
HETATM   24  C18 UNL     1      -5.762   8.605   7.329  1.00  0.00     0.032 A 
BRANCH  22  25
HETATM   25  N5  UNL     1      -9.211   9.908   6.752  1.00  0.00    -0.390 N 
HETATM   26  C15 UNL     1      -9.134  10.360   5.380  1.00  0.00     0.149 C 
HETATM   27  C16 UNL     1     -10.418  10.093   7.531  1.00  0.00     0.149 C 
ENDBRANCH  22  25
ENDBRANCH  17  19
ENDBRANCH  14  15
ENDBRANCH  10  14
BRANCH   1  28
HETATM   28  N1  UNL     1      -5.083   1.168  10.995  1.00  0.00    -0.160 N 
HETATM   29  C2  UNL     1      -4.226   0.086  10.850  1.00  0.00     0.231 C 
HETATM   30  C1  UNL     1      -4.139  -1.089  11.743  1.00  0.00     0.118 C 
HETATM   31  O1  UNL     1      -3.429   0.092   9.851  1.00  0.00    -0.273 OA
ATOM     32  H1  UNL     1      -5.961   1.138  10.476  1.00  0.00     0.187 HD
ENDBRANCH   1  28
BRANCH  11  33
HETATM   33  C20 UNL     1      -5.280   3.018  15.292  1.00  0.00    -0.008 A 
HETATM   34  C21 UNL     1      -4.819   2.025  16.093  1.00  0.00     0.014 A 
HETATM   35  C22 UNL     1      -5.208   1.802  17.411  1.00  0.00     0.001 A 
HETATM   36  C23 UNL     1      -6.140   2.662  17.954  1.00  0.00     0.000 A 
HETATM   37  C24 UNL     1      -6.629   3.683  17.172  1.00  0.00     0.001 A 
HETATM   38  C25 UNL     1      -6.233   3.881  15.884  1.00  0.00     0.014 A 
ENDBRANCH  11  33
TORSDOF 6
ENDMDL
MODEL 2
REMARK VINA RESULT: -9.832070747      0.132      1.017
REMARK  6 active torsions:
REMARK  status: ('A' for Active; 'I' for Inactive)
REMARK       I    between atoms: C2_2  and  N1_4 
REMARK    1  A    between atoms: N1_4  and  C3_6 
REMARK    2  A    between atoms: N3_15  and  C9_16 
REMARK    3  A    between atoms: C9_16  and  C10_17 
REMARK       I    between atoms: C10_17  and  N4_19 
REMARK    4  A    between atoms: N4_19  and  C11_21 
REMARK    5  A    between atoms: C14_24  and  N5_25 
REMARK    6  A    between atoms: C19_30  and  C20_31 
ROOT
HETATM    1  C3  UNL     1      -4.837   2.187  11.766  1.00  0.00     0.687 A 
HETATM    2  N2  UNL     1      -4.338   3.335  11.307  1.00  0.00    -0.175 N 
ATOM      3  H2  UNL     1      -4.112   3.410  10.315  1.00  0.00     0.186 HD
HETATM    4  C4  UNL     1      -4.117   4.419  12.116  1.00  0.00     0.139 A 
HETATM    5  C5  UNL     1      -4.422   4.340  13.482  1.00  0.00     0.037 A 
HETATM    6  C6  UNL     1      -4.141   5.410  14.256  1.00  0.00     0.023 A 
HETATM    7  C7  UNL     1      -3.570   6.549  13.663  1.00  0.00     0.075 A 
HETATM    8  C8  UNL     1      -3.285   6.609  12.324  1.00  0.00     0.249 A 
HETATM    9  O2  UNL     1      -2.782   7.644  11.844  1.00  0.00    -0.268 OA
HETATM   10  N3  UNL     1      -3.572   5.524  11.581  1.00  0.00    -0.290 N 
HETATM   11  C19 UNL     1      -4.933   3.175  13.948  1.00  0.00     0.073 A 
HETATM   12  N6  UNL     1      -5.121   2.130  13.060  1.00  0.00    -0.190 N 
ATOM     13  H6  UNL     1      -5.503   1.257  13.426  1.00  0.00     0.184 HD
ENDROOT
BRANCH  10  14
HETATM   14  C9  UNL     1      -3.296   5.525  10.165  1.00  0.00     0.237 C 
BRANCH  14  15
HETATM   15  C10 UNL     1      -4.532   5.960   9.432  1.00  0.00     0.240 C 
HETATM   16  O3  UNL     1      -5.220   5.062   8.919  1.00  0.00    -0.271 OA
HETATM   17  N4  UNL     1      -4.863   7.314   9.349  1.00  0.00    -0.326 N 
ATOM     18  H4  UNL     1      -4.210   7.946   9.812  1.00  0.00     0.169 HD
BRANCH  17  19
HETATM   19  C11 UNL     1      -5.963   7.942   8.725  1.00  0.00     0.034 A 
HETATM   20  C12 UNL     1      -5.751   8.725   7.589  1.00  0.00     0.032 A 
HETATM   21  C13 UNL     1      -6.801   9.341   6.990  1.00  0.00     0.031 A 
HETATM   22  C14 UNL     1      -8.099   9.233   7.455  1.00  0.00     0.029 A 
HETATM   23  C17 UNL     1      -8.275   8.462   8.566  1.00  0.00     0.031 A 
HETATM   24  C18 UNL     1      -7.242   7.810   9.219  1.00  0.00     0.032 A 
BRANCH  22  25
HETATM   25  N5  UNL     1      -9.167   9.896   6.795  1.00  0.00    -0.390 N 
HETATM   26  C15 UNL     1     -10.411  10.127   7.496  1.00  0.00     0.149 C 
HETATM   27  C16 UNL     1      -8.991  10.333   5.426  1.00  0.00     0.149 C 
ENDBRANCH  22  25
ENDBRANCH  17  19
ENDBRANCH  14  15
ENDBRANCH  10  14
BRANCH   1  28
HETATM   28  N1  UNL     1      -5.046   1.156  11.011  1.00  0.00    -0.160 N 
HETATM   29  C2  UNL     1      -4.184   0.080  10.849  1.00  0.00     0.231 C 
HETATM   30  C1  UNL     1      -4.095  -1.110  11.722  1.00  0.00     0.118 C 
HETATM   31  O1  UNL     1      -3.385   0.106   9.853  1.00  0.00    -0.273 OA
ATOM     32  H1  UNL     1      -5.922   1.132  10.489  1.00  0.00     0.187 HD
ENDBRANCH   1  28
BRANCH  11  33
HETATM   33  C20 UNL     1      -5.276   2.937  15.336  1.00  0.00    -0.008 A 
HETATM   34  C21 UNL     1      -4.824   1.928  16.123  1.00  0.00     0.014 A 
HETATM   35  C22 UNL     1      -5.223   1.684  17.434  1.00  0.00     0.001 A 
HETATM   36  C23 UNL     1      -6.156   2.538  17.985  1.00  0.00     0.000 A 
HETATM   37  C24 UNL     1      -6.636   3.575  17.218  1.00  0.00     0.001 A 
HETATM   38  C25 UNL     1      -6.230   3.793  15.936  1.00  0.00     0.014 A 
ENDBRANCH  11  33
TORSDOF 6
ENDMDL
MODEL 3
REMARK VINA RESULT: -9.542094302      1.292      1.555
REMARK  6 active torsions:
REMARK  status: ('A' for Active; 'I' for Inactive)
REMARK       I    between atoms: C2_2  and  N1_4 
REMARK    1  A    between atoms: N1_4  and  C3_6 
REMARK    2  A    between atoms: N3_15  and  C9_16 
REMARK    3  A    between atoms: C9_16  and  C10_17 
REMARK       I    between atoms: C10_17  and  N4_19 
REMARK    4  A    between atoms: N4_19  and  C11_21 
REMARK    5  A    between atoms: C14_24  and  N5_25 
REMARK    6  A    between atoms: C19_30  and  C20_31 
ROOT
HETATM    1  C3  UNL     1      -4.321   1.454  12.398  1.00  0.00     0.687 A 
HETATM    2  N2  UNL     1      -3.579   2.491  12.011  1.00  0.00    -0.175 N 
ATOM      3  H2  UNL     1      -3.220   2.508  11.056  1.00  0.00     0.186 HD
HETATM    4  C4  UNL     1      -3.278   3.536  12.844  1.00  0.00     0.139 A 
HETATM    5  C5  UNL     1      -3.761   3.536  14.160  1.00  0.00     0.037 A 
HETATM    6  C6  UNL     1      -3.400   4.556  14.968  1.00  0.00     0.023 A 
HETATM    7  C7  UNL     1      -2.572   5.569  14.455  1.00  0.00     0.075 A 
HETATM    8  C8  UNL     1      -2.114   5.555  13.164  1.00  0.00     0.249 A 
HETATM    9  O2  UNL     1      -1.384   6.478  12.755  1.00  0.00    -0.268 OA
HETATM   10  N3  UNL     1      -2.488   4.521  12.387  1.00  0.00    -0.290 N 
HETATM   11  C19 UNL     1      -4.521   2.485  14.553  1.00  0.00     0.073 A 
HETATM   12  N6  UNL     1      -4.772   1.471  13.646  1.00  0.00    -0.190 N 
ATOM     13  H6  UNL     1      -5.342   0.683  13.957  1.00  0.00     0.184 HD
ENDROOT
BRANCH  10  14
HETATM   14  C9  UNL     1      -2.039   4.448  11.018  1.00  0.00     0.237 C 
BRANCH  14  15
HETATM   15  C10 UNL     1      -3.139   4.942  10.122  1.00  0.00     0.240 C 
HETATM   16  O3  UNL     1      -3.591   4.131   9.298  1.00  0.00    -0.271 OA
HETATM   17  N4  UNL     1      -3.606   6.252  10.236  1.00  0.00    -0.326 N 
ATOM     18  H4  UNL     1      -3.145   6.814  10.952  1.00  0.00     0.169 HD
BRANCH  17  19
HETATM   19  C11 UNL     1      -4.620   6.920   9.513  1.00  0.00     0.034 A 
HETATM   20  C12 UNL     1      -5.874   7.099  10.097  1.00  0.00     0.032 A 
HETATM   21  C13 UNL     1      -6.856   7.729   9.406  1.00  0.00     0.031 A 
HETATM   22  C14 UNL     1      -6.678   8.214   8.123  1.00  0.00     0.029 A 
HETATM   23  C17 UNL     1      -5.441   8.024   7.578  1.00  0.00     0.031 A 
HETATM   24  C18 UNL     1      -4.402   7.389   8.237  1.00  0.00     0.032 A 
BRANCH  22  25
HETATM   25  N5  UNL     1      -7.734   8.867   7.437  1.00  0.00    -0.390 N 
HETATM   26  C15 UNL     1      -7.455   9.609   6.227  1.00  0.00     0.149 C 
HETATM   27  C16 UNL     1      -9.081   8.779   7.962  1.00  0.00     0.149 C 
ENDBRANCH  22  25
ENDBRANCH  17  19
ENDBRANCH  14  15
ENDBRANCH  10  14
BRANCH   1  28
HETATM   28  N1  UNL     1      -4.608   0.460  11.620  1.00  0.00    -0.160 N 
HETATM   29  C2  UNL     1      -3.690  -0.372  10.993  1.00  0.00     0.231 C 
HETATM   30  C1  UNL     1      -3.051  -1.569  11.580  1.00  0.00     0.118 C 
HETATM   31  O1  UNL     1      -3.357  -0.089   9.793  1.00  0.00    -0.273 OA
ATOM     32  H1  UNL     1      -5.597   0.272  11.451  1.00  0.00     0.187 HD
ENDBRANCH   1  28
BRANCH  11  33
HETATM   33  C20 UNL     1      -5.071   2.335  15.886  1.00  0.00    -0.008 A 
HETATM   34  C21 UNL     1      -4.934   1.263  16.706  1.00  0.00     0.014 A 
HETATM   35  C22 UNL     1      -5.532   1.117  17.955  1.00  0.00     0.001 A 
HETATM   36  C23 UNL     1      -6.330   2.150  18.402  1.00  0.00     0.000 A 
HETATM   37  C24 UNL     1      -6.491   3.255  17.599  1.00  0.00     0.001 A 
HETATM   38  C25 UNL     1      -5.896   3.373  16.379  1.00  0.00     0.014 A 
ENDBRANCH  11  33
TORSDOF 6
ENDMDL
MODEL 4
REMARK VINA RESULT: -9.447825641      1.869      2.566
REMARK  6 active torsions:
REMARK  status: ('A' for Active; 'I' for Inactive)
REMARK       I    between atoms: C2_2  and  N1_4 
REMARK    1  A    between atoms: N1_4  and  C3_6 
REMARK    2  A    between atoms: N3_15  and  C9_16 
REMARK    3  A    between atoms: C9_16  and  C10_17 
REMARK       I    between atoms: C10_17  and  N4_19 
REMARK    4  A    between atoms: N4_19  and  C11_21 
REMARK    5  A    between atoms: C14_24  and  N5_25 
REMARK    6  A    between atoms: C19_30  and  C20_31 
ROOT
HETATM    1  C3  UNL     1      -4.110   1.200  12.550  1.00  0.00     0.687 A 
HETATM    2  N2  UNL     1      -3.182   2.088  12.193  1.00  0.00    -0.175 N 
ATOM      3  H2  UNL     1      -2.700   1.962  11.302  1.00  0.00     0.186 HD
HETATM    4  C4  UNL     1      -2.848   3.162  12.975  1.00  0.00     0.139 A 
HETATM    5  C5  UNL     1      -3.497   3.357  14.202  1.00  0.00     0.037 A 
HETATM    6  C6  UNL     1      -3.105   4.397  14.968  1.00  0.00     0.023 A 
HETATM    7  C7  UNL     1      -2.079   5.237  14.502  1.00  0.00     0.075 A 
HETATM    8  C8  UNL     1      -1.460   5.034  13.297  1.00  0.00     0.249 A 
HETATM    9  O2  UNL     1      -0.557   5.808  12.926  1.00  0.00    -0.268 OA
HETATM   10  N3  UNL     1      -1.871   3.985  12.560  1.00  0.00    -0.290 N 
HETATM   11  C19 UNL     1      -4.445   2.458  14.563  1.00  0.00     0.073 A 
HETATM   12  N6  UNL     1      -4.716   1.400  13.714  1.00  0.00    -0.190 N 
ATOM     13  H6  UNL     1      -5.429   0.729  14.001  1.00  0.00     0.184 HD
ENDROOT
BRANCH  10  14
HETATM   14  C9  UNL     1      -1.259   3.718  11.281  1.00  0.00     0.237 C 
BRANCH  14  15
HETATM   15  C10 UNL     1      -2.158   4.238  10.196  1.00  0.00     0.240 C 
HETATM   16  O3  UNL     1      -2.534   3.417   9.344  1.00  0.00    -0.271 OA
HETATM   17  N4  UNL     1      -2.534   5.582  10.177  1.00  0.00    -0.326 N 
ATOM     18  H4  UNL     1      -2.152   6.148  10.935  1.00  0.00     0.169 HD
BRANCH  17  19
HETATM   19  C11 UNL     1      -3.363   6.279   9.270  1.00  0.00     0.034 A 
HETATM   20  C12 UNL     1      -4.749   6.183   9.395  1.00  0.00     0.032 A 
HETATM   21  C13 UNL     1      -5.552   6.840   8.521  1.00  0.00     0.031 A 
HETATM   22  C14 UNL     1      -5.060   7.617   7.489  1.00  0.00     0.029 A 
HETATM   23  C17 UNL     1      -3.701   7.692   7.391  1.00  0.00     0.031 A 
HETATM   24  C18 UNL     1      -2.834   7.044   8.254  1.00  0.00     0.032 A 
BRANCH  22  25
HETATM   25  N5  UNL     1      -5.938   8.287   6.597  1.00  0.00    -0.390 N 
HETATM   26  C15 UNL     1      -5.459   8.714   5.301  1.00  0.00     0.149 C 
HETATM   27  C16 UNL     1      -7.307   8.533   7.003  1.00  0.00     0.149 C 
ENDBRANCH  22  25
ENDBRANCH  17  19
ENDBRANCH  14  15
ENDBRANCH  10  14
BRANCH   1  28
HETATM   28  N1  UNL     1      -4.430   0.179  11.821  1.00  0.00    -0.160 N 
HETATM   29  C2  UNL     1      -3.556  -0.573  11.050  1.00  0.00     0.231 C 
HETATM   30  C1  UNL     1      -2.728  -1.706  11.518  1.00  0.00     0.118 C 
HETATM   31  O1  UNL     1      -3.445  -0.271   9.814  1.00  0.00    -0.273 OA
ATOM     32  H1  UNL     1      -5.413  -0.096  11.812  1.00  0.00     0.187 HD
ENDBRANCH   1  28
BRANCH  11  33
HETATM   33  C20 UNL     1      -5.184   2.515  15.809  1.00  0.00    -0.008 A 
HETATM   34  C21 UNL     1      -5.994   3.520  16.229  1.00  0.00     0.014 A 
HETATM   35  C22 UNL     1      -6.637   3.579  17.462  1.00  0.00     0.001 A 
HETATM   36  C23 UNL     1      -6.438   2.529  18.334  1.00  0.00     0.000 A 
HETATM   37  C24 UNL     1      -5.625   1.491  17.943  1.00  0.00     0.001 A 
HETATM   38  C25 UNL     1      -5.006   1.456  16.731  1.00  0.00     0.014 A 
ENDBRANCH  11  33
TORSDOF 6
ENDMDL
MODEL 5
REMARK VINA RESULT: -9.432113570      1.711      2.309
REMARK  6 active torsions:
REMARK  status: ('A' for Active; 'I' for Inactive)
REMARK       I    between atoms: C2_2  and  N1_4 
REMARK    1  A    between atoms: N1_4  and  C3_6 
REMARK    2  A    between atoms: N3_15  and  C9_16 
REMARK    3  A    between atoms: C9_16  and  C10_17 
REMARK       I    between atoms: C10_17  and  N4_19 
REMARK    4  A    between atoms: N4_19  and  C11_21 
REMARK    5  A    between atoms: C14_24  and  N5_25 
REMARK    6  A    between atoms: C19_30  and  C20_31 
ROOT
HETATM    1  C3  UNL     1      -4.127   1.064  12.355  1.00  0.00     0.687 A 
HETATM    2  N2  UNL     1      -3.276   2.002  11.937  1.00  0.00    -0.175 N 
ATOM      3  H2  UNL     1      -2.862   1.910  11.010  1.00  0.00     0.186 HD
HETATM    4  C4  UNL     1      -2.937   3.085  12.705  1.00  0.00     0.139 A 
HETATM    5  C5  UNL     1      -3.496   3.234  13.982  1.00  0.00     0.037 A 
HETATM    6  C6  UNL     1      -3.097   4.285  14.729  1.00  0.00     0.023 A 
HETATM    7  C7  UNL     1      -2.156   5.182  14.196  1.00  0.00     0.075 A 
HETATM    8  C8  UNL     1      -1.626   5.023  12.942  1.00  0.00     0.249 A 
HETATM    9  O2  UNL     1      -0.795   5.847  12.512  1.00  0.00    -0.268 OA
HETATM   10  N3  UNL     1      -2.040   3.962  12.225  1.00  0.00    -0.290 N 
HETATM   11  C19 UNL     1      -4.364   2.283  14.405  1.00  0.00     0.073 A 
HETATM   12  N6  UNL     1      -4.648   1.221  13.565  1.00  0.00    -0.190 N 
ATOM     13  H6  UNL     1      -5.300   0.511  13.898  1.00  0.00     0.184 HD
ENDROOT
BRANCH  10  14
HETATM   14  C9  UNL     1      -1.519   3.739  10.899  1.00  0.00     0.237 C 
BRANCH  14  15
HETATM   15  C10 UNL     1      -2.500   4.277   9.897  1.00  0.00     0.240 C 
HETATM   16  O3  UNL     1      -2.905   3.483   9.033  1.00  0.00    -0.271 OA
HETATM   17  N4  UNL     1      -2.915   5.608   9.962  1.00  0.00    -0.326 N 
ATOM     18  H4  UNL     1      -2.501   6.152  10.720  1.00  0.00     0.169 HD
BRANCH  17  19
HETATM   19  C11 UNL     1      -3.819   6.317   9.141  1.00  0.00     0.034 A 
HETATM   20  C12 UNL     1      -3.330   7.259   8.236  1.00  0.00     0.032 A 
HETATM   21  C13 UNL     1      -4.193   7.953   7.452  1.00  0.00     0.031 A 
HETATM   22  C14 UNL     1      -5.563   7.773   7.503  1.00  0.00     0.029 A 
HETATM   23  C17 UNL     1      -6.012   6.846   8.399  1.00  0.00     0.031 A 
HETATM   24  C18 UNL     1      -5.179   6.110   9.223  1.00  0.00     0.032 A 
BRANCH  22  25
HETATM   25  N5  UNL     1      -6.429   8.521   6.664  1.00  0.00    -0.390 N 
HETATM   26  C15 UNL     1      -5.930   9.069   5.422  1.00  0.00     0.149 C 
HETATM   27  C16 UNL     1      -7.806   8.723   7.067  1.00  0.00     0.149 C 
ENDBRANCH  22  25
ENDBRANCH  17  19
ENDBRANCH  14  15
ENDBRANCH  10  14
BRANCH   1  28
HETATM   28  N1  UNL     1      -4.451   0.035  11.639  1.00  0.00    -0.160 N 
HETATM   29  C2  UNL     1      -3.567  -0.798  10.967  1.00  0.00     0.231 C 
HETATM   30  C1  UNL     1      -2.849  -1.957  11.539  1.00  0.00     0.118 C 
HETATM   31  O1  UNL     1      -3.343  -0.552   9.733  1.00  0.00    -0.273 OA
ATOM     32  H1  UNL     1      -5.445  -0.183  11.562  1.00  0.00     0.187 HD
ENDBRANCH   1  28
BRANCH  11  33
HETATM   33  C20 UNL     1      -5.004   2.290  15.706  1.00  0.00    -0.008 A 
HETATM   34  C21 UNL     1      -4.875   1.354  16.680  1.00  0.00     0.014 A 
HETATM   35  C22 UNL     1      -5.555   1.350  17.894  1.00  0.00     0.001 A 
HETATM   36  C23 UNL     1      -6.435   2.386  18.133  1.00  0.00     0.000 A 
HETATM   37  C24 UNL     1      -6.590   3.355  17.170  1.00  0.00     0.001 A 
HETATM   38  C25 UNL     1      -5.913   3.336  15.988  1.00  0.00     0.014 A 
ENDBRANCH  11  33
TORSDOF 6
ENDMDL
