MODEL 1
REMARK VINA RESULT: -8.983848998      0.000      0.000
REMARK  4 active torsions:
REMARK  status: ('A' for Active; 'I' for Inactive)
REMARK       I    between atoms: C1_2  and  N1_3 
REMARK    1  A    between atoms: C1_2  and  C9_19 
REMARK    2  A    between atoms: N1_3  and  C2_5 
REMARK    3  A    between atoms: N5_27  and  C17_28 
REMARK    4  A    between atoms: C17_28  and  C18_29 
ROOT
HETATM    1  O1  UNL     1       0.182   1.371 -17.739  1.00  0.00    -0.266 OA
HETATM    2  C1  UNL     1       1.217   2.088 -17.956  1.00  0.00     0.274 C 
HETATM    3  N1  UNL     1       2.510   1.486 -17.977  1.00  0.00    -0.307 N 
ATOM      4  H1  UNL     1       2.981   1.378 -18.875  1.00  0.00     0.170 HD
ENDROOT
BRANCH   2   5
HETATM    5  C9  UNL     1       1.124   3.522 -18.186  1.00  0.00     0.105 A 
HETATM    6  C10 UNL     1       0.203   4.100 -19.047  1.00  0.00     0.049 A 
HETATM    7  C11 UNL     1       0.376   5.469 -19.044  1.00  0.00    -0.007 A 
HETATM    8  C12 UNL     1      -0.277   6.486 -19.719  1.00  0.00     0.014 A 
HETATM    9  C16 UNL     1       1.412   5.711 -18.172  1.00  0.00     0.045 A 
HETATM   10  C13 UNL     1       0.093   7.787 -19.539  1.00  0.00     0.001 A 
HETATM   11  C14 UNL     1       1.143   8.069 -18.660  1.00  0.00     0.002 A 
HETATM   12  C15 UNL     1       1.773   7.034 -18.002  1.00  0.00     0.030 A 
HETATM   13  N5  UNL     1       1.839   4.525 -17.675  1.00  0.00    -0.336 N 
BRANCH  13  14
HETATM   14  C17 UNL     1       2.909   4.439 -16.732  1.00  0.00     0.194 C 
BRANCH  14  15
HETATM   15  C18 UNL     1       2.460   4.461 -15.306  1.00  0.00     0.070 A 
HETATM   16  C19 UNL     1       2.585   5.573 -14.462  1.00  0.00     0.036 A 
HETATM   17  C20 UNL     1       2.071   5.234 -13.234  1.00  0.00     0.027 A 
HETATM   18  C21 UNL     1       1.648   3.927 -13.363  1.00  0.00     0.142 A 
HETATM   19  O3  UNL     1       1.900   3.548 -14.571  1.00  0.00    -0.325 OA
ENDBRANCH  14  15
ENDBRANCH  13  14
ENDBRANCH   2   5
BRANCH   3  20
HETATM   20  C2  UNL     1       3.112   1.070 -16.914  1.00  0.00     0.126 A 
HETATM   21  N2  UNL     1       2.371   0.601 -15.897  1.00  0.00    -0.351 N 
HETATM   22  C3  UNL     1       2.975   0.162 -14.779  1.00  0.00     0.092 A 
ATOM     23  H2  UNL     1       1.354   0.577 -15.974  1.00  0.00     0.166 HD
HETATM   24  C4  UNL     1       4.364   0.208 -14.704  1.00  0.00     0.048 A 
HETATM   25  C5  UNL     1       5.117   0.693 -15.752  1.00  0.00     0.053 A 
HETATM   26  N3  UNL     1       6.456   0.735 -15.676  1.00  0.00    -0.351 N 
HETATM   27  C8  UNL     1       4.489   1.145 -16.908  1.00  0.00     0.103 A 
HETATM   28  C6  UNL     1       7.171   1.210 -16.708  1.00  0.00     0.183 A 
ATOM     29  H3  UNL     1       6.930   0.405 -14.836  1.00  0.00     0.166 HD
HETATM   30  N4  UNL     1       6.561   1.656 -17.845  1.00  0.00    -0.319 N 
HETATM   31  C7  UNL     1       5.222   1.627 -17.953  1.00  0.00     0.262 A 
ATOM     32  H4  UNL     1       7.124   2.013 -18.617  1.00  0.00     0.169 HD
HETATM   33  O2  UNL     1       4.614   2.025 -18.977  1.00  0.00    -0.267 OA
ENDBRANCH   3  20
TORSDOF 4
ENDMDL
MODEL 2
REMARK VINA RESULT: -8.959578104      2.119      4.323
REMARK  4 active torsions:
REMARK  status: ('A' for Active; 'I' for Inactive)
REMARK       I    between atoms: C1_2  and  N1_3 
REMARK    1  A    between atoms: C1_2  and  C9_19 
REMARK    2  A    between atoms: N1_3  and  C2_5 
REMARK    3  A    between atoms: N5_27  and  C17_28 
REMARK    4  A    between atoms: C17_28  and  C18_29 
ROOT
HETATM    1  O1  UNL     1       0.587   3.612 -18.985  1.00  0.00    -0.266 OA
HETATM    2  C1  UNL     1       1.736   3.735 -18.438  1.00  0.00     0.274 C 
HETATM    3  N1  UNL     1       2.914   3.416 -19.177  1.00  0.00    -0.307 N 
ATOM      4  H1  UNL     1       3.510   4.181 -19.493  1.00  0.00     0.170 HD
ENDROOT
BRANCH   2   5
HETATM    5  C9  UNL     1       1.890   4.194 -17.066  1.00  0.00     0.105 A 
HETATM    6  C10 UNL     1       1.767   3.362 -15.963  1.00  0.00     0.049 A 
HETATM    7  C11 UNL     1       1.965   4.100 -14.814  1.00  0.00    -0.007 A 
HETATM    8  C12 UNL     1       1.950   3.749 -13.475  1.00  0.00     0.014 A 
HETATM    9  C16 UNL     1       2.208   5.387 -15.236  1.00  0.00     0.045 A 
HETATM   10  C13 UNL     1       2.180   4.686 -12.510  1.00  0.00     0.001 A 
HETATM   11  C14 UNL     1       2.430   6.004 -12.903  1.00  0.00     0.002 A 
HETATM   12  C15 UNL     1       2.439   6.322 -14.245  1.00  0.00     0.030 A 
HETATM   13  N5  UNL     1       2.156   5.410 -16.589  1.00  0.00    -0.336 N 
BRANCH  13  14
HETATM   14  C17 UNL     1       2.373   6.609 -17.335  1.00  0.00     0.194 C 
BRANCH  14  15
HETATM   15  C18 UNL     1       1.185   7.048 -18.131  1.00  0.00     0.070 A 
HETATM   16  C19 UNL     1       1.149   7.079 -19.532  1.00  0.00     0.036 A 
HETATM   17  C20 UNL     1      -0.091   7.530 -19.915  1.00  0.00     0.027 A 
HETATM   18  C21 UNL     1      -0.774   7.760 -18.739  1.00  0.00     0.142 A 
HETATM   19  O3  UNL     1       0.013   7.464 -17.760  1.00  0.00    -0.325 OA
ENDBRANCH  14  15
ENDBRANCH  13  14
ENDBRANCH   2   5
BRANCH   3  20
HETATM   20  C2  UNL     1       3.262   2.207 -19.463  1.00  0.00     0.126 A 
HETATM   21  N2  UNL     1       2.463   1.480 -20.261  1.00  0.00    -0.351 N 
HETATM   22  C3  UNL     1       2.804   0.218 -20.574  1.00  0.00     0.092 A 
ATOM     23  H2  UNL     1       1.602   1.885 -20.628  1.00  0.00     0.166 HD
HETATM   24  C4  UNL     1       3.985  -0.307 -20.058  1.00  0.00     0.048 A 
HETATM   25  C5  UNL     1       4.799   0.446 -19.239  1.00  0.00     0.053 A 
HETATM   26  N3  UNL     1       5.938  -0.063 -18.743  1.00  0.00    -0.351 N 
HETATM   27  C8  UNL     1       4.444   1.753 -18.917  1.00  0.00     0.103 A 
HETATM   28  C6  UNL     1       6.716   0.686 -17.947  1.00  0.00     0.183 A 
ATOM     29  H3  UNL     1       6.211  -1.018 -18.972  1.00  0.00     0.166 HD
HETATM   30  N4  UNL     1       6.373   1.969 -17.628  1.00  0.00    -0.319 N 
HETATM   31  C7  UNL     1       5.241   2.508 -18.107  1.00  0.00     0.262 A 
ATOM     32  H4  UNL     1       6.981   2.521 -17.022  1.00  0.00     0.169 HD
HETATM   33  O2  UNL     1       4.882   3.683 -17.843  1.00  0.00    -0.267 OA
ENDBRANCH   3  20
TORSDOF 4
ENDMDL
MODEL 3
REMARK VINA RESULT: -8.790514407      1.025      1.122
REMARK  4 active torsions:
REMARK  status: ('A' for Active; 'I' for Inactive)
REMARK       I    between atoms: C1_2  and  N1_3 
REMARK    1  A    between atoms: C1_2  and  C9_19 
REMARK    2  A    between atoms: N1_3  and  C2_5 
REMARK    3  A    between atoms: N5_27  and  C17_28 
REMARK    4  A    between atoms: C17_28  and  C18_29 
ROOT
HETATM    1  O1  UNL     1       0.896   1.685 -16.582  1.00  0.00    -0.266 OA
HETATM    2  C1  UNL     1       1.723   2.369 -17.276  1.00  0.00     0.274 C 
HETATM    3  N1  UNL     1       2.961   1.789 -17.685  1.00  0.00    -0.307 N 
ATOM      4  H1  UNL     1       3.079   1.538 -18.666  1.00  0.00     0.170 HD
ENDROOT
BRANCH   2   5
HETATM    5  C9  UNL     1       1.446   3.742 -17.670  1.00  0.00     0.105 A 
HETATM    6  C10 UNL     1       0.493   4.087 -18.618  1.00  0.00     0.049 A 
HETATM    7  C11 UNL     1       0.477   5.459 -18.766  1.00  0.00    -0.007 A 
HETATM    8  C12 UNL     1      -0.278   6.294 -19.572  1.00  0.00     0.014 A 
HETATM    9  C16 UNL     1       1.430   5.938 -17.897  1.00  0.00     0.045 A 
HETATM   10  C13 UNL     1      -0.099   7.645 -19.530  1.00  0.00     0.001 A 
HETATM   11  C14 UNL     1       0.862   8.167 -18.658  1.00  0.00     0.002 A 
HETATM   12  C15 UNL     1       1.598   7.310 -17.868  1.00  0.00     0.030 A 
HETATM   13  N5  UNL     1       1.992   4.886 -17.256  1.00  0.00    -0.336 N 
BRANCH  13  14
HETATM   14  C17 UNL     1       3.021   5.055 -16.279  1.00  0.00     0.194 C 
BRANCH  14  15
HETATM   15  C18 UNL     1       2.528   4.995 -14.868  1.00  0.00     0.070 A 
HETATM   16  C19 UNL     1       2.602   6.066 -13.967  1.00  0.00     0.036 A 
HETATM   17  C20 UNL     1       2.059   5.655 -12.773  1.00  0.00     0.027 A 
HETATM   18  C21 UNL     1       1.669   4.348 -12.981  1.00  0.00     0.142 A 
HETATM   19  O3  UNL     1       1.967   4.035 -14.198  1.00  0.00    -0.325 OA
ENDBRANCH  14  15
ENDBRANCH  13  14
ENDBRANCH   2   5
BRANCH   3  20
HETATM   20  C2  UNL     1       3.939   1.568 -16.873  1.00  0.00     0.126 A 
HETATM   21  N2  UNL     1       3.774   1.862 -15.573  1.00  0.00    -0.351 N 
HETATM   22  C3  UNL     1       4.779   1.640 -14.706  1.00  0.00     0.092 A 
ATOM     23  H2  UNL     1       2.891   2.251 -15.244  1.00  0.00     0.166 HD
HETATM   24  C4  UNL     1       5.973   1.109 -15.184  1.00  0.00     0.048 A 
HETATM   25  C5  UNL     1       6.134   0.811 -16.521  1.00  0.00     0.053 A 
HETATM   26  N3  UNL     1       7.287   0.298 -16.978  1.00  0.00    -0.351 N 
HETATM   27  C8  UNL     1       5.092   1.041 -17.414  1.00  0.00     0.103 A 
HETATM   28  C6  UNL     1       7.424   0.016 -18.283  1.00  0.00     0.183 A 
ATOM     29  H3  UNL     1       8.058   0.124 -16.334  1.00  0.00     0.166 HD
HETATM   30  N4  UNL     1       6.405   0.239 -19.165  1.00  0.00    -0.319 N 
HETATM   31  C7  UNL     1       5.239   0.751 -18.740  1.00  0.00     0.262 A 
ATOM     32  H4  UNL     1       6.531   0.016 -20.152  1.00  0.00     0.169 HD
HETATM   33  O2  UNL     1       4.273   0.974 -19.511  1.00  0.00    -0.267 OA
ENDBRANCH   3  20
TORSDOF 4
ENDMDL
MODEL 4
REMARK VINA RESULT: -8.781838292      1.731      2.226
REMARK  4 active torsions:
REMARK  status: ('A' for Active; 'I' for Inactive)
REMARK       I    between atoms: C1_2  and  N1_3 
REMARK    1  A    between atoms: C1_2  and  C9_19 
REMARK    2  A    between atoms: N1_3  and  C2_5 
REMARK    3  A    between atoms: N5_27  and  C17_28 
REMARK    4  A    between atoms: C17_28  and  C18_29 
ROOT
HETATM    1  O1  UNL     1       1.208   1.634 -16.559  1.00  0.00    -0.266 OA
HETATM    2  C1  UNL     1       1.650   2.216 -17.608  1.00  0.00     0.274 C 
HETATM    3  N1  UNL     1       2.409   1.479 -18.565  1.00  0.00    -0.307 N 
ATOM      4  H1  UNL     1       1.971   1.245 -19.456  1.00  0.00     0.170 HD
ENDROOT
BRANCH   2   5
HETATM    5  C9  UNL     1       1.404   3.626 -17.867  1.00  0.00     0.105 A 
HETATM    6  C10 UNL     1       0.452   4.083 -18.767  1.00  0.00     0.049 A 
HETATM    7  C11 UNL     1       0.469   5.463 -18.783  1.00  0.00    -0.007 A 
HETATM    8  C12 UNL     1      -0.271   6.390 -19.497  1.00  0.00     0.014 A 
HETATM    9  C16 UNL     1       1.442   5.834 -17.883  1.00  0.00     0.045 A 
HETATM   10  C13 UNL     1      -0.057   7.726 -19.330  1.00  0.00     0.001 A 
HETATM   11  C14 UNL     1       0.925   8.139 -18.423  1.00  0.00     0.002 A 
HETATM   12  C15 UNL     1       1.646   7.192 -17.726  1.00  0.00     0.030 A 
HETATM   13  N5  UNL     1       1.983   4.711 -17.352  1.00  0.00    -0.336 N 
BRANCH  13  14
HETATM   14  C17 UNL     1       3.024   4.761 -16.375  1.00  0.00     0.194 C 
BRANCH  14  15
HETATM   15  C18 UNL     1       2.528   4.789 -14.964  1.00  0.00     0.070 A 
HETATM   16  C19 UNL     1       2.702   5.873 -14.094  1.00  0.00     0.036 A 
HETATM   17  C20 UNL     1       2.122   5.551 -12.891  1.00  0.00     0.027 A 
HETATM   18  C21 UNL     1       1.610   4.281 -13.063  1.00  0.00     0.142 A 
HETATM   19  O3  UNL     1       1.877   3.907 -14.269  1.00  0.00    -0.325 OA
ENDBRANCH  14  15
ENDBRANCH  13  14
ENDBRANCH   2   5
BRANCH   3  20
HETATM   20  C2  UNL     1       3.622   1.093 -18.357  1.00  0.00     0.126 A 
HETATM   21  N2  UNL     1       4.102   1.126 -17.103  1.00  0.00    -0.351 N 
HETATM   22  C3  UNL     1       5.364   0.730 -16.861  1.00  0.00     0.092 A 
ATOM     23  H2  UNL     1       3.511   1.451 -16.338  1.00  0.00     0.166 HD
HETATM   24  C4  UNL     1       6.146   0.293 -17.926  1.00  0.00     0.048 A 
HETATM   25  C5  UNL     1       5.646   0.264 -19.210  1.00  0.00     0.053 A 
HETATM   26  N3  UNL     1       6.404  -0.159 -20.234  1.00  0.00    -0.351 N 
HETATM   27  C8  UNL     1       4.340   0.674 -19.457  1.00  0.00     0.103 A 
HETATM   28  C6  UNL     1       5.899  -0.180 -21.478  1.00  0.00     0.183 A 
ATOM     29  H3  UNL     1       7.363  -0.464 -20.068  1.00  0.00     0.166 HD
HETATM   30  N4  UNL     1       4.618   0.221 -21.726  1.00  0.00    -0.319 N 
HETATM   31  C7  UNL     1       3.834   0.649 -20.724  1.00  0.00     0.262 A 
ATOM     32  H4  UNL     1       4.254   0.196 -22.680  1.00  0.00     0.169 HD
HETATM   33  O2  UNL     1       2.649   1.028 -20.902  1.00  0.00    -0.267 OA
ENDBRANCH   3  20
TORSDOF 4
ENDMDL
MODEL 5
REMARK VINA RESULT: -8.725338766      1.979      6.319
REMARK  4 active torsions:
REMARK  status: ('A' for Active; 'I' for Inactive)
REMARK       I    between atoms: C1_2  and  N1_3 
REMARK    1  A    between atoms: C1_2  and  C9_19 
REMARK    2  A    between atoms: N1_3  and  C2_5 
REMARK    3  A    between atoms: N5_27  and  C17_28 
REMARK    4  A    between atoms: C17_28  and  C18_29 
ROOT
HETATM    1  O1  UNL     1       0.920   2.886 -15.127  1.00  0.00    -0.266 OA
HETATM    2  C1  UNL     1       1.965   3.222 -15.781  1.00  0.00     0.274 C 
HETATM    3  N1  UNL     1       1.954   4.398 -16.588  1.00  0.00    -0.307 N 
ATOM      4  H1  UNL     1       2.474   5.214 -16.264  1.00  0.00     0.170 HD
ENDROOT
BRANCH   2   5
HETATM    5  C9  UNL     1       3.188   2.434 -15.734  1.00  0.00     0.105 A 
HETATM    6  C10 UNL     1       3.297   1.160 -16.272  1.00  0.00     0.049 A 
HETATM    7  C11 UNL     1       4.576   0.688 -16.062  1.00  0.00    -0.007 A 
HETATM    8  C12 UNL     1       5.188  -0.508 -16.397  1.00  0.00     0.014 A 
HETATM    9  C16 UNL     1       5.238   1.690 -15.391  1.00  0.00     0.045 A 
HETATM   10  C13 UNL     1       6.492  -0.737 -16.068  1.00  0.00     0.001 A 
HETATM   11  C14 UNL     1       7.195   0.261 -15.385  1.00  0.00     0.002 A 
HETATM   12  C15 UNL     1       6.558   1.442 -15.065  1.00  0.00     0.030 A 
HETATM   13  N5  UNL     1       4.379   2.722 -15.210  1.00  0.00    -0.336 N 
BRANCH  13  14
HETATM   14  C17 UNL     1       4.769   3.925 -14.544  1.00  0.00     0.194 C 
BRANCH  14  15
HETATM   15  C18 UNL     1       3.772   4.410 -13.541  1.00  0.00     0.070 A 
HETATM   16  C19 UNL     1       3.347   5.741 -13.440  1.00  0.00     0.036 A 
HETATM   17  C20 UNL     1       2.434   5.819 -12.416  1.00  0.00     0.027 A 
HETATM   18  C21 UNL     1       2.328   4.535 -11.924  1.00  0.00     0.142 A 
HETATM   19  O3  UNL     1       3.118   3.782 -12.612  1.00  0.00    -0.325 OA
ENDBRANCH  14  15
ENDBRANCH  13  14
ENDBRANCH   2   5
BRANCH   3  20
HETATM   20  C2  UNL     1       1.317   4.480 -17.707  1.00  0.00     0.126 A 
HETATM   21  N2  UNL     1       0.939   3.345 -18.316  1.00  0.00    -0.351 N 
HETATM   22  C3  UNL     1       0.274   3.404 -19.484  1.00  0.00     0.092 A 
ATOM     23  H2  UNL     1       1.156   2.441 -17.896  1.00  0.00     0.166 HD
HETATM   24  C4  UNL     1      -0.007   4.651 -20.034  1.00  0.00     0.048 A 
HETATM   25  C5  UNL     1       0.386   5.812 -19.402  1.00  0.00     0.053 A 
HETATM   26  N3  UNL     1       0.112   7.012 -19.936  1.00  0.00    -0.351 N 
HETATM   27  C8  UNL     1       1.073   5.747 -18.194  1.00  0.00     0.103 A 
HETATM   28  C6  UNL     1       0.503   8.131 -19.305  1.00  0.00     0.183 A 
ATOM     29  H3  UNL     1      -0.392   7.075 -20.820  1.00  0.00     0.166 HD
HETATM   30  N4  UNL     1       1.178   8.074 -18.119  1.00  0.00    -0.319 N 
HETATM   31  C7  UNL     1       1.467   6.888 -17.559  1.00  0.00     0.262 A 
ATOM     32  H4  UNL     1       1.464   8.937 -17.657  1.00  0.00     0.169 HD
HETATM   33  O2  UNL     1       2.085   6.784 -16.470  1.00  0.00    -0.267 OA
ENDBRANCH   3  20
TORSDOF 4
ENDMDL
