MODEL 1
REMARK VINA RESULT: -7.997073581      0.000      0.000
REMARK  4 active torsions:
REMARK  status: ('A' for Active; 'I' for Inactive)
REMARK    1  A    between atoms: C7_7  and  N1_8 
REMARK    2  A    between atoms: N1_8  and  C8_10 
REMARK    3  A    between atoms: C10_12  and  C11_13 
REMARK       I    between atoms: N2_17  and  C15_19 
REMARK    4  A    between atoms: C15_19  and  C16_21 
ROOT
HETATM    1  C11 UNL     1       3.916   1.014 -20.609  1.00  0.00     0.006 A 
HETATM    2  C12 UNL     1       2.868   1.138 -21.490  1.00  0.00     0.019 A 
HETATM    3  C13 UNL     1       1.694   1.804 -21.147  1.00  0.00     0.049 A 
HETATM    4  C14 UNL     1       1.588   2.350 -19.888  1.00  0.00     0.107 A 
HETATM    5  N2  UNL     1       0.485   2.966 -19.591  1.00  0.00    -0.308 N 
ATOM      6  H2  UNL     1      -0.254   3.024 -20.291  1.00  0.00     0.170 HD
HETATM    7  C15 UNL     1       0.280   3.558 -18.328  1.00  0.00     0.275 C 
HETATM    8  O1  UNL     1      -0.398   2.983 -17.455  1.00  0.00    -0.266 OA
HETATM    9  N5  UNL     1       2.611   2.232 -19.022  1.00  0.00    -0.351 N 
ATOM     10  H5  UNL     1       2.525   2.641 -18.091  1.00  0.00     0.166 HD
HETATM   11  C20 UNL     1       3.743   1.589 -19.355  1.00  0.00     0.103 A 
ENDROOT
BRANCH   1  12
HETATM   12  C10 UNL     1       5.151   0.331 -20.927  1.00  0.00     0.048 A 
HETATM   13  C9  UNL     1       6.057  -0.051 -19.970  1.00  0.00     0.079 A 
HETATM   14  C8  UNL     1       7.235  -0.709 -20.344  1.00  0.00     0.108 A 
HETATM   15  N7  UNL     1       7.491  -0.973 -21.634  1.00  0.00    -0.339 N 
HETATM   16  C21 UNL     1       6.592  -0.592 -22.565  1.00  0.00     0.182 A 
ATOM     17  H7  UNL     1       8.349  -1.453 -21.905  1.00  0.00     0.168 HD
HETATM   18  N6  UNL     1       5.461   0.040 -22.205  1.00  0.00    -0.351 N 
ATOM     19  H6  UNL     1       4.806   0.314 -22.936  1.00  0.00     0.166 HD
BRANCH  14  20
HETATM   20  N1  UNL     1       8.093  -1.074 -19.459  1.00  0.00    -0.342 N 
ATOM     21  H1  UNL     1       8.033  -2.010 -19.059  1.00  0.00     0.167 HD
BRANCH  20  22
HETATM   22  C7  UNL     1       9.124  -0.196 -19.028  1.00  0.00     0.039 A 
HETATM   23  C2  UNL     1       9.029   0.465 -17.819  1.00  0.00    -0.035 A 
HETATM   24  C1  UNL     1       7.860   0.290 -16.926  1.00  0.00     0.050 C 
HETATM   25  C3  UNL     1      10.026   1.328 -17.377  1.00  0.00     0.009 A 
HETATM   26  C4  UNL     1      11.144   1.552 -18.134  1.00  0.00     0.001 A 
HETATM   27  C5  UNL     1      11.251   0.892 -19.354  1.00  0.00     0.002 A 
HETATM   28  C6  UNL     1      10.258   0.038 -19.786  1.00  0.00     0.030 A 
ENDBRANCH  20  22
ENDBRANCH  14  20
ENDBRANCH   1  12
BRANCH   7  29
HETATM   29  C16 UNL     1       0.865   4.851 -18.042  1.00  0.00     0.116 A 
HETATM   30  C17 UNL     1       1.789   5.024 -17.018  1.00  0.00     0.122 A 
HETATM   31  N3  UNL     1       2.312   6.236 -16.781  1.00  0.00    -0.372 N 
HETATM   32  C18 UNL     1       1.980   7.325 -17.502  1.00  0.00     0.104 A 
ATOM     33  H3  UNL     1       2.987   6.338 -16.023  1.00  0.00     0.164 HD
HETATM   34  C19 UNL     1       1.065   7.162 -18.518  1.00  0.00     0.105 A 
HETATM   35  N4  UNL     1       0.540   5.947 -18.760  1.00  0.00    -0.359 N 
ATOM     36  H4  UNL     1      -0.135   5.850 -19.519  1.00  0.00     0.165 HD
ENDBRANCH   7  29
TORSDOF 4
ENDMDL
MODEL 2
REMARK VINA RESULT: -7.956072969      4.562      9.739
REMARK  4 active torsions:
REMARK  status: ('A' for Active; 'I' for Inactive)
REMARK    1  A    between atoms: C7_7  and  N1_8 
REMARK    2  A    between atoms: N1_8  and  C8_10 
REMARK    3  A    between atoms: C10_12  and  C11_13 
REMARK       I    between atoms: N2_17  and  C15_19 
REMARK    4  A    between atoms: C15_19  and  C16_21 
ROOT
HETATM    1  C11 UNL     1       4.702   1.501 -15.703  1.00  0.00     0.006 A 
HETATM    2  C12 UNL     1       4.824   0.453 -16.583  1.00  0.00     0.019 A 
HETATM    3  C13 UNL     1       5.694  -0.609 -16.345  1.00  0.00     0.049 A 
HETATM    4  C14 UNL     1       6.448  -0.600 -15.193  1.00  0.00     0.107 A 
HETATM    5  N2  UNL     1       7.251  -1.599 -14.992  1.00  0.00    -0.308 N 
ATOM      6  H2  UNL     1       7.294  -2.347 -15.684  1.00  0.00     0.170 HD
HETATM    7  C15 UNL     1       8.064  -1.681 -13.844  1.00  0.00     0.275 C 
HETATM    8  O1  UNL     1       9.272  -1.374 -13.893  1.00  0.00    -0.266 OA
HETATM    9  N5  UNL     1       6.331   0.424 -14.328  1.00  0.00    -0.351 N 
ATOM     10  H5  UNL     1       6.893   0.424 -13.476  1.00  0.00     0.166 HD
HETATM   11  C20 UNL     1       5.491   1.448 -14.560  1.00  0.00     0.103 A 
ENDROOT
BRANCH   1  12
HETATM   12  C10 UNL     1       3.811   2.621 -15.913  1.00  0.00     0.048 A 
HETATM   13  C9  UNL     1       3.681   3.251 -17.125  1.00  0.00     0.079 A 
HETATM   14  C8  UNL     1       2.800   4.331 -17.263  1.00  0.00     0.108 A 
HETATM   15  N7  UNL     1       2.077   4.760 -16.219  1.00  0.00    -0.339 N 
HETATM   16  C21 UNL     1       2.213   4.133 -15.032  1.00  0.00     0.182 A 
ATOM     17  H7  UNL     1       1.435   5.546 -16.320  1.00  0.00     0.168 HD
HETATM   18  N6  UNL     1       3.059   3.096 -14.901  1.00  0.00    -0.351 N 
ATOM     19  H6  UNL     1       3.136   2.647 -13.989  1.00  0.00     0.166 HD
BRANCH  14  20
HETATM   20  N1  UNL     1       2.667   4.931 -18.392  1.00  0.00    -0.342 N 
ATOM     21  H1  UNL     1       3.308   4.710 -19.154  1.00  0.00     0.167 HD
BRANCH  20  22
HETATM   22  C7  UNL     1       1.645   5.896 -18.598  1.00  0.00     0.039 A 
HETATM   23  C2  UNL     1       0.437   5.535 -19.164  1.00  0.00    -0.035 A 
HETATM   24  C1  UNL     1       0.157   4.141 -19.577  1.00  0.00     0.050 C 
HETATM   25  C3  UNL     1      -0.577   6.463 -19.374  1.00  0.00     0.009 A 
HETATM   26  C4  UNL     1      -0.410   7.776 -19.023  1.00  0.00     0.001 A 
HETATM   27  C5  UNL     1       0.801   8.150 -18.453  1.00  0.00     0.002 A 
HETATM   28  C6  UNL     1       1.804   7.225 -18.247  1.00  0.00     0.030 A 
ENDBRANCH  20  22
ENDBRANCH  14  20
ENDBRANCH   1  12
BRANCH   7  29
HETATM   29  C16 UNL     1       7.490  -2.127 -12.592  1.00  0.00     0.116 A 
HETATM   30  C17 UNL     1       7.833  -1.537 -11.381  1.00  0.00     0.122 A 
HETATM   31  N3  UNL     1       7.281  -1.975 -10.240  1.00  0.00    -0.372 N 
HETATM   32  C18 UNL     1       6.388  -2.983 -10.203  1.00  0.00     0.104 A 
ATOM     33  H3  UNL     1       7.549  -1.526  -9.363  1.00  0.00     0.164 HD
HETATM   34  C19 UNL     1       6.044  -3.573 -11.399  1.00  0.00     0.105 A 
HETATM   35  N4  UNL     1       6.594  -3.135 -12.546  1.00  0.00    -0.359 N 
ATOM     36  H4  UNL     1       6.323  -3.586 -13.420  1.00  0.00     0.165 HD
ENDBRANCH   7  29
TORSDOF 4
ENDMDL
MODEL 3
REMARK VINA RESULT: -7.930961550      5.098      9.766
REMARK  4 active torsions:
REMARK  status: ('A' for Active; 'I' for Inactive)
REMARK    1  A    between atoms: C7_7  and  N1_8 
REMARK    2  A    between atoms: N1_8  and  C8_10 
REMARK    3  A    between atoms: C10_12  and  C11_13 
REMARK       I    between atoms: N2_17  and  C15_19 
REMARK    4  A    between atoms: C15_19  and  C16_21 
ROOT
HETATM    1  C11 UNL     1       3.836   1.358 -14.985  1.00  0.00     0.006 A 
HETATM    2  C12 UNL     1       3.093   0.211 -14.835  1.00  0.00     0.019 A 
HETATM    3  C13 UNL     1       3.690  -1.025 -14.596  1.00  0.00     0.049 A 
HETATM    4  C14 UNL     1       5.062  -1.091 -14.510  1.00  0.00     0.107 A 
HETATM    5  N2  UNL     1       5.595  -2.252 -14.287  1.00  0.00    -0.308 N 
ATOM      6  H2  UNL     1       4.988  -3.065 -14.184  1.00  0.00     0.170 HD
HETATM    7  C15 UNL     1       6.991  -2.423 -14.183  1.00  0.00     0.275 C 
HETATM    8  O1  UNL     1       7.655  -2.864 -15.141  1.00  0.00    -0.266 OA
HETATM    9  N5  UNL     1       5.794   0.029 -14.656  1.00  0.00    -0.351 N 
ATOM     10  H5  UNL     1       6.810  -0.028 -14.590  1.00  0.00     0.166 HD
HETATM   11  C20 UNL     1       5.216   1.221 -14.886  1.00  0.00     0.103 A 
ENDROOT
BRANCH   1  12
HETATM   12  C10 UNL     1       3.255   2.659 -15.233  1.00  0.00     0.048 A 
HETATM   13  C9  UNL     1       3.375   3.310 -16.435  1.00  0.00     0.079 A 
HETATM   14  C8  UNL     1       2.788   4.570 -16.611  1.00  0.00     0.108 A 
HETATM   15  N7  UNL     1       2.107   5.152 -15.613  1.00  0.00    -0.339 N 
HETATM   16  C21 UNL     1       1.996   4.502 -14.436  1.00  0.00     0.182 A 
ATOM     17  H7  UNL     1       1.680   6.069 -15.742  1.00  0.00     0.168 HD
HETATM   18  N6  UNL     1       2.560   3.292 -14.269  1.00  0.00    -0.351 N 
ATOM     19  H6  UNL     1       2.456   2.831 -13.365  1.00  0.00     0.166 HD
BRANCH  14  20
HETATM   20  N1  UNL     1       2.892   5.192 -17.731  1.00  0.00    -0.342 N 
ATOM     21  H1  UNL     1       3.740   5.084 -18.287  1.00  0.00     0.167 HD
BRANCH  20  22
HETATM   22  C7  UNL     1       1.846   6.027 -18.209  1.00  0.00     0.039 A 
HETATM   23  C2  UNL     1       0.781   5.493 -18.909  1.00  0.00    -0.035 A 
HETATM   24  C1  UNL     1       0.682   4.043 -19.190  1.00  0.00     0.050 C 
HETATM   25  C3  UNL     1      -0.253   6.292 -19.386  1.00  0.00     0.009 A 
HETATM   26  C4  UNL     1      -0.249   7.644 -19.174  1.00  0.00     0.001 A 
HETATM   27  C5  UNL     1       0.818   8.192 -18.471  1.00  0.00     0.002 A 
HETATM   28  C6  UNL     1       1.841   7.395 -18.001  1.00  0.00     0.030 A 
ENDBRANCH  20  22
ENDBRANCH  14  20
ENDBRANCH   1  12
BRANCH   7  29
HETATM   29  C16 UNL     1       7.662  -2.081 -12.947  1.00  0.00     0.116 A 
HETATM   30  C17 UNL     1       6.971  -1.548 -11.864  1.00  0.00     0.122 A 
HETATM   31  N3  UNL     1       7.623  -1.243 -10.734  1.00  0.00    -0.372 N 
HETATM   32  C18 UNL     1       8.950  -1.431 -10.585  1.00  0.00     0.104 A 
ATOM     33  H3  UNL     1       7.095  -0.852  -9.953  1.00  0.00     0.164 HD
HETATM   34  C19 UNL     1       9.641  -1.959 -11.653  1.00  0.00     0.105 A 
HETATM   35  N4  UNL     1       8.989  -2.267 -12.789  1.00  0.00    -0.359 N 
ATOM     36  H4  UNL     1       9.522  -2.658 -13.566  1.00  0.00     0.165 HD
ENDBRANCH   7  29
TORSDOF 4
ENDMDL
MODEL 4
REMARK VINA RESULT: -7.885681052      2.931      8.975
REMARK  4 active torsions:
REMARK  status: ('A' for Active; 'I' for Inactive)
REMARK    1  A    between atoms: C7_7  and  N1_8 
REMARK    2  A    between atoms: N1_8  and  C8_10 
REMARK    3  A    between atoms: C10_12  and  C11_13 
REMARK       I    between atoms: N2_17  and  C15_19 
REMARK    4  A    between atoms: C15_19  and  C16_21 
ROOT
HETATM    1  C11 UNL     1       4.713   1.933 -17.747  1.00  0.00     0.006 A 
HETATM    2  C12 UNL     1       5.056   2.744 -16.692  1.00  0.00     0.019 A 
HETATM    3  C13 UNL     1       6.191   2.505 -15.921  1.00  0.00     0.049 A 
HETATM    4  C14 UNL     1       6.986   1.424 -16.230  1.00  0.00     0.107 A 
HETATM    5  N2  UNL     1       8.037   1.222 -15.498  1.00  0.00    -0.308 N 
ATOM      6  H2  UNL     1       8.237   1.862 -14.730  1.00  0.00     0.170 HD
HETATM    7  C15 UNL     1       8.913   0.142 -15.735  1.00  0.00     0.275 C 
HETATM    8  O1  UNL     1       8.853  -0.893 -15.044  1.00  0.00    -0.266 OA
HETATM    9  N5  UNL     1       6.654   0.628 -17.263  1.00  0.00    -0.351 N 
ATOM     10  H5  UNL     1       7.248  -0.171 -17.487  1.00  0.00     0.166 HD
HETATM   11  C20 UNL     1       5.558   0.860 -18.006  1.00  0.00     0.103 A 
ENDROOT
BRANCH   1  12
HETATM   12  C10 UNL     1       3.544   2.146 -18.572  1.00  0.00     0.048 A 
HETATM   13  C9  UNL     1       2.522   2.987 -18.211  1.00  0.00     0.079 A 
HETATM   14  C8  UNL     1       1.417   3.150 -19.056  1.00  0.00     0.108 A 
HETATM   15  N7  UNL     1       1.344   2.491 -20.221  1.00  0.00    -0.339 N 
HETATM   16  C21 UNL     1       2.356   1.667 -20.565  1.00  0.00     0.182 A 
ATOM     17  H7  UNL     1       0.540   2.610 -20.836  1.00  0.00     0.168 HD
HETATM   18  N6  UNL     1       3.416   1.512 -19.753  1.00  0.00    -0.351 N 
ATOM     19  H6  UNL     1       4.162   0.880 -20.047  1.00  0.00     0.166 HD
BRANCH  14  20
HETATM   20  N1  UNL     1       0.452   3.934 -18.731  1.00  0.00    -0.342 N 
ATOM     21  H1  UNL     1      -0.411   3.538 -18.357  1.00  0.00     0.167 HD
BRANCH  20  22
HETATM   22  C7  UNL     1       0.564   5.342 -18.882  1.00  0.00     0.039 A 
HETATM   23  C2  UNL     1       0.016   5.981 -19.977  1.00  0.00    -0.035 A 
HETATM   24  C1  UNL     1      -0.706   5.235 -21.033  1.00  0.00     0.050 C 
HETATM   25  C3  UNL     1       0.115   7.358 -20.145  1.00  0.00     0.009 A 
HETATM   26  C4  UNL     1       0.763   8.132 -19.221  1.00  0.00     0.001 A 
HETATM   27  C5  UNL     1       1.319   7.500 -18.114  1.00  0.00     0.002 A 
HETATM   28  C6  UNL     1       1.219   6.134 -17.953  1.00  0.00     0.030 A 
ENDBRANCH  20  22
ENDBRANCH  14  20
ENDBRANCH   1  12
BRANCH   7  29
HETATM   29  C16 UNL     1       9.894   0.238 -16.795  1.00  0.00     0.116 A 
HETATM   30  C17 UNL     1      10.656  -0.857 -17.186  1.00  0.00     0.122 A 
HETATM   31  N3  UNL     1      11.555  -0.734 -18.172  1.00  0.00    -0.372 N 
HETATM   32  C18 UNL     1      11.766   0.427 -18.824  1.00  0.00     0.104 A 
ATOM     33  H3  UNL     1      12.103  -1.552 -18.441  1.00  0.00     0.164 HD
HETATM   34  C19 UNL     1      11.015   1.517 -18.443  1.00  0.00     0.105 A 
HETATM   35  N4  UNL     1      10.111   1.396 -17.454  1.00  0.00    -0.359 N 
ATOM     36  H4  UNL     1       9.565   2.216 -17.190  1.00  0.00     0.165 HD
ENDBRANCH   7  29
TORSDOF 4
ENDMDL
MODEL 5
REMARK VINA RESULT: -7.874785114      3.181      8.580
REMARK  4 active torsions:
REMARK  status: ('A' for Active; 'I' for Inactive)
REMARK    1  A    between atoms: C7_7  and  N1_8 
REMARK    2  A    between atoms: N1_8  and  C8_10 
REMARK    3  A    between atoms: C10_12  and  C11_13 
REMARK       I    between atoms: N2_17  and  C15_19 
REMARK    4  A    between atoms: C15_19  and  C16_21 
ROOT
HETATM    1  C11 UNL     1       4.456   1.351 -18.682  1.00  0.00     0.006 A 
HETATM    2  C12 UNL     1       5.352   0.618 -19.422  1.00  0.00     0.019 A 
HETATM    3  C13 UNL     1       6.533   0.127 -18.871  1.00  0.00     0.049 A 
HETATM    4  C14 UNL     1       6.803   0.389 -17.547  1.00  0.00     0.107 A 
HETATM    5  N2  UNL     1       7.909  -0.078 -17.055  1.00  0.00    -0.308 N 
ATOM      6  H2  UNL     1       8.531  -0.616 -17.658  1.00  0.00     0.170 HD
HETATM    7  C15 UNL     1       8.275   0.137 -15.711  1.00  0.00     0.275 C 
HETATM    8  O1  UNL     1       9.103   1.019 -15.407  1.00  0.00    -0.266 OA
HETATM    9  N5  UNL     1       5.929   1.107 -16.818  1.00  0.00    -0.351 N 
ATOM     10  H5  UNL     1       6.136   1.296 -15.837  1.00  0.00     0.166 HD
HETATM   11  C20 UNL     1       4.789   1.579 -17.352  1.00  0.00     0.103 A 
ENDROOT
BRANCH   1  12
HETATM   12  C10 UNL     1       3.219   1.878 -19.216  1.00  0.00     0.048 A 
HETATM   13  C9  UNL     1       2.429   2.765 -18.530  1.00  0.00     0.079 A 
HETATM   14  C8  UNL     1       1.243   3.237 -19.104  1.00  0.00     0.108 A 
HETATM   15  N7  UNL     1       0.865   2.831 -20.325  1.00  0.00    -0.339 N 
HETATM   16  C21 UNL     1       1.650   1.958 -20.990  1.00  0.00     0.182 A 
ATOM     17  H7  UNL     1       0.001   3.176 -20.742  1.00  0.00     0.168 HD
HETATM   18  N6  UNL     1       2.789   1.506 -20.437  1.00  0.00    -0.351 N 
ATOM     19  H6  UNL     1       3.357   0.847 -20.970  1.00  0.00     0.166 HD
BRANCH  14  20
HETATM   20  N1  UNL     1       0.493   4.069 -18.473  1.00  0.00    -0.342 N 
ATOM     21  H1  UNL     1      -0.176   3.719 -17.787  1.00  0.00     0.167 HD
BRANCH  20  22
HETATM   22  C7  UNL     1       0.579   5.466 -18.712  1.00  0.00     0.039 A 
HETATM   23  C2  UNL     1       1.339   6.278 -17.891  1.00  0.00    -0.035 A 
HETATM   24  C1  UNL     1       2.091   5.733 -16.738  1.00  0.00     0.050 C 
HETATM   25  C3  UNL     1       1.438   7.648 -18.107  1.00  0.00     0.009 A 
HETATM   26  C4  UNL     1       0.779   8.243 -19.150  1.00  0.00     0.001 A 
HETATM   27  C5  UNL     1       0.011   7.436 -19.982  1.00  0.00     0.002 A 
HETATM   28  C6  UNL     1      -0.083   6.077 -19.763  1.00  0.00     0.030 A 
ENDBRANCH  20  22
ENDBRANCH  14  20
ENDBRANCH   1  12
BRANCH   7  29
HETATM   29  C16 UNL     1       7.683  -0.676 -14.670  1.00  0.00     0.116 A 
HETATM   30  C17 UNL     1       8.022  -2.014 -14.508  1.00  0.00     0.122 A 
HETATM   31  N3  UNL     1       7.454  -2.739 -13.533  1.00  0.00    -0.372 N 
HETATM   32  C18 UNL     1       6.547  -2.225 -12.679  1.00  0.00     0.104 A 
ATOM     33  H3  UNL     1       7.718  -3.719 -13.434  1.00  0.00     0.164 HD
HETATM   34  C19 UNL     1       6.206  -0.900 -12.833  1.00  0.00     0.105 A 
HETATM   35  N4  UNL     1       6.775  -0.170 -13.809  1.00  0.00    -0.359 N 
ATOM     36  H4  UNL     1       6.508   0.810 -13.904  1.00  0.00     0.165 HD
ENDBRANCH   7  29
TORSDOF 4
ENDMDL
