MODEL 1
REMARK VINA RESULT: -8.135976262      0.000      0.000
REMARK  5 active torsions:
REMARK  status: ('A' for Active; 'I' for Inactive)
REMARK       I    between atoms: C1_2  and  N1_3 
REMARK       I    between atoms: C1_2  and  N3_12 
REMARK    1  A    between atoms: N1_3  and  C2_5 
REMARK    2  A    between atoms: N3_12  and  C7_14 
REMARK    3  A    between atoms: C10_17  and  N4_18 
REMARK    4  A    between atoms: C13_21  and  C14_22 
REMARK    5  A    between atoms: N5_23  and  N6_25 
ROOT
HETATM    1  C7  UNL     1       0.239  -3.862 -16.846  1.00  0.00     0.036 A 
HETATM    2  C8  UNL     1      -0.489  -2.734 -17.063  1.00  0.00     0.032 A 
HETATM    3  C9  UNL     1       0.120  -1.581 -17.588  1.00  0.00     0.032 A 
HETATM    4  C10 UNL     1       1.460  -1.547 -17.899  1.00  0.00     0.038 A 
HETATM    5  C21 UNL     1       2.157  -2.706 -17.666  1.00  0.00     0.032 A 
HETATM    6  C22 UNL     1       1.614  -3.848 -17.159  1.00  0.00     0.032 A 
ENDROOT
BRANCH   4   7
HETATM    7  N4  UNL     1       2.034  -0.350 -18.430  1.00  0.00    -0.332 N 
HETATM    8  C11 UNL     1       3.053  -0.261 -19.303  1.00  0.00     0.097 A 
HETATM    9  C12 UNL     1       3.331   1.058 -19.587  1.00  0.00     0.032 A 
HETATM   10  C13 UNL     1       2.430   1.836 -18.847  1.00  0.00    -0.002 A 
HETATM   11  C20 UNL     1       1.665   0.914 -18.162  1.00  0.00     0.109 A 
BRANCH  10  12
HETATM   12  C14 UNL     1       2.349   3.285 -18.831  1.00  0.00     0.120 C 
HETATM   13  N5  UNL     1       1.279   3.844 -18.420  1.00  0.00    -0.305 N 
ATOM     14  H5  UNL     1       0.499   3.265 -18.110  1.00  0.00     0.186 HD
BRANCH  13  15
HETATM   15  N6  UNL     1       1.156   5.227 -18.385  1.00  0.00    -0.279 N 
HETATM   16  C15 UNL     1       0.122   5.856 -18.975  1.00  0.00     0.119 A 
HETATM   17  C16 UNL     1      -0.036   7.220 -18.963  1.00  0.00     0.074 A 
HETATM   18  C17 UNL     1       0.907   7.971 -18.317  1.00  0.00     0.174 A 
HETATM   19  O2  UNL     1       0.798   9.239 -18.282  1.00  0.00    -0.288 OA
HETATM   20  C18 UNL     1       1.962   7.324 -17.716  1.00  0.00     0.074 A 
HETATM   21  C19 UNL     1       2.083   5.963 -17.750  1.00  0.00     0.119 A 
ENDBRANCH  13  15
ENDBRANCH  10  12
ENDBRANCH   4   7
BRANCH   1  22
HETATM   22  N3  UNL     1      -0.291  -5.032 -16.306  1.00  0.00    -0.309 N 
HETATM   23  C1  UNL     1      -0.685  -6.141 -17.047  1.00  0.00     0.326 C 
HETATM   24  O1  UNL     1      -0.642  -6.277 -18.273  1.00  0.00    -0.247 OA
HETATM   25  N1  UNL     1      -1.210  -7.284 -16.326  1.00  0.00    -0.294 N 
ATOM     26  H1  UNL     1      -0.631  -8.097 -16.119  1.00  0.00     0.172 HD
ATOM     27  H3  UNL     1      -0.397  -5.079 -15.293  1.00  0.00     0.170 HD
BRANCH  25  28
HETATM   28  C2  UNL     1      -2.436  -7.221 -15.962  1.00  0.00     0.108 A 
HETATM   29  C3  UNL     1      -2.862  -8.151 -15.024  1.00  0.00     0.049 A 
HETATM   30  C4  UNL     1      -4.179  -8.093 -14.627  1.00  0.00     0.005 A 
HETATM   31  C5  UNL     1      -5.014  -7.142 -15.153  1.00  0.00     0.017 A 
HETATM   32  C6  UNL     1      -4.560  -6.238 -16.080  1.00  0.00     0.089 A 
HETATM   33  N2  UNL     1      -3.275  -6.298 -16.465  1.00  0.00    -0.352 N 
ATOM     34  H2  UNL     1      -2.929  -5.630 -17.153  1.00  0.00     0.166 HD
ENDBRANCH  25  28
ENDBRANCH   1  22
TORSDOF 5
ENDMDL
MODEL 2
REMARK VINA RESULT: -8.061094435      0.149      1.219
REMARK  5 active torsions:
REMARK  status: ('A' for Active; 'I' for Inactive)
REMARK       I    between atoms: C1_2  and  N1_3 
REMARK       I    between atoms: C1_2  and  N3_12 
REMARK    1  A    between atoms: N1_3  and  C2_5 
REMARK    2  A    between atoms: N3_12  and  C7_14 
REMARK    3  A    between atoms: C10_17  and  N4_18 
REMARK    4  A    between atoms: C13_21  and  C14_22 
REMARK    5  A    between atoms: N5_23  and  N6_25 
ROOT
HETATM    1  C7  UNL     1       0.361  -3.975 -16.711  1.00  0.00     0.036 A 
HETATM    2  C8  UNL     1       1.685  -3.860 -16.999  1.00  0.00     0.032 A 
HETATM    3  C9  UNL     1       2.200  -2.661 -17.522  1.00  0.00     0.032 A 
HETATM    4  C10 UNL     1       1.397  -1.570 -17.761  1.00  0.00     0.038 A 
HETATM    5  C21 UNL     1       0.067  -1.729 -17.456  1.00  0.00     0.032 A 
HETATM    6  C22 UNL     1      -0.480  -2.868 -16.949  1.00  0.00     0.032 A 
ENDROOT
BRANCH   4   7
HETATM    7  N4  UNL     1       1.967  -0.373 -18.294  1.00  0.00    -0.332 N 
HETATM    8  C11 UNL     1       2.947  -0.282 -19.211  1.00  0.00     0.097 A 
HETATM    9  C12 UNL     1       3.234   1.038 -19.481  1.00  0.00     0.032 A 
HETATM   10  C13 UNL     1       2.381   1.815 -18.686  1.00  0.00    -0.002 A 
HETATM   11  C20 UNL     1       1.632   0.891 -17.985  1.00  0.00     0.109 A 
BRANCH  10  12
HETATM   12  C14 UNL     1       2.327   3.264 -18.637  1.00  0.00     0.120 C 
HETATM   13  N5  UNL     1       1.191   3.844 -18.609  1.00  0.00    -0.305 N 
ATOM     14  H5  UNL     1       0.341   3.280 -18.622  1.00  0.00     0.186 HD
BRANCH  13  15
HETATM   15  N6  UNL     1       1.088   5.228 -18.561  1.00  0.00    -0.279 N 
HETATM   16  C15 UNL     1       1.994   5.978 -17.905  1.00  0.00     0.119 A 
HETATM   17  C16 UNL     1       1.928   7.348 -17.833  1.00  0.00     0.074 A 
HETATM   18  C17 UNL     1       0.889   7.975 -18.463  1.00  0.00     0.174 A 
HETATM   19  O2  UNL     1       0.791   9.244 -18.421  1.00  0.00    -0.288 OA
HETATM   20  C18 UNL     1      -0.035   7.205 -19.132  1.00  0.00     0.074 A 
HETATM   21  C19 UNL     1       0.067   5.842 -19.180  1.00  0.00     0.119 A 
ENDBRANCH  13  15
ENDBRANCH  10  12
ENDBRANCH   4   7
BRANCH   1  22
HETATM   22  N3  UNL     1      -0.223  -5.139 -16.215  1.00  0.00    -0.309 N 
HETATM   23  C1  UNL     1      -0.657  -6.204 -16.997  1.00  0.00     0.326 C 
HETATM   24  O1  UNL     1      -0.609  -6.301 -18.226  1.00  0.00    -0.247 OA
HETATM   25  N1  UNL     1      -1.237  -7.347 -16.320  1.00  0.00    -0.294 N 
ATOM     26  H1  UNL     1      -0.695  -8.191 -16.136  1.00  0.00     0.172 HD
ATOM     27  H3  UNL     1      -0.341  -5.215 -15.205  1.00  0.00     0.170 HD
BRANCH  25  28
HETATM   28  C2  UNL     1      -2.463  -7.245 -15.963  1.00  0.00     0.108 A 
HETATM   29  C3  UNL     1      -2.918  -8.144 -15.009  1.00  0.00     0.049 A 
HETATM   30  C4  UNL     1      -4.235  -8.043 -14.620  1.00  0.00     0.005 A 
HETATM   31  C5  UNL     1      -5.041  -7.081 -15.169  1.00  0.00     0.017 A 
HETATM   32  C6  UNL     1      -4.559  -6.207 -16.111  1.00  0.00     0.089 A 
HETATM   33  N2  UNL     1      -3.275  -6.309 -16.488  1.00  0.00    -0.352 N 
ATOM     34  H2  UNL     1      -2.907  -5.664 -17.187  1.00  0.00     0.166 HD
ENDBRANCH  25  28
ENDBRANCH   1  22
TORSDOF 5
ENDMDL
MODEL 3
REMARK VINA RESULT: -7.660441199      1.992     11.593
REMARK  5 active torsions:
REMARK  status: ('A' for Active; 'I' for Inactive)
REMARK       I    between atoms: C1_2  and  N1_3 
REMARK       I    between atoms: C1_2  and  N3_12 
REMARK    1  A    between atoms: N1_3  and  C2_5 
REMARK    2  A    between atoms: N3_12  and  C7_14 
REMARK    3  A    between atoms: C10_17  and  N4_18 
REMARK    4  A    between atoms: C13_21  and  C14_22 
REMARK    5  A    between atoms: N5_23  and  N6_25 
ROOT
HETATM    1  C7  UNL     1       1.898   1.616 -18.285  1.00  0.00     0.036 A 
HETATM    2  C8  UNL     1       0.625   1.181 -18.088  1.00  0.00     0.032 A 
HETATM    3  C9  UNL     1       0.370  -0.165 -17.775  1.00  0.00     0.032 A 
HETATM    4  C10 UNL     1       1.385  -1.086 -17.656  1.00  0.00     0.038 A 
HETATM    5  C21 UNL     1       2.655  -0.605 -17.861  1.00  0.00     0.032 A 
HETATM    6  C22 UNL     1       2.953   0.688 -18.168  1.00  0.00     0.032 A 
ENDROOT
BRANCH   4   7
HETATM    7  N4  UNL     1       1.076  -2.445 -17.336  1.00  0.00    -0.332 N 
HETATM    8  C11 UNL     1       1.851  -3.312 -16.661  1.00  0.00     0.097 A 
HETATM    9  C12 UNL     1       1.221  -4.531 -16.543  1.00  0.00     0.032 A 
HETATM   10  C13 UNL     1      -0.021  -4.414 -17.182  1.00  0.00    -0.002 A 
HETATM   11  C20 UNL     1      -0.047  -3.114 -17.645  1.00  0.00     0.109 A 
BRANCH  10  12
HETATM   12  C14 UNL     1      -1.029  -5.451 -17.310  1.00  0.00     0.120 C 
HETATM   13  N5  UNL     1      -2.050  -5.424 -16.546  1.00  0.00    -0.305 N 
ATOM     14  H5  UNL     1      -2.141  -4.676 -15.858  1.00  0.00     0.186 HD
BRANCH  13  15
HETATM   15  N6  UNL     1      -3.041  -6.394 -16.631  1.00  0.00    -0.279 N 
HETATM   16  C15 UNL     1      -4.011  -6.492 -15.703  1.00  0.00     0.119 A 
HETATM   17  C16 UNL     1      -5.007  -7.436 -15.751  1.00  0.00     0.074 A 
HETATM   18  C17 UNL     1      -5.008  -8.316 -16.797  1.00  0.00     0.174 A 
HETATM   19  O2  UNL     1      -5.915  -9.207 -16.880  1.00  0.00    -0.288 OA
HETATM   20  C18 UNL     1      -4.015  -8.213 -17.743  1.00  0.00     0.074 A 
HETATM   21  C19 UNL     1      -3.040  -7.258 -17.659  1.00  0.00     0.119 A 
ENDBRANCH  13  15
ENDBRANCH  10  12
ENDBRANCH   4   7
BRANCH   1  22
HETATM   22  N3  UNL     1       2.223   2.928 -18.623  1.00  0.00    -0.309 N 
HETATM   23  C1  UNL     1       2.604   3.910 -17.714  1.00  0.00     0.326 C 
HETATM   24  O1  UNL     1       2.711   3.799 -16.491  1.00  0.00    -0.247 OA
HETATM   25  N1  UNL     1       2.918   5.226 -18.235  1.00  0.00    -0.294 N 
ATOM     26  H1  UNL     1       3.880   5.525 -18.389  1.00  0.00     0.172 HD
ATOM     27  H3  UNL     1       2.179   3.187 -19.608  1.00  0.00     0.170 HD
BRANCH  25  28
HETATM   28  C2  UNL     1       1.927   5.995 -18.492  1.00  0.00     0.108 A 
HETATM   29  C3  UNL     1       2.032   7.317 -18.081  1.00  0.00     0.049 A 
HETATM   30  C4  UNL     1       0.971   8.152 -18.353  1.00  0.00     0.005 A 
HETATM   31  C5  UNL     1      -0.133   7.669 -19.006  1.00  0.00     0.017 A 
HETATM   32  C6  UNL     1      -0.204   6.356 -19.399  1.00  0.00     0.089 A 
HETATM   33  N2  UNL     1       0.832   5.545 -19.132  1.00  0.00    -0.352 N 
ATOM     34  H2  UNL     1       0.788   4.568 -19.420  1.00  0.00     0.166 HD
ENDBRANCH  25  28
ENDBRANCH   1  22
TORSDOF 5
ENDMDL
MODEL 4
REMARK VINA RESULT: -7.518263251      6.041      8.445
REMARK  5 active torsions:
REMARK  status: ('A' for Active; 'I' for Inactive)
REMARK       I    between atoms: C1_2  and  N1_3 
REMARK       I    between atoms: C1_2  and  N3_12 
REMARK    1  A    between atoms: N1_3  and  C2_5 
REMARK    2  A    between atoms: N3_12  and  C7_14 
REMARK    3  A    between atoms: C10_17  and  N4_18 
REMARK    4  A    between atoms: C13_21  and  C14_22 
REMARK    5  A    between atoms: N5_23  and  N6_25 
ROOT
HETATM    1  C7  UNL     1       6.174  -2.897 -22.499  1.00  0.00     0.036 A 
HETATM    2  C8  UNL     1       4.860  -3.097 -22.208  1.00  0.00     0.032 A 
HETATM    3  C9  UNL     1       4.152  -2.167 -21.427  1.00  0.00     0.032 A 
HETATM    4  C10 UNL     1       4.750  -1.032 -20.932  1.00  0.00     0.038 A 
HETATM    5  C21 UNL     1       6.075  -0.867 -21.250  1.00  0.00     0.032 A 
HETATM    6  C22 UNL     1       6.806  -1.738 -22.001  1.00  0.00     0.032 A 
ENDROOT
BRANCH   4   7
HETATM    7  N4  UNL     1       3.987  -0.115 -20.143  1.00  0.00    -0.332 N 
HETATM    8  C11 UNL     1       3.047  -0.421 -19.231  1.00  0.00     0.097 A 
HETATM    9  C12 UNL     1       2.528   0.725 -18.671  1.00  0.00     0.032 A 
HETATM   10  C13 UNL     1       3.186   1.809 -19.268  1.00  0.00    -0.002 A 
HETATM   11  C20 UNL     1       4.065   1.226 -20.159  1.00  0.00     0.109 A 
BRANCH  10  12
HETATM   12  C14 UNL     1       2.965   3.216 -18.988  1.00  0.00     0.120 C 
HETATM   13  N5  UNL     1       1.777   3.678 -19.027  1.00  0.00    -0.305 N 
ATOM     14  H5  UNL     1       1.003   3.053 -19.254  1.00  0.00     0.186 HD
BRANCH  13  15
HETATM   15  N6  UNL     1       1.515   5.017 -18.766  1.00  0.00    -0.279 N 
HETATM   16  C15 UNL     1       0.315   5.565 -19.033  1.00  0.00     0.119 A 
HETATM   17  C16 UNL     1       0.017   6.883 -18.789  1.00  0.00     0.074 A 
HETATM   18  C17 UNL     1       0.993   7.673 -18.249  1.00  0.00     0.174 A 
HETATM   19  O2  UNL     1       0.758   8.901 -18.007  1.00  0.00    -0.288 OA
HETATM   20  C18 UNL     1       2.218   7.110 -17.978  1.00  0.00     0.074 A 
HETATM   21  C19 UNL     1       2.476   5.792 -18.234  1.00  0.00     0.119 A 
ENDBRANCH  13  15
ENDBRANCH  10  12
ENDBRANCH   4   7
BRANCH   1  22
HETATM   22  N3  UNL     1       6.945  -3.787 -23.244  1.00  0.00    -0.309 N 
HETATM   23  C1  UNL     1       7.262  -3.628 -24.589  1.00  0.00     0.326 C 
HETATM   24  O1  UNL     1       6.922  -2.707 -25.336  1.00  0.00    -0.247 OA
HETATM   25  N1  UNL     1       8.084  -4.646 -25.213  1.00  0.00    -0.294 N 
ATOM     26  H1  UNL     1       9.086  -4.515 -25.348  1.00  0.00     0.172 HD
ATOM     27  H3  UNL     1       7.303  -4.614 -22.768  1.00  0.00     0.170 HD
BRANCH  25  28
HETATM   28  C2  UNL     1       7.490  -5.717 -25.586  1.00  0.00     0.108 A 
HETATM   29  C3  UNL     1       8.037  -6.920 -25.163  1.00  0.00     0.049 A 
HETATM   30  C4  UNL     1       7.406  -8.078 -25.560  1.00  0.00     0.005 A 
HETATM   31  C5  UNL     1       6.283  -8.015 -26.342  1.00  0.00     0.017 A 
HETATM   32  C6  UNL     1       5.769  -6.807 -26.745  1.00  0.00     0.089 A 
HETATM   33  N2  UNL     1       6.387  -5.681 -26.355  1.00  0.00    -0.352 N 
ATOM     34  H2  UNL     1       6.012  -4.780 -26.649  1.00  0.00     0.166 HD
ENDBRANCH  25  28
ENDBRANCH   1  22
TORSDOF 5
ENDMDL
MODEL 5
REMARK VINA RESULT: -7.486622323      7.077      8.786
REMARK  5 active torsions:
REMARK  status: ('A' for Active; 'I' for Inactive)
REMARK       I    between atoms: C1_2  and  N1_3 
REMARK       I    between atoms: C1_2  and  N3_12 
REMARK    1  A    between atoms: N1_3  and  C2_5 
REMARK    2  A    between atoms: N3_12  and  C7_14 
REMARK    3  A    between atoms: C10_17  and  N4_18 
REMARK    4  A    between atoms: C13_21  and  C14_22 
REMARK    5  A    between atoms: N5_23  and  N6_25 
ROOT
HETATM    1  C7  UNL     1       6.076  -2.096 -22.452  1.00  0.00     0.036 A 
HETATM    2  C8  UNL     1       4.858  -2.376 -21.917  1.00  0.00     0.032 A 
HETATM    3  C9  UNL     1       4.095  -1.365 -21.306  1.00  0.00     0.032 A 
HETATM    4  C10 UNL     1       4.545  -0.068 -21.225  1.00  0.00     0.038 A 
HETATM    5  C21 UNL     1       5.779   0.172 -21.778  1.00  0.00     0.032 A 
HETATM    6  C22 UNL     1       6.556  -0.772 -22.379  1.00  0.00     0.032 A 
ENDROOT
BRANCH   4   7
HETATM    7  N4  UNL     1       3.734   0.926 -20.595  1.00  0.00    -0.332 N 
HETATM    8  C11 UNL     1       2.546   1.390 -21.021  1.00  0.00     0.097 A 
HETATM    9  C12 UNL     1       2.061   2.343 -20.153  1.00  0.00     0.032 A 
HETATM   10  C13 UNL     1       3.003   2.479 -19.124  1.00  0.00    -0.002 A 
HETATM   11  C20 UNL     1       4.001   1.585 -19.455  1.00  0.00     0.109 A 
BRANCH  10  12
HETATM   12  C14 UNL     1       2.914   3.373 -17.984  1.00  0.00     0.120 C 
HETATM   13  N5  UNL     1       3.535   3.074 -16.910  1.00  0.00    -0.305 N 
ATOM     14  H5  UNL     1       4.082   2.214 -16.871  1.00  0.00     0.186 HD
BRANCH  13  15
HETATM   15  N6  UNL     1       3.481   3.898 -15.793  1.00  0.00    -0.279 N 
HETATM   16  C15 UNL     1       2.537   4.849 -15.666  1.00  0.00     0.119 A 
HETATM   17  C16 UNL     1       2.450   5.683 -14.578  1.00  0.00     0.074 A 
HETATM   18  C17 UNL     1       3.371   5.535 -13.579  1.00  0.00     0.174 A 
HETATM   19  O2  UNL     1       3.325   6.288 -12.553  1.00  0.00    -0.288 OA
HETATM   20  C18 UNL     1       4.335   4.562 -13.713  1.00  0.00     0.074 A 
HETATM   21  C19 UNL     1       4.387   3.751 -14.813  1.00  0.00     0.119 A 
ENDBRANCH  13  15
ENDBRANCH  10  12
ENDBRANCH   4   7
BRANCH   1  22
HETATM   22  N3  UNL     1       6.897  -3.051 -23.048  1.00  0.00    -0.309 N 
HETATM   23  C1  UNL     1       7.308  -3.024 -24.377  1.00  0.00     0.326 C 
HETATM   24  O1  UNL     1       7.024  -2.183 -25.234  1.00  0.00    -0.247 OA
HETATM   25  N1  UNL     1       8.171  -4.094 -24.838  1.00  0.00    -0.294 N 
ATOM     26  H1  UNL     1       9.180  -3.972 -24.914  1.00  0.00     0.172 HD
ATOM     27  H3  UNL     1       7.219  -3.825 -22.469  1.00  0.00     0.170 HD
BRANCH  25  28
HETATM   28  C2  UNL     1       7.604  -5.200 -25.144  1.00  0.00     0.108 A 
HETATM   29  C3  UNL     1       8.082  -6.346 -24.525  1.00  0.00     0.049 A 
HETATM   30  C4  UNL     1       7.479  -7.541 -24.848  1.00  0.00     0.005 A 
HETATM   31  C5  UNL     1       6.448  -7.568 -25.750  1.00  0.00     0.017 A 
HETATM   32  C6  UNL     1       5.999  -6.415 -26.345  1.00  0.00     0.089 A 
HETATM   33  N2  UNL     1       6.590  -5.253 -26.027  1.00  0.00    -0.352 N 
ATOM     34  H2  UNL     1       6.263  -4.391 -26.464  1.00  0.00     0.166 HD
ENDBRANCH  25  28
ENDBRANCH   1  22
TORSDOF 5
ENDMDL
