MODEL 1
REMARK VINA RESULT: -7.071275983      0.000      0.000
REMARK  4 active torsions:
REMARK  status: ('A' for Active; 'I' for Inactive)
REMARK    1  A    between atoms: C5_6  and  N2_7 
REMARK    2  A    between atoms: N2_7  and  C6_9 
REMARK    3  A    between atoms: C6_9  and  C7_10 
REMARK    4  A    between atoms: C7_10  and  C8_11 
ROOT
HETATM    1  N1  UNL     1      29.407   3.205 -43.118  1.00  0.00    -0.191 NA
HETATM    2  C1  UNL     1      29.186   4.235 -43.621  1.00  0.00     0.101 C 
HETATM    3  C2  UNL     1      28.914   5.492 -44.259  1.00  0.00     0.060 A 
HETATM    4  C3  UNL     1      29.767   5.955 -45.240  1.00  0.00     0.028 A 
HETATM    5  C4  UNL     1      29.529   7.159 -45.868  1.00  0.00     0.050 A 
HETATM    6  C5  UNL     1      28.425   7.899 -45.504  1.00  0.00     0.100 A 
HETATM    7  N5  UNL     1      27.593   7.441 -44.542  1.00  0.00    -0.351 N 
ATOM      8  H5  UNL     1      26.778   7.996 -44.279  1.00  0.00     0.166 HD
HETATM    9  C11 UNL     1      27.819   6.258 -43.919  1.00  0.00     0.112 A 
ENDROOT
BRANCH   6  10
HETATM   10  N2  UNL     1      28.230   9.010 -46.102  1.00  0.00    -0.376 N 
ATOM     11  H2  UNL     1      27.385   9.085 -46.668  1.00  0.00     0.161 HD
BRANCH  10  12
HETATM   12  C6  UNL     1      29.078  10.158 -46.056  1.00  0.00     0.127 C 
BRANCH  12  13
HETATM   13  C7  UNL     1      28.444  11.350 -45.372  1.00  0.00     0.078 C 
BRANCH  13  14
HETATM   14  C8  UNL     1      28.298  10.984 -43.928  1.00  0.00     0.027 A 
HETATM   15  C9  UNL     1      27.112  10.997 -43.189  1.00  0.00     0.114 A 
HETATM   16  N3  UNL     1      27.374  10.609 -41.928  1.00  0.00    -0.360 N 
HETATM   17  C10 UNL     1      28.691  10.351 -41.851  1.00  0.00     0.180 A 
ATOM     18  H3  UNL     1      26.696  10.526 -41.169  1.00  0.00     0.166 HD
HETATM   19  N4  UNL     1      29.233  10.582 -43.059  1.00  0.00    -0.355 N 
ATOM     20  H4  UNL     1      30.221  10.466 -43.283  1.00  0.00     0.166 HD
ENDBRANCH  13  14
ENDBRANCH  12  13
ENDBRANCH  10  12
ENDBRANCH   6  10
TORSDOF 4
ENDMDL
MODEL 2
REMARK VINA RESULT: -6.901272892      0.664      1.185
REMARK  4 active torsions:
REMARK  status: ('A' for Active; 'I' for Inactive)
REMARK    1  A    between atoms: C5_6  and  N2_7 
REMARK    2  A    between atoms: N2_7  and  C6_9 
REMARK    3  A    between atoms: C6_9  and  C7_10 
REMARK    4  A    between atoms: C7_10  and  C8_11 
ROOT
HETATM    1  N1  UNL     1      29.421   3.221 -43.100  1.00  0.00    -0.191 NA
HETATM    2  C1  UNL     1      29.222   4.233 -43.646  1.00  0.00     0.101 C 
HETATM    3  C2  UNL     1      28.977   5.488 -44.298  1.00  0.00     0.060 A 
HETATM    4  C3  UNL     1      27.885   6.246 -43.927  1.00  0.00     0.028 A 
HETATM    5  C4  UNL     1      27.627   7.455 -44.537  1.00  0.00     0.050 A 
HETATM    6  C5  UNL     1      28.475   7.900 -45.527  1.00  0.00     0.100 A 
HETATM    7  N5  UNL     1      29.544   7.154 -45.888  1.00  0.00    -0.351 N 
ATOM      8  H5  UNL     1      30.166   7.493 -46.622  1.00  0.00     0.166 HD
HETATM    9  C11 UNL     1      29.804   5.964 -45.293  1.00  0.00     0.112 A 
ENDROOT
BRANCH   6  10
HETATM   10  N2  UNL     1      28.212   9.024 -46.076  1.00  0.00    -0.376 N 
ATOM     11  H2  UNL     1      27.328   9.093 -46.580  1.00  0.00     0.161 HD
BRANCH  10  12
HETATM   12  C6  UNL     1      29.033  10.192 -46.052  1.00  0.00     0.127 C 
BRANCH  12  13
HETATM   13  C7  UNL     1      28.385  11.372 -45.361  1.00  0.00     0.078 C 
BRANCH  13  14
HETATM   14  C8  UNL     1      28.265  11.004 -43.915  1.00  0.00     0.027 A 
HETATM   15  C9  UNL     1      27.086  10.986 -43.163  1.00  0.00     0.114 A 
HETATM   16  N3  UNL     1      27.372  10.606 -41.904  1.00  0.00    -0.360 N 
HETATM   17  C10 UNL     1      28.697  10.384 -41.841  1.00  0.00     0.180 A 
ATOM     18  H3  UNL     1      26.705  10.506 -41.138  1.00  0.00     0.166 HD
HETATM   19  N4  UNL     1      29.219  10.628 -43.055  1.00  0.00    -0.355 N 
ATOM     20  H4  UNL     1      30.207  10.539 -43.290  1.00  0.00     0.166 HD
ENDBRANCH  13  14
ENDBRANCH  12  13
ENDBRANCH  10  12
ENDBRANCH   6  10
TORSDOF 4
ENDMDL
MODEL 3
REMARK VINA RESULT: -6.748688188      1.914      2.475
REMARK  4 active torsions:
REMARK  status: ('A' for Active; 'I' for Inactive)
REMARK    1  A    between atoms: C5_6  and  N2_7 
REMARK    2  A    between atoms: N2_7  and  C6_9 
REMARK    3  A    between atoms: C6_9  and  C7_10 
REMARK    4  A    between atoms: C7_10  and  C8_11 
ROOT
HETATM    1  N1  UNL     1      32.200   4.945 -44.084  1.00  0.00    -0.191 NA
HETATM    2  C1  UNL     1      31.541   5.813 -44.501  1.00  0.00     0.101 C 
HETATM    3  C2  UNL     1      30.748   6.893 -45.018  1.00  0.00     0.060 A 
HETATM    4  C3  UNL     1      30.908   8.163 -44.503  1.00  0.00     0.028 A 
HETATM    5  C4  UNL     1      30.159   9.217 -44.981  1.00  0.00     0.050 A 
HETATM    6  C5  UNL     1      29.244   8.987 -45.985  1.00  0.00     0.100 A 
HETATM    7  N5  UNL     1      29.090   7.741 -46.487  1.00  0.00    -0.351 N 
ATOM      8  H5  UNL     1      28.410   7.582 -47.230  1.00  0.00     0.166 HD
HETATM    9  C11 UNL     1      29.822   6.699 -46.022  1.00  0.00     0.112 A 
ENDROOT
BRANCH   6  10
HETATM   10  N2  UNL     1      28.564   9.982 -46.409  1.00  0.00    -0.376 N 
ATOM     11  H2  UNL     1      28.695  10.245 -47.386  1.00  0.00     0.161 HD
BRANCH  10  12
HETATM   12  C6  UNL     1      27.638  10.760 -45.650  1.00  0.00     0.127 C 
BRANCH  12  13
HETATM   13  C7  UNL     1      26.420   9.982 -45.202  1.00  0.00     0.078 C 
BRANCH  13  14
HETATM   14  C8  UNL     1      26.821   9.242 -43.964  1.00  0.00     0.027 A 
HETATM   15  C9  UNL     1      26.600   7.886 -43.706  1.00  0.00     0.114 A 
HETATM   16  N3  UNL     1      27.098   7.581 -42.494  1.00  0.00    -0.360 N 
HETATM   17  C10 UNL     1      27.627   8.706 -41.981  1.00  0.00     0.180 A 
ATOM     18  H3  UNL     1      27.078   6.664 -42.046  1.00  0.00     0.166 HD
HETATM   19  N4  UNL     1      27.452   9.694 -42.874  1.00  0.00    -0.355 N 
ATOM     20  H4  UNL     1      27.758  10.658 -42.740  1.00  0.00     0.166 HD
ENDBRANCH  13  14
ENDBRANCH  12  13
ENDBRANCH  10  12
ENDBRANCH   6  10
TORSDOF 4
ENDMDL
MODEL 4
REMARK VINA RESULT: -6.721958007      1.330      1.581
REMARK  4 active torsions:
REMARK  status: ('A' for Active; 'I' for Inactive)
REMARK    1  A    between atoms: C5_6  and  N2_7 
REMARK    2  A    between atoms: N2_7  and  C6_9 
REMARK    3  A    between atoms: C6_9  and  C7_10 
REMARK    4  A    between atoms: C7_10  and  C8_11 
ROOT
HETATM    1  N1  UNL     1      31.942   4.066 -43.361  1.00  0.00    -0.191 NA
HETATM    2  C1  UNL     1      31.223   4.860 -43.825  1.00  0.00     0.101 C 
HETATM    3  C2  UNL     1      30.348   5.833 -44.415  1.00  0.00     0.060 A 
HETATM    4  C3  UNL     1      30.881   6.863 -45.162  1.00  0.00     0.028 A 
HETATM    5  C4  UNL     1      30.063   7.811 -45.739  1.00  0.00     0.050 A 
HETATM    6  C5  UNL     1      28.700   7.717 -45.562  1.00  0.00     0.100 A 
HETATM    7  N5  UNL     1      28.182   6.705 -44.829  1.00  0.00    -0.351 N 
ATOM      8  H5  UNL     1      27.171   6.645 -44.704  1.00  0.00     0.166 HD
HETATM    9  C11 UNL     1      28.979   5.770 -44.258  1.00  0.00     0.112 A 
ENDROOT
BRANCH   6  10
HETATM   10  N2  UNL     1      27.966   8.608 -46.108  1.00  0.00    -0.376 N 
ATOM     11  H2  UNL     1      27.499   8.350 -46.977  1.00  0.00     0.161 HD
BRANCH  10  12
HETATM   12  C6  UNL     1      27.734   9.930 -45.620  1.00  0.00     0.127 C 
BRANCH  12  13
HETATM   13  C7  UNL     1      26.744   9.988 -44.477  1.00  0.00     0.078 C 
BRANCH  13  14
HETATM   14  C8  UNL     1      27.551  10.116 -43.223  1.00  0.00     0.027 A 
HETATM   15  C9  UNL     1      28.489  11.115 -42.944  1.00  0.00     0.114 A 
HETATM   16  N3  UNL     1      29.011  10.901 -41.723  1.00  0.00    -0.360 N 
HETATM   17  C10 UNL     1      28.428   9.797 -41.223  1.00  0.00     0.180 A 
ATOM     18  H3  UNL     1      29.719  11.472 -41.260  1.00  0.00     0.166 HD
HETATM   19  N4  UNL     1      27.555   9.337 -42.135  1.00  0.00    -0.355 N 
ATOM     20  H4  UNL     1      26.975   8.507 -42.015  1.00  0.00     0.166 HD
ENDBRANCH  13  14
ENDBRANCH  12  13
ENDBRANCH  10  12
ENDBRANCH   6  10
TORSDOF 4
ENDMDL
MODEL 5
REMARK VINA RESULT: -6.506331476      1.693      2.403
REMARK  4 active torsions:
REMARK  status: ('A' for Active; 'I' for Inactive)
REMARK    1  A    between atoms: C5_6  and  N2_7 
REMARK    2  A    between atoms: N2_7  and  C6_9 
REMARK    3  A    between atoms: C6_9  and  C7_10 
REMARK    4  A    between atoms: C7_10  and  C8_11 
ROOT
HETATM    1  N1  UNL     1      28.779   2.282 -43.057  1.00  0.00    -0.191 NA
HETATM    2  C1  UNL     1      28.851   3.402 -43.377  1.00  0.00     0.101 C 
HETATM    3  C2  UNL     1      28.948   4.774 -43.789  1.00  0.00     0.060 A 
HETATM    4  C3  UNL     1      30.177   5.291 -44.148  1.00  0.00     0.028 A 
HETATM    5  C4  UNL     1      30.298   6.605 -44.547  1.00  0.00     0.050 A 
HETATM    6  C5  UNL     1      29.174   7.400 -44.585  1.00  0.00     0.100 A 
HETATM    7  N5  UNL     1      27.972   6.889 -44.234  1.00  0.00    -0.351 N 
ATOM      8  H5  UNL     1      27.146   7.487 -44.266  1.00  0.00     0.166 HD
HETATM    9  C11 UNL     1      27.844   5.599 -43.840  1.00  0.00     0.112 A 
ENDROOT
BRANCH   6  10
HETATM   10  N2  UNL     1      29.316   8.614 -44.959  1.00  0.00    -0.376 N 
ATOM     11  H2  UNL     1      29.329   8.786 -45.964  1.00  0.00     0.161 HD
BRANCH  10  12
HETATM   12  C6  UNL     1      29.456   9.751 -44.108  1.00  0.00     0.127 C 
BRANCH  12  13
HETATM   13  C7  UNL     1      28.135  10.325 -43.643  1.00  0.00     0.078 C 
BRANCH  13  14
HETATM   14  C8  UNL     1      27.387  10.721 -44.877  1.00  0.00     0.027 A 
HETATM   15  C9  UNL     1      26.191  10.159 -45.333  1.00  0.00     0.114 A 
HETATM   16  N3  UNL     1      25.821  10.771 -46.472  1.00  0.00    -0.360 N 
HETATM   17  C10 UNL     1      26.750  11.705 -46.747  1.00  0.00     0.180 A 
ATOM     18  H3  UNL     1      24.989  10.565 -47.026  1.00  0.00     0.166 HD
HETATM   19  N4  UNL     1      27.683  11.662 -45.781  1.00  0.00    -0.355 N 
ATOM     20  H4  UNL     1      28.505  12.264 -45.743  1.00  0.00     0.166 HD
ENDBRANCH  13  14
ENDBRANCH  12  13
ENDBRANCH  10  12
ENDBRANCH   6  10
TORSDOF 4
ENDMDL
