MODEL 1
REMARK VINA RESULT: -6.786070838      0.000      0.000
REMARK  5 active torsions:
REMARK  status: ('A' for Active; 'I' for Inactive)
REMARK    1  A    between atoms: N1_1  and  C1_5 
REMARK    2  A    between atoms: C1_5  and  C2_6 
REMARK    3  A    between atoms: C2_6  and  O1_7 
REMARK    4  A    between atoms: O1_7  and  C3_8 
REMARK    5  A    between atoms: C5_10  and  S1_11 
ROOT
HETATM    1  C3  UNL     1      28.393   7.541 -45.206  1.00  0.00     0.071 A 
HETATM    2  C4  UNL     1      27.684   6.840 -44.252  1.00  0.00     0.059 A 
HETATM    3  C5  UNL     1      28.352   5.885 -43.526  1.00  0.00     0.055 A 
HETATM    4  C6  UNL     1      29.693   5.622 -43.735  1.00  0.00     0.061 A 
HETATM    5  N4  UNL     1      30.545   4.757 -43.164  1.00  0.00    -0.364 N 
ATOM      6  H4  UNL     1      30.315   4.099 -42.420  1.00  0.00     0.165 HD
HETATM    7  C7  UNL     1      31.750   4.905 -43.739  1.00  0.00     0.089 A 
HETATM    8  C8  UNL     1      31.684   5.889 -44.705  1.00  0.00     0.031 A 
HETATM    9  C9  UNL     1      30.365   6.347 -44.702  1.00  0.00    -0.004 A 
HETATM   10  C10 UNL     1      29.730   7.314 -45.450  1.00  0.00     0.050 A 
ENDROOT
BRANCH   1  11
HETATM   11  O1  UNL     1      27.694   8.512 -45.937  1.00  0.00    -0.349 OA
BRANCH  11  12
HETATM   12  C2  UNL     1      27.801   9.849 -45.546  1.00  0.00     0.203 C 
BRANCH  12  13
HETATM   13  C1  UNL     1      26.405  10.380 -45.282  1.00  0.00     0.256 C 
BRANCH  13  14
HETATM   14  N1  UNL     1      25.678  10.637 -46.483  1.00  0.00    -0.077 N 
ATOM     15  H13 UNL     1      25.964  11.522 -46.901  1.00  0.00     0.274 HD
ATOM     16  H12 UNL     1      25.966  10.002 -47.228  1.00  0.00     0.274 HD
ATOM     17  H11 UNL     1      24.669  10.606 -46.345  1.00  0.00     0.274 HD
ENDBRANCH  13  14
ENDBRANCH  12  13
ENDBRANCH  11  12
ENDBRANCH   1  11
BRANCH   3  18
HETATM   18  S1  UNL     1      27.435   4.957 -42.270  1.00  0.00     0.034 SA
HETATM   19  N2  UNL     1      26.829   3.605 -41.515  1.00  0.00    -0.050 NA
HETATM   20  N3  UNL     1      27.202   4.675 -40.657  1.00  0.00    -0.050 NA
ENDBRANCH   3  18
TORSDOF 5
ENDMDL
MODEL 2
REMARK VINA RESULT: -6.764907663      1.992      2.135
REMARK  5 active torsions:
REMARK  status: ('A' for Active; 'I' for Inactive)
REMARK    1  A    between atoms: N1_1  and  C1_5 
REMARK    2  A    between atoms: C1_5  and  C2_6 
REMARK    3  A    between atoms: C2_6  and  O1_7 
REMARK    4  A    between atoms: O1_7  and  C3_8 
REMARK    5  A    between atoms: C5_10  and  S1_11 
ROOT
HETATM    1  C3  UNL     1      27.734   7.775 -43.645  1.00  0.00     0.071 A 
HETATM    2  C4  UNL     1      27.386   6.439 -43.646  1.00  0.00     0.059 A 
HETATM    3  C5  UNL     1      28.386   5.514 -43.808  1.00  0.00     0.055 A 
HETATM    4  C6  UNL     1      29.706   5.893 -43.968  1.00  0.00     0.061 A 
HETATM    5  N4  UNL     1      30.835   5.189 -44.140  1.00  0.00    -0.364 N 
ATOM      6  H4  UNL     1      30.902   4.172 -44.183  1.00  0.00     0.165 HD
HETATM    7  C7  UNL     1      31.862   6.050 -44.246  1.00  0.00     0.089 A 
HETATM    8  C8  UNL     1      31.392   7.344 -44.139  1.00  0.00     0.031 A 
HETATM    9  C9  UNL     1      30.010   7.242 -43.962  1.00  0.00    -0.004 A 
HETATM   10  C10 UNL     1      29.035   8.201 -43.801  1.00  0.00     0.050 A 
ENDROOT
BRANCH   1  11
HETATM   11  O1  UNL     1      26.699   8.706 -43.478  1.00  0.00    -0.349 OA
BRANCH  11  12
HETATM   12  C2  UNL     1      26.488   9.659 -44.478  1.00  0.00     0.203 C 
BRANCH  12  13
HETATM   13  C1  UNL     1      26.911  11.013 -43.941  1.00  0.00     0.256 C 
BRANCH  13  14
HETATM   14  N1  UNL     1      26.597  11.179 -42.559  1.00  0.00    -0.077 N 
ATOM     15  H13 UNL     1      26.869  12.106 -42.231  1.00  0.00     0.274 HD
ATOM     16  H12 UNL     1      25.588  11.243 -42.418  1.00  0.00     0.274 HD
ATOM     17  H11 UNL     1      27.003  10.450 -41.974  1.00  0.00     0.274 HD
ENDBRANCH  13  14
ENDBRANCH  12  13
ENDBRANCH  11  12
ENDBRANCH   1  11
BRANCH   3  18
HETATM   18  S1  UNL     1      27.945   3.758 -43.812  1.00  0.00     0.034 SA
HETATM   19  N2  UNL     1      27.558   2.285 -44.481  1.00  0.00    -0.050 NA
HETATM   20  N3  UNL     1      28.328   2.236 -43.287  1.00  0.00    -0.050 NA
ENDBRANCH   3  18
TORSDOF 5
ENDMDL
MODEL 3
REMARK VINA RESULT: -6.763518214      1.281      1.352
REMARK  5 active torsions:
REMARK  status: ('A' for Active; 'I' for Inactive)
REMARK    1  A    between atoms: N1_1  and  C1_5 
REMARK    2  A    between atoms: C1_5  and  C2_6 
REMARK    3  A    between atoms: C2_6  and  O1_7 
REMARK    4  A    between atoms: O1_7  and  C3_8 
REMARK    5  A    between atoms: C5_10  and  S1_11 
ROOT
HETATM    1  C3  UNL     1      28.065   8.124 -45.079  1.00  0.00     0.071 A 
HETATM    2  C4  UNL     1      27.485   7.138 -44.305  1.00  0.00     0.059 A 
HETATM    3  C5  UNL     1      28.284   6.116 -43.858  1.00  0.00     0.055 A 
HETATM    4  C6  UNL     1      29.631   6.061 -44.167  1.00  0.00     0.061 A 
HETATM    5  N4  UNL     1      30.595   5.183 -43.853  1.00  0.00    -0.364 N 
ATOM      6  H4  UNL     1      30.474   4.342 -43.288  1.00  0.00     0.165 HD
HETATM    7  C7  UNL     1      31.746   5.597 -44.410  1.00  0.00     0.089 A 
HETATM    8  C8  UNL     1      31.527   6.772 -45.100  1.00  0.00     0.031 A 
HETATM    9  C9  UNL     1      30.171   7.068 -44.944  1.00  0.00    -0.004 A 
HETATM   10  C10 UNL     1      29.403   8.111 -45.411  1.00  0.00     0.050 A 
ENDROOT
BRANCH   1  11
HETATM   11  O1  UNL     1      27.233   9.159 -45.525  1.00  0.00    -0.349 OA
BRANCH  11  12
HETATM   12  C2  UNL     1      26.362   9.758 -44.612  1.00  0.00     0.203 C 
BRANCH  12  13
HETATM   13  C1  UNL     1      27.097  10.895 -43.928  1.00  0.00     0.256 C 
BRANCH  13  14
HETATM   14  N1  UNL     1      26.579  11.182 -42.630  1.00  0.00    -0.077 N 
ATOM     15  H13 UNL     1      25.764  10.605 -42.426  1.00  0.00     0.274 HD
ATOM     16  H12 UNL     1      27.208  10.843 -41.902  1.00  0.00     0.274 HD
ATOM     17  H11 UNL     1      26.369  12.171 -42.501  1.00  0.00     0.274 HD
ENDBRANCH  13  14
ENDBRANCH  12  13
ENDBRANCH  11  12
ENDBRANCH   1  11
BRANCH   3  18
HETATM   18  S1  UNL     1      27.536   4.816 -42.844  1.00  0.00     0.034 SA
HETATM   19  N2  UNL     1      27.266   3.263 -42.313  1.00  0.00    -0.050 NA
HETATM   20  N3  UNL     1      27.207   4.274 -41.316  1.00  0.00    -0.050 NA
ENDBRANCH   3  18
TORSDOF 5
ENDMDL
MODEL 4
REMARK VINA RESULT: -6.444873928      1.934      2.256
REMARK  5 active torsions:
REMARK  status: ('A' for Active; 'I' for Inactive)
REMARK    1  A    between atoms: N1_1  and  C1_5 
REMARK    2  A    between atoms: C1_5  and  C2_6 
REMARK    3  A    between atoms: C2_6  and  O1_7 
REMARK    4  A    between atoms: O1_7  and  C3_8 
REMARK    5  A    between atoms: C5_10  and  S1_11 
ROOT
HETATM    1  C3  UNL     1      28.366   7.639 -44.624  1.00  0.00     0.071 A 
HETATM    2  C4  UNL     1      28.110   6.283 -44.642  1.00  0.00     0.059 A 
HETATM    3  C5  UNL     1      28.516   5.536 -43.565  1.00  0.00     0.055 A 
HETATM    4  C6  UNL     1      29.165   6.111 -42.488  1.00  0.00     0.061 A 
HETATM    5  N4  UNL     1      29.648   5.601 -41.345  1.00  0.00    -0.364 N 
ATOM      6  H4  UNL     1      29.608   4.620 -41.067  1.00  0.00     0.165 HD
HETATM    7  C7  UNL     1      30.192   6.599 -40.629  1.00  0.00     0.089 A 
HETATM    8  C8  UNL     1      30.060   7.787 -41.319  1.00  0.00     0.031 A 
HETATM    9  C9  UNL     1      29.402   7.473 -42.511  1.00  0.00    -0.004 A 
HETATM   10  C10 UNL     1      29.009   8.256 -43.573  1.00  0.00     0.050 A 
ENDROOT
BRANCH   1  11
HETATM   11  O1  UNL     1      27.943   8.384 -45.733  1.00  0.00    -0.349 OA
BRANCH  11  12
HETATM   12  C2  UNL     1      27.788   9.766 -45.591  1.00  0.00     0.203 C 
BRANCH  12  13
HETATM   13  C1  UNL     1      26.320  10.058 -45.348  1.00  0.00     0.256 C 
BRANCH  13  14
HETATM   14  N1  UNL     1      25.687  10.664 -46.474  1.00  0.00    -0.077 N 
ATOM     15  H13 UNL     1      25.621  10.009 -47.253  1.00  0.00     0.274 HD
ATOM     16  H12 UNL     1      24.692  10.812 -46.299  1.00  0.00     0.274 HD
ATOM     17  H11 UNL     1      26.141  11.530 -46.761  1.00  0.00     0.274 HD
ENDBRANCH  13  14
ENDBRANCH  12  13
ENDBRANCH  11  12
ENDBRANCH   1  11
BRANCH   3  18
HETATM   18  S1  UNL     1      28.187   3.756 -43.575  1.00  0.00     0.034 SA
HETATM   19  N2  UNL     1      27.767   2.287 -44.233  1.00  0.00    -0.050 NA
HETATM   20  N3  UNL     1      28.752   2.244 -43.210  1.00  0.00    -0.050 NA
ENDBRANCH   3  18
TORSDOF 5
ENDMDL
MODEL 5
REMARK VINA RESULT: -6.371383892      2.824      5.052
REMARK  5 active torsions:
REMARK  status: ('A' for Active; 'I' for Inactive)
REMARK    1  A    between atoms: N1_1  and  C1_5 
REMARK    2  A    between atoms: C1_5  and  C2_6 
REMARK    3  A    between atoms: C2_6  and  O1_7 
REMARK    4  A    between atoms: O1_7  and  C3_8 
REMARK    5  A    between atoms: C5_10  and  S1_11 
ROOT
HETATM    1  C3  UNL     1      28.528   5.226 -44.253  1.00  0.00     0.071 A 
HETATM    2  C4  UNL     1      27.659   6.288 -44.108  1.00  0.00     0.059 A 
HETATM    3  C5  UNL     1      28.192   7.551 -44.032  1.00  0.00     0.055 A 
HETATM    4  C6  UNL     1      29.556   7.766 -44.096  1.00  0.00     0.061 A 
HETATM    5  N4  UNL     1      30.298   8.882 -44.045  1.00  0.00    -0.364 N 
ATOM      6  H4  UNL     1      29.940   9.832 -43.942  1.00  0.00     0.165 HD
HETATM    7  C7  UNL     1      31.593   8.538 -44.152  1.00  0.00     0.089 A 
HETATM    8  C8  UNL     1      31.697   7.167 -44.278  1.00  0.00     0.031 A 
HETATM    9  C9  UNL     1      30.391   6.674 -44.240  1.00  0.00    -0.004 A 
HETATM   10  C10 UNL     1      29.894   5.392 -44.322  1.00  0.00     0.050 A 
ENDROOT
BRANCH   1  11
HETATM   11  O1  UNL     1      27.965   3.944 -44.329  1.00  0.00    -0.349 OA
BRANCH  11  12
HETATM   12  C2  UNL     1      27.586   3.308 -43.144  1.00  0.00     0.203 C 
BRANCH  12  13
HETATM   13  C1  UNL     1      27.432   1.827 -43.428  1.00  0.00     0.256 C 
BRANCH  13  14
HETATM   14  N1  UNL     1      26.102   1.475 -43.807  1.00  0.00    -0.077 N 
ATOM     15  H13 UNL     1      26.087   1.048 -44.734  1.00  0.00     0.274 HD
ATOM     16  H12 UNL     1      25.760   0.687 -43.257  1.00  0.00     0.274 HD
ATOM     17  H11 UNL     1      25.458   2.263 -43.757  1.00  0.00     0.274 HD
ENDBRANCH  13  14
ENDBRANCH  12  13
ENDBRANCH  11  12
ENDBRANCH   1  11
BRANCH   3  18
HETATM   18  S1  UNL     1      27.064   8.954 -43.841  1.00  0.00     0.034 SA
HETATM   19  N2  UNL     1      26.554  10.433 -43.277  1.00  0.00    -0.050 NA
HETATM   20  N3  UNL     1      26.151  10.107 -44.601  1.00  0.00    -0.050 NA
ENDBRANCH   3  18
TORSDOF 5
ENDMDL
