MODEL 1
REMARK VINA RESULT: -6.197638513      0.000      0.000
REMARK  3 active torsions:
REMARK  status: ('A' for Active; 'I' for Inactive)
REMARK    1  A    between atoms: S1_2  and  C2_3 
REMARK    2  A    between atoms: C5_6  and  C6_7 
REMARK    3  A    between atoms: C6_7  and  N1_8 
ROOT
HETATM    1  C2  UNL     1      28.160   5.927 -43.997  1.00  0.00     0.024 A 
HETATM    2  C3  UNL     1      27.079   6.399 -43.289  1.00  0.00     0.021 A 
HETATM    3  C4  UNL     1      26.540   7.658 -43.545  1.00  0.00     0.010 A 
HETATM    4  C5  UNL     1      27.077   8.477 -44.522  1.00  0.00    -0.036 A 
HETATM    5  C9  UNL     1      28.163   7.973 -45.214  1.00  0.00     0.036 A 
HETATM    6  C10 UNL     1      28.699   6.741 -44.972  1.00  0.00     0.063 A 
HETATM    7  N4  UNL     1      29.825   6.273 -45.722  1.00  0.00    -0.101 NA
ENDROOT
BRANCH   4   8
HETATM    8  C6  UNL     1      26.483   9.787 -44.758  1.00  0.00     0.188 C 
BRANCH   8   9
HETATM    9  N1  UNL     1      27.374  10.892 -44.587  1.00  0.00    -0.283 N 
HETATM   10  C7  UNL     1      27.959  11.185 -43.409  1.00  0.00     0.201 A 
HETATM   11  N2  UNL     1      28.725  12.273 -43.601  1.00  0.00    -0.346 N 
HETATM   12  C8  UNL     1      28.630  12.668 -44.886  1.00  0.00     0.198 A 
ATOM     13  H2  UNL     1      29.291  12.728 -42.885  1.00  0.00     0.167 HD
HETATM   14  N3  UNL     1      27.786  11.790 -45.468  1.00  0.00    -0.293 N 
ATOM     15  H3  UNL     1      27.505  11.814 -46.448  1.00  0.00     0.188 HD
ENDBRANCH   8   9
ENDBRANCH   4   8
BRANCH   1  16
HETATM   16  S1  UNL     1      28.894   4.332 -43.720  1.00  0.00    -0.133 SA
HETATM   17  C1  UNL     1      27.610   3.058 -43.780  1.00  0.00     0.095 C 
ENDBRANCH   1  16
TORSDOF 3
ENDMDL
MODEL 2
REMARK VINA RESULT: -6.094952334      1.462      1.937
REMARK  3 active torsions:
REMARK  status: ('A' for Active; 'I' for Inactive)
REMARK    1  A    between atoms: S1_2  and  C2_3 
REMARK    2  A    between atoms: C5_6  and  C6_7 
REMARK    3  A    between atoms: C6_7  and  N1_8 
ROOT
HETATM    1  C2  UNL     1      28.182   5.873 -44.062  1.00  0.00     0.024 A 
HETATM    2  C3  UNL     1      28.691   6.727 -45.013  1.00  0.00     0.021 A 
HETATM    3  C4  UNL     1      28.141   7.989 -45.223  1.00  0.00     0.010 A 
HETATM    4  C5  UNL     1      27.060   8.426 -44.479  1.00  0.00    -0.036 A 
HETATM    5  C9  UNL     1      26.571   7.545 -43.531  1.00  0.00     0.036 A 
HETATM    6  C10 UNL     1      27.103   6.305 -43.318  1.00  0.00     0.063 A 
HETATM    7  N4  UNL     1      26.554   5.436 -42.322  1.00  0.00    -0.101 NA
ENDROOT
BRANCH   4   8
HETATM    8  C6  UNL     1      26.513   9.754 -44.729  1.00  0.00     0.188 C 
BRANCH   8   9
HETATM    9  N1  UNL     1      27.407  10.836 -44.454  1.00  0.00    -0.283 N 
HETATM   10  C7  UNL     1      27.973  11.028 -43.248  1.00  0.00     0.201 A 
HETATM   11  N2  UNL     1      28.749  12.123 -43.338  1.00  0.00    -0.346 N 
HETATM   12  C8  UNL     1      28.677  12.622 -44.588  1.00  0.00     0.198 A 
ATOM     13  H2  UNL     1      29.305  12.515 -42.578  1.00  0.00     0.167 HD
HETATM   14  N3  UNL     1      27.838  11.799 -45.253  1.00  0.00    -0.293 N 
ATOM     15  H3  UNL     1      27.573  11.905 -46.232  1.00  0.00     0.188 HD
ENDBRANCH   8   9
ENDBRANCH   4   8
BRANCH   1  16
HETATM   16  S1  UNL     1      28.838   4.252 -43.746  1.00  0.00    -0.133 SA
HETATM   17  C1  UNL     1      30.562   4.392 -43.212  1.00  0.00     0.095 C 
ENDBRANCH   1  16
TORSDOF 3
ENDMDL
MODEL 3
REMARK VINA RESULT: -6.058338697      2.006      2.617
REMARK  3 active torsions:
REMARK  status: ('A' for Active; 'I' for Inactive)
REMARK    1  A    between atoms: S1_2  and  C2_3 
REMARK    2  A    between atoms: C5_6  and  C6_7 
REMARK    3  A    between atoms: C6_7  and  N1_8 
ROOT
HETATM    1  C2  UNL     1      30.599   6.029 -44.181  1.00  0.00     0.024 A 
HETATM    2  C3  UNL     1      31.372   7.155 -44.349  1.00  0.00     0.021 A 
HETATM    3  C4  UNL     1      30.862   8.299 -44.957  1.00  0.00     0.010 A 
HETATM    4  C5  UNL     1      29.557   8.340 -45.414  1.00  0.00    -0.036 A 
HETATM    5  C9  UNL     1      28.807   7.193 -45.231  1.00  0.00     0.036 A 
HETATM    6  C10 UNL     1      29.297   6.066 -44.636  1.00  0.00     0.063 A 
HETATM    7  N4  UNL     1      28.472   4.907 -44.474  1.00  0.00    -0.101 NA
ENDROOT
BRANCH   4   8
HETATM    8  C6  UNL     1      29.062   9.558 -46.046  1.00  0.00     0.188 C 
BRANCH   8   9
HETATM    9  N1  UNL     1      28.906  10.673 -45.165  1.00  0.00    -0.283 N 
HETATM   10  C7  UNL     1      28.751  10.538 -43.835  1.00  0.00     0.201 A 
HETATM   11  N2  UNL     1      28.633  11.774 -43.317  1.00  0.00    -0.346 N 
HETATM   12  C8  UNL     1      28.713  12.685 -44.306  1.00  0.00     0.198 A 
ATOM     13  H2  UNL     1      28.503  11.988 -42.328  1.00  0.00     0.167 HD
HETATM   14  N3  UNL     1      28.883  11.968 -45.438  1.00  0.00    -0.293 N 
ATOM     15  H3  UNL     1      28.980  12.368 -46.372  1.00  0.00     0.188 HD
ENDBRANCH   8   9
ENDBRANCH   4   8
BRANCH   1  16
HETATM   16  S1  UNL     1      31.189   4.538 -43.413  1.00  0.00    -0.133 SA
HETATM   17  C1  UNL     1      31.358   4.804 -41.631  1.00  0.00     0.095 C 
ENDBRANCH   1  16
TORSDOF 3
ENDMDL
MODEL 4
REMARK VINA RESULT: -6.050982879      2.910      5.996
REMARK  3 active torsions:
REMARK  status: ('A' for Active; 'I' for Inactive)
REMARK    1  A    between atoms: S1_2  and  C2_3 
REMARK    2  A    between atoms: C5_6  and  C6_7 
REMARK    3  A    between atoms: C6_7  and  N1_8 
ROOT
HETATM    1  C2  UNL     1      28.117   9.382 -45.547  1.00  0.00     0.024 A 
HETATM    2  C3  UNL     1      29.175   8.708 -46.113  1.00  0.00     0.021 A 
HETATM    3  C4  UNL     1      29.460   7.389 -45.771  1.00  0.00     0.010 A 
HETATM    4  C5  UNL     1      28.687   6.710 -44.847  1.00  0.00    -0.036 A 
HETATM    5  C9  UNL     1      27.631   7.414 -44.296  1.00  0.00     0.036 A 
HETATM    6  C10 UNL     1      27.343   8.708 -44.625  1.00  0.00     0.063 A 
HETATM    7  N4  UNL     1      26.236   9.386 -44.020  1.00  0.00    -0.101 NA
ENDROOT
BRANCH   4   8
HETATM    8  C6  UNL     1      29.019   5.329 -44.517  1.00  0.00     0.188 C 
BRANCH   8   9
HETATM    9  N1  UNL     1      30.014   5.175 -43.502  1.00  0.00    -0.283 N 
HETATM   10  C7  UNL     1      31.291   4.845 -43.774  1.00  0.00     0.201 A 
HETATM   11  N2  UNL     1      31.949   4.786 -42.602  1.00  0.00    -0.346 N 
HETATM   12  C8  UNL     1      31.100   5.077 -41.596  1.00  0.00     0.198 A 
ATOM     13  H2  UNL     1      32.937   4.557 -42.492  1.00  0.00     0.167 HD
HETATM   14  N3  UNL     1      29.911   5.314 -42.190  1.00  0.00    -0.293 N 
ATOM     15  H3  UNL     1      29.054   5.564 -41.696  1.00  0.00     0.188 HD
ENDBRANCH   8   9
ENDBRANCH   4   8
BRANCH   1  16
HETATM   16  S1  UNL     1      27.700  11.064 -45.940  1.00  0.00    -0.133 SA
HETATM   17  C1  UNL     1      28.661  12.185 -44.892  1.00  0.00     0.095 C 
ENDBRANCH   1  16
TORSDOF 3
ENDMDL
MODEL 5
REMARK VINA RESULT: -5.964349419      1.632      1.969
REMARK  3 active torsions:
REMARK  status: ('A' for Active; 'I' for Inactive)
REMARK    1  A    between atoms: S1_2  and  C2_3 
REMARK    2  A    between atoms: C5_6  and  C6_7 
REMARK    3  A    between atoms: C6_7  and  N1_8 
ROOT
HETATM    1  C2  UNL     1      29.669   5.686 -43.961  1.00  0.00     0.024 A 
HETATM    2  C3  UNL     1      28.474   6.160 -44.453  1.00  0.00     0.021 A 
HETATM    3  C4  UNL     1      28.393   7.395 -45.090  1.00  0.00     0.010 A 
HETATM    4  C5  UNL     1      29.514   8.189 -45.249  1.00  0.00    -0.036 A 
HETATM    5  C9  UNL     1      30.699   7.685 -44.744  1.00  0.00     0.036 A 
HETATM    6  C10 UNL     1      30.790   6.475 -44.118  1.00  0.00     0.063 A 
HETATM    7  N4  UNL     1      32.045   6.005 -43.615  1.00  0.00    -0.101 NA
ENDROOT
BRANCH   4   8
HETATM    8  C6  UNL     1      29.386   9.477 -45.922  1.00  0.00     0.188 C 
BRANCH   8   9
HETATM    9  N1  UNL     1      29.067  10.575 -45.065  1.00  0.00    -0.283 N 
HETATM   10  C7  UNL     1      29.009  10.465 -43.724  1.00  0.00     0.201 A 
HETATM   11  N2  UNL     1      28.687  11.675 -43.235  1.00  0.00    -0.346 N 
HETATM   12  C8  UNL     1      28.541  12.547 -44.253  1.00  0.00     0.198 A 
ATOM     13  H2  UNL     1      28.570  11.899 -42.246  1.00  0.00     0.167 HD
HETATM   14  N3  UNL     1      28.785  11.832 -45.372  1.00  0.00    -0.293 N 
ATOM     15  H3  UNL     1      28.755  12.207 -46.320  1.00  0.00     0.188 HD
ENDBRANCH   8   9
ENDBRANCH   4   8
BRANCH   1  16
HETATM   16  S1  UNL     1      29.841   4.119 -43.139  1.00  0.00    -0.133 SA
HETATM   17  C1  UNL     1      28.345   3.134 -43.400  1.00  0.00     0.095 C 
ENDBRANCH   1  16
TORSDOF 3
ENDMDL
