MODEL 1
REMARK VINA RESULT: -7.308736123      0.000      0.000
REMARK  4 active torsions:
REMARK  status: ('A' for Active; 'I' for Inactive)
REMARK    1  A    between atoms: C2_5  and  N3_6 
REMARK    2  A    between atoms: N3_6  and  C3_8 
REMARK    3  A    between atoms: C3_8  and  C4_9 
REMARK    4  A    between atoms: C4_9  and  C5_10 
ROOT
HETATM    1  N3  UNL     1      29.533   8.695 -46.112  1.00  0.00    -0.376 N 
ATOM      2  H3  UNL     1      29.667   8.269 -47.029  1.00  0.00     0.161 HD
ENDROOT
BRANCH   1   3
HETATM    3  C2  UNL     1      28.479   9.413 -45.932  1.00  0.00     0.104 A 
HETATM    4  N2  UNL     1      28.346  10.602 -46.554  1.00  0.00    -0.317 N 
HETATM    5  C1  UNL     1      27.269  11.385 -46.398  1.00  0.00     0.193 A 
ATOM      6  H2  UNL     1      29.096  10.920 -47.169  1.00  0.00     0.170 HD
HETATM    7  N1  UNL     1      27.126  12.643 -47.055  1.00  0.00    -0.063 NA
HETATM    8  N4  UNL     1      26.249  11.013 -45.595  1.00  0.00    -0.340 N 
HETATM    9  C12 UNL     1      26.314   9.828 -44.936  1.00  0.00     0.094 A 
ATOM     10  H4  UNL     1      25.435  11.617 -45.485  1.00  0.00     0.167 HD
HETATM   11  C11 UNL     1      27.433   9.048 -45.118  1.00  0.00     0.065 A 
ENDBRANCH   1   3
BRANCH   1  12
HETATM   12  C3  UNL     1      30.528   8.454 -45.115  1.00  0.00     0.126 C 
BRANCH  12  13
HETATM   13  C4  UNL     1      31.225   7.140 -45.490  1.00  0.00     0.058 C 
BRANCH  13  14
HETATM   14  C5  UNL     1      30.733   6.014 -44.689  1.00  0.00    -0.057 A 
HETATM   15  C6  UNL     1      29.385   5.715 -44.677  1.00  0.00     0.007 A 
HETATM   16  C7  UNL     1      28.972   4.650 -43.910  1.00  0.00     0.001 A 
HETATM   17  C8  UNL     1      29.889   3.905 -43.176  1.00  0.00     0.000 A 
HETATM   18  C9  UNL     1      31.235   4.212 -43.195  1.00  0.00     0.001 A 
HETATM   19  C10 UNL     1      31.656   5.279 -43.961  1.00  0.00     0.007 A 
ENDBRANCH  13  14
ENDBRANCH  12  13
ENDBRANCH   1  12
TORSDOF 4
ENDMDL
MODEL 2
REMARK VINA RESULT: -7.273879049      5.381      7.934
REMARK  4 active torsions:
REMARK  status: ('A' for Active; 'I' for Inactive)
REMARK    1  A    between atoms: C2_5  and  N3_6 
REMARK    2  A    between atoms: N3_6  and  C3_8 
REMARK    3  A    between atoms: C3_8  and  C4_9 
REMARK    4  A    between atoms: C4_9  and  C5_10 
ROOT
HETATM    1  N3  UNL     1      27.050   2.741 -43.922  1.00  0.00    -0.376 N 
ATOM      2  H3  UNL     1      26.312   3.377 -44.226  1.00  0.00     0.161 HD
ENDROOT
BRANCH   1   3
HETATM    3  C2  UNL     1      26.780   1.482 -43.888  1.00  0.00     0.104 A 
HETATM    4  N2  UNL     1      25.675   1.001 -44.494  1.00  0.00    -0.317 N 
HETATM    5  C1  UNL     1      25.352  -0.299 -44.486  1.00  0.00     0.193 A 
ATOM      6  H2  UNL     1      25.060   1.654 -44.980  1.00  0.00     0.170 HD
HETATM    7  N1  UNL     1      24.184  -0.811 -45.126  1.00  0.00    -0.063 NA
HETATM    8  N4  UNL     1      26.132  -1.206 -43.858  1.00  0.00    -0.340 N 
HETATM    9  C12 UNL     1      27.260  -0.795 -43.226  1.00  0.00     0.094 A 
ATOM     10  H4  UNL     1      25.874  -2.193 -43.859  1.00  0.00     0.167 HD
HETATM   11  C11 UNL     1      27.563   0.547 -43.253  1.00  0.00     0.065 A 
ENDBRANCH   1   3
BRANCH   1  12
HETATM   12  C3  UNL     1      28.311   3.308 -43.564  1.00  0.00     0.126 C 
BRANCH  12  13
HETATM   13  C4  UNL     1      28.169   4.829 -43.697  1.00  0.00     0.058 C 
BRANCH  13  14
HETATM   14  C5  UNL     1      29.372   5.440 -44.274  1.00  0.00    -0.057 A 
HETATM   15  C6  UNL     1      30.612   5.164 -43.732  1.00  0.00     0.007 A 
HETATM   16  C7  UNL     1      31.709   5.761 -44.309  1.00  0.00     0.001 A 
HETATM   17  C8  UNL     1      31.565   6.613 -45.399  1.00  0.00     0.000 A 
HETATM   18  C9  UNL     1      30.321   6.882 -45.933  1.00  0.00     0.001 A 
HETATM   19  C10 UNL     1      29.216   6.288 -45.361  1.00  0.00     0.007 A 
ENDBRANCH  13  14
ENDBRANCH  12  13
ENDBRANCH   1  12
TORSDOF 4
ENDMDL
MODEL 3
REMARK VINA RESULT: -7.265951550      0.498      1.304
REMARK  4 active torsions:
REMARK  status: ('A' for Active; 'I' for Inactive)
REMARK    1  A    between atoms: C2_5  and  N3_6 
REMARK    2  A    between atoms: N3_6  and  C3_8 
REMARK    3  A    between atoms: C3_8  and  C4_9 
REMARK    4  A    between atoms: C4_9  and  C5_10 
ROOT
HETATM    1  N3  UNL     1      29.523   8.849 -45.812  1.00  0.00    -0.376 N 
ATOM      2  H3  UNL     1      30.337   9.277 -45.371  1.00  0.00     0.161 HD
ENDROOT
BRANCH   1   3
HETATM    3  C2  UNL     1      28.421   9.517 -45.813  1.00  0.00     0.104 A 
HETATM    4  N2  UNL     1      28.319  10.668 -46.509  1.00  0.00    -0.317 N 
HETATM    5  C1  UNL     1      27.196  11.398 -46.541  1.00  0.00     0.193 A 
ATOM      6  H2  UNL     1      29.130  10.998 -47.032  1.00  0.00     0.170 HD
HETATM    7  N1  UNL     1      27.084  12.616 -47.275  1.00  0.00    -0.063 NA
HETATM    8  N4  UNL     1      26.093  11.008 -45.865  1.00  0.00    -0.340 N 
HETATM    9  C12 UNL     1      26.122   9.859 -45.143  1.00  0.00     0.094 A 
ATOM     10  H4  UNL     1      25.244  11.572 -45.898  1.00  0.00     0.167 HD
HETATM   11  C11 UNL     1      27.291   9.133 -45.132  1.00  0.00     0.065 A 
ENDBRANCH   1   3
BRANCH   1  12
HETATM   12  C3  UNL     1      29.682   7.551 -46.386  1.00  0.00     0.126 C 
BRANCH  12  13
HETATM   13  C4  UNL     1      30.948   6.943 -45.769  1.00  0.00     0.058 C 
BRANCH  13  14
HETATM   14  C5  UNL     1      30.629   5.898 -44.789  1.00  0.00    -0.057 A 
HETATM   15  C6  UNL     1      31.639   5.320 -44.046  1.00  0.00     0.007 A 
HETATM   16  C7  UNL     1      31.289   4.345 -43.141  1.00  0.00     0.001 A 
HETATM   17  C8  UNL     1      29.961   3.961 -42.987  1.00  0.00     0.000 A 
HETATM   18  C9  UNL     1      28.959   4.546 -43.735  1.00  0.00     0.001 A 
HETATM   19  C10 UNL     1      29.301   5.524 -44.644  1.00  0.00     0.007 A 
ENDBRANCH  13  14
ENDBRANCH  12  13
ENDBRANCH   1  12
TORSDOF 4
ENDMDL
MODEL 4
REMARK VINA RESULT: -7.201977846      4.155      5.850
REMARK  4 active torsions:
REMARK  status: ('A' for Active; 'I' for Inactive)
REMARK    1  A    between atoms: C2_5  and  N3_6 
REMARK    2  A    between atoms: N3_6  and  C3_8 
REMARK    3  A    between atoms: C3_8  and  C4_9 
REMARK    4  A    between atoms: C4_9  and  C5_10 
ROOT
HETATM    1  N3  UNL     1      30.945   4.367 -42.775  1.00  0.00    -0.376 N 
ATOM      2  H3  UNL     1      31.492   3.530 -42.568  1.00  0.00     0.161 HD
ENDROOT
BRANCH   1   3
HETATM    3  C2  UNL     1      29.666   4.242 -42.860  1.00  0.00     0.104 A 
HETATM    4  N2  UNL     1      29.122   3.274 -43.627  1.00  0.00    -0.317 N 
HETATM    5  C1  UNL     1      27.798   3.105 -43.747  1.00  0.00     0.193 A 
ATOM      6  H2  UNL     1      29.743   2.645 -44.136  1.00  0.00     0.170 HD
HETATM    7  N1  UNL     1      27.220   2.083 -44.558  1.00  0.00    -0.063 NA
HETATM    8  N4  UNL     1      26.931   3.910 -43.096  1.00  0.00    -0.340 N 
HETATM    9  C12 UNL     1      27.407   4.905 -42.306  1.00  0.00     0.094 A 
ATOM     10  H4  UNL     1      25.926   3.770 -43.197  1.00  0.00     0.167 HD
HETATM   11  C11 UNL     1      28.771   5.052 -42.203  1.00  0.00     0.065 A 
ENDBRANCH   1   3
BRANCH   1  12
HETATM   12  C3  UNL     1      31.651   5.596 -42.950  1.00  0.00     0.126 C 
BRANCH  12  13
HETATM   13  C4  UNL     1      31.809   5.807 -44.461  1.00  0.00     0.058 C 
BRANCH  13  14
HETATM   14  C5  UNL     1      30.938   6.880 -44.955  1.00  0.00    -0.057 A 
HETATM   15  C6  UNL     1      30.053   6.629 -45.984  1.00  0.00     0.007 A 
HETATM   16  C7  UNL     1      29.258   7.668 -46.412  1.00  0.00     0.001 A 
HETATM   17  C8  UNL     1      29.352   8.925 -45.823  1.00  0.00     0.000 A 
HETATM   18  C9  UNL     1      30.241   9.165 -44.794  1.00  0.00     0.001 A 
HETATM   19  C10 UNL     1      31.041   8.129 -44.360  1.00  0.00     0.007 A 
ENDBRANCH  13  14
ENDBRANCH  12  13
ENDBRANCH   1  12
TORSDOF 4
ENDMDL
MODEL 5
REMARK VINA RESULT: -7.172555281      5.738      8.264
REMARK  4 active torsions:
REMARK  status: ('A' for Active; 'I' for Inactive)
REMARK    1  A    between atoms: C2_5  and  N3_6 
REMARK    2  A    between atoms: N3_6  and  C3_8 
REMARK    3  A    between atoms: C3_8  and  C4_9 
REMARK    4  A    between atoms: C4_9  and  C5_10 
ROOT
HETATM    1  N3  UNL     1      26.483   1.854 -43.774  1.00  0.00    -0.376 N 
ATOM      2  H3  UNL     1      25.630   2.388 -43.605  1.00  0.00     0.161 HD
ENDROOT
BRANCH   1   3
HETATM    3  C2  UNL     1      26.372   0.721 -44.375  1.00  0.00     0.104 A 
HETATM    4  N2  UNL     1      27.465   0.083 -44.843  1.00  0.00    -0.317 N 
HETATM    5  C1  UNL     1      27.401  -1.096 -45.475  1.00  0.00     0.193 A 
ATOM      6  H2  UNL     1      28.379   0.517 -44.710  1.00  0.00     0.170 HD
HETATM    7  N1  UNL     1      28.555  -1.772 -45.970  1.00  0.00    -0.063 NA
HETATM    8  N4  UNL     1      26.217  -1.714 -45.678  1.00  0.00    -0.340 N 
HETATM    9  C12 UNL     1      25.074  -1.132 -45.235  1.00  0.00     0.094 A 
ATOM     10  H4  UNL     1      26.182  -2.612 -46.160  1.00  0.00     0.167 HD
HETATM   11  C11 UNL     1      25.175   0.080 -44.589  1.00  0.00     0.065 A 
ENDBRANCH   1   3
BRANCH   1  12
HETATM   12  C3  UNL     1      27.718   2.415 -43.327  1.00  0.00     0.126 C 
BRANCH  12  13
HETATM   13  C4  UNL     1      27.624   3.931 -43.546  1.00  0.00     0.058 C 
BRANCH  13  14
HETATM   14  C5  UNL     1      28.939   4.526 -43.811  1.00  0.00    -0.057 A 
HETATM   15  C6  UNL     1      29.052   5.583 -44.692  1.00  0.00     0.007 A 
HETATM   16  C7  UNL     1      30.306   6.106 -44.907  1.00  0.00     0.001 A 
HETATM   17  C8  UNL     1      31.417   5.580 -44.255  1.00  0.00     0.000 A 
HETATM   18  C9  UNL     1      31.293   4.523 -43.377  1.00  0.00     0.001 A 
HETATM   19  C10 UNL     1      30.040   3.993 -43.156  1.00  0.00     0.007 A 
ENDBRANCH  13  14
ENDBRANCH  12  13
ENDBRANCH   1  12
TORSDOF 4
ENDMDL
