MODEL 1
REMARK VINA RESULT: -5.954779237      0.000      0.000
REMARK  4 active torsions:
REMARK  status: ('A' for Active; 'I' for Inactive)
REMARK    1  A    between atoms: N1_2  and  C3_4 
REMARK    2  A    between atoms: C3_4  and  C4_5 
REMARK    3  A    between atoms: C4_5  and  N2_6 
REMARK    4  A    between atoms: N2_6  and  C5_8 
ROOT
HETATM    1  C5  UNL     1      28.332   7.882 -45.498  1.00  0.00     0.131 A 
HETATM    2  N3  UNL     1      27.792   7.109 -44.553  1.00  0.00    -0.337 N 
ATOM      3  H3  UNL     1      28.128   6.149 -44.479  1.00  0.00     0.168 HD
HETATM    4  C6  UNL     1      26.832   7.503 -43.690  1.00  0.00     0.182 A 
HETATM    5  N4  UNL     1      26.384   8.764 -43.782  1.00  0.00    -0.350 N 
ATOM      6  H4  UNL     1      25.659   9.080 -43.138  1.00  0.00     0.166 HD
HETATM    7  C7  UNL     1      26.867   9.628 -44.705  1.00  0.00     0.065 A 
HETATM    8  C8  UNL     1      26.553  10.951 -44.973  1.00  0.00     0.049 A 
HETATM    9  C9  UNL     1      27.374  11.293 -46.024  1.00  0.00     0.091 A 
HETATM   10  N5  UNL     1      28.137  10.236 -46.369  1.00  0.00    -0.361 N 
ATOM     11  H5  UNL     1      28.827  10.230 -47.120  1.00  0.00     0.165 HD
HETATM   12  C10 UNL     1      27.851   9.195 -45.578  1.00  0.00     0.103 A 
ENDROOT
BRANCH   1  13
HETATM   13  N2  UNL     1      29.228   7.568 -46.331  1.00  0.00    -0.373 N 
ATOM     14  H2  UNL     1      29.143   7.979 -47.261  1.00  0.00     0.161 HD
BRANCH  13  15
HETATM   15  C4  UNL     1      30.359   6.693 -46.120  1.00  0.00     0.151 C 
BRANCH  15  16
HETATM   16  C3  UNL     1      31.318   7.426 -45.226  1.00  0.00     0.290 C 
BRANCH  16  17
HETATM   17  N1  UNL     1      31.558   6.788 -43.985  1.00  0.00     0.081 N 
HETATM   18  C1  UNL     1      30.832   7.401 -42.925  1.00  0.00     0.309 C 
HETATM   19  C2  UNL     1      31.563   5.364 -44.007  1.00  0.00     0.309 C 
ENDBRANCH  16  17
ENDBRANCH  15  16
ENDBRANCH  13  15
ENDBRANCH   1  13
TORSDOF 4
ENDMDL
MODEL 2
REMARK VINA RESULT: -5.840964604      6.420      8.533
REMARK  4 active torsions:
REMARK  status: ('A' for Active; 'I' for Inactive)
REMARK    1  A    between atoms: N1_2  and  C3_4 
REMARK    2  A    between atoms: C3_4  and  C4_5 
REMARK    3  A    between atoms: C4_5  and  N2_6 
REMARK    4  A    between atoms: N2_6  and  C5_8 
ROOT
HETATM    1  C5  UNL     1      26.484   0.964 -43.822  1.00  0.00     0.131 A 
HETATM    2  N3  UNL     1      25.366   0.735 -44.514  1.00  0.00    -0.337 N 
ATOM      3  H3  UNL     1      24.759   1.532 -44.709  1.00  0.00     0.168 HD
HETATM    4  C6  UNL     1      24.977  -0.473 -44.974  1.00  0.00     0.182 A 
HETATM    5  N4  UNL     1      25.769  -1.525 -44.720  1.00  0.00    -0.350 N 
ATOM      6  H4  UNL     1      25.493  -2.446 -45.060  1.00  0.00     0.166 HD
HETATM    7  C7  UNL     1      26.925  -1.400 -44.027  1.00  0.00     0.065 A 
HETATM    8  C8  UNL     1      27.878  -2.336 -43.658  1.00  0.00     0.049 A 
HETATM    9  C9  UNL     1      28.824  -1.611 -42.969  1.00  0.00     0.091 A 
HETATM   10  N5  UNL     1      28.460  -0.312 -42.926  1.00  0.00    -0.361 N 
ATOM     11  H5  UNL     1      28.991   0.431 -42.473  1.00  0.00     0.165 HD
HETATM   12  C10 UNL     1      27.298  -0.147 -43.568  1.00  0.00     0.103 A 
ENDROOT
BRANCH   1  13
HETATM   13  N2  UNL     1      26.896   2.068 -43.366  1.00  0.00    -0.373 N 
ATOM     14  H2  UNL     1      26.643   2.281 -42.402  1.00  0.00     0.161 HD
BRANCH  13  15
HETATM   15  C4  UNL     1      27.686   3.064 -44.056  1.00  0.00     0.151 C 
BRANCH  15  16
HETATM   16  C3  UNL     1      28.879   3.352 -43.191  1.00  0.00     0.290 C 
BRANCH  16  17
HETATM   17  N1  UNL     1      29.495   4.601 -43.450  1.00  0.00     0.081 N 
HETATM   18  C1  UNL     1      30.916   4.510 -43.403  1.00  0.00     0.309 C 
HETATM   19  C2  UNL     1      28.946   5.357 -44.524  1.00  0.00     0.309 C 
ENDBRANCH  16  17
ENDBRANCH  15  16
ENDBRANCH  13  15
ENDBRANCH   1  13
TORSDOF 4
ENDMDL
MODEL 3
REMARK VINA RESULT: -5.814479232      2.290      3.503
REMARK  4 active torsions:
REMARK  status: ('A' for Active; 'I' for Inactive)
REMARK    1  A    between atoms: N1_2  and  C3_4 
REMARK    2  A    between atoms: C3_4  and  C4_5 
REMARK    3  A    between atoms: C4_5  and  N2_6 
REMARK    4  A    between atoms: N2_6  and  C5_8 
ROOT
HETATM    1  C5  UNL     1      27.773   7.124 -44.327  1.00  0.00     0.131 A 
HETATM    2  N3  UNL     1      28.717   6.643 -45.138  1.00  0.00    -0.337 N 
ATOM      3  H3  UNL     1      29.038   5.689 -44.976  1.00  0.00     0.168 HD
HETATM    4  C6  UNL     1      29.279   7.326 -46.157  1.00  0.00     0.182 A 
HETATM    5  N4  UNL     1      28.862   8.583 -46.376  1.00  0.00    -0.350 N 
ATOM      6  H4  UNL     1      29.275   9.115 -47.142  1.00  0.00     0.166 HD
HETATM    7  C7  UNL     1      27.910   9.163 -45.610  1.00  0.00     0.065 A 
HETATM    8  C8  UNL     1      27.340  10.426 -45.658  1.00  0.00     0.049 A 
HETATM    9  C9  UNL     1      26.431  10.432 -44.625  1.00  0.00     0.091 A 
HETATM   10  N5  UNL     1      26.453   9.242 -43.991  1.00  0.00    -0.361 N 
ATOM     11  H5  UNL     1      25.873   8.993 -43.189  1.00  0.00     0.165 HD
HETATM   12  C10 UNL     1      27.351   8.437 -44.572  1.00  0.00     0.103 A 
ENDROOT
BRANCH   1  13
HETATM   13  N2  UNL     1      27.213   6.534 -43.359  1.00  0.00    -0.373 N 
ATOM     14  H2  UNL     1      26.199   6.623 -43.302  1.00  0.00     0.161 HD
BRANCH  13  15
HETATM   15  C4  UNL     1      27.846   5.748 -42.324  1.00  0.00     0.151 C 
BRANCH  15  16
HETATM   16  C3  UNL     1      27.288   4.358 -42.427  1.00  0.00     0.290 C 
BRANCH  16  17
HETATM   17  N1  UNL     1      27.958   3.531 -43.362  1.00  0.00     0.081 N 
HETATM   18  C1  UNL     1      29.372   3.603 -43.215  1.00  0.00     0.309 C 
HETATM   19  C2  UNL     1      27.408   2.232 -43.551  1.00  0.00     0.309 C 
ENDBRANCH  16  17
ENDBRANCH  15  16
ENDBRANCH  13  15
ENDBRANCH   1  13
TORSDOF 4
ENDMDL
MODEL 4
REMARK VINA RESULT: -5.766856788      1.811      3.014
REMARK  4 active torsions:
REMARK  status: ('A' for Active; 'I' for Inactive)
REMARK    1  A    between atoms: N1_2  and  C3_4 
REMARK    2  A    between atoms: C3_4  and  C4_5 
REMARK    3  A    between atoms: C4_5  and  N2_6 
REMARK    4  A    between atoms: N2_6  and  C5_8 
ROOT
HETATM    1  C5  UNL     1      27.823   7.051 -44.474  1.00  0.00     0.131 A 
HETATM    2  N3  UNL     1      28.786   6.646 -45.305  1.00  0.00    -0.337 N 
ATOM      3  H3  UNL     1      29.122   5.688 -45.207  1.00  0.00     0.168 HD
HETATM    4  C6  UNL     1      29.348   7.410 -46.265  1.00  0.00     0.182 A 
HETATM    5  N4  UNL     1      28.911   8.672 -46.398  1.00  0.00    -0.350 N 
ATOM      6  H4  UNL     1      29.324   9.265 -47.118  1.00  0.00     0.166 HD
HETATM    7  C7  UNL     1      27.939   9.179 -45.606  1.00  0.00     0.065 A 
HETATM    8  C8  UNL     1      27.346  10.432 -45.571  1.00  0.00     0.049 A 
HETATM    9  C9  UNL     1      26.424  10.348 -44.552  1.00  0.00     0.091 A 
HETATM   10  N5  UNL     1      26.460   9.115 -44.006  1.00  0.00    -0.361 N 
ATOM     11  H5  UNL     1      25.875   8.799 -43.232  1.00  0.00     0.165 HD
HETATM   12  C10 UNL     1      27.380   8.370 -44.630  1.00  0.00     0.103 A 
ENDROOT
BRANCH   1  13
HETATM   13  N2  UNL     1      27.262   6.383 -43.560  1.00  0.00    -0.373 N 
ATOM     14  H2  UNL     1      26.540   6.866 -43.026  1.00  0.00     0.161 HD
BRANCH  13  15
HETATM   15  C4  UNL     1      27.527   5.012 -43.183  1.00  0.00     0.151 C 
BRANCH  15  16
HETATM   16  C3  UNL     1      28.303   5.053 -41.898  1.00  0.00     0.290 C 
BRANCH  16  17
HETATM   17  N1  UNL     1      29.695   4.848 -42.054  1.00  0.00     0.081 N 
HETATM   18  C1  UNL     1      29.983   3.963 -43.132  1.00  0.00     0.309 C 
HETATM   19  C2  UNL     1      30.511   6.011 -41.957  1.00  0.00     0.309 C 
ENDBRANCH  16  17
ENDBRANCH  15  16
ENDBRANCH  13  15
ENDBRANCH   1  13
TORSDOF 4
ENDMDL
MODEL 5
REMARK VINA RESULT: -5.748099097      1.763      5.232
REMARK  4 active torsions:
REMARK  status: ('A' for Active; 'I' for Inactive)
REMARK    1  A    between atoms: N1_2  and  C3_4 
REMARK    2  A    between atoms: C3_4  and  C4_5 
REMARK    3  A    between atoms: C4_5  and  N2_6 
REMARK    4  A    between atoms: N2_6  and  C5_8 
ROOT
HETATM    1  C5  UNL     1      27.715   8.120 -45.044  1.00  0.00     0.131 A 
HETATM    2  N3  UNL     1      28.504   8.371 -46.090  1.00  0.00    -0.337 N 
ATOM      3  H3  UNL     1      28.382   9.263 -46.571  1.00  0.00     0.168 HD
HETATM    4  C6  UNL     1      29.450   7.531 -46.561  1.00  0.00     0.182 A 
HETATM    5  N4  UNL     1      29.614   6.356 -45.935  1.00  0.00    -0.350 N 
ATOM      6  H4  UNL     1      30.324   5.708 -46.277  1.00  0.00     0.166 HD
HETATM    7  C7  UNL     1      28.865   6.006 -44.864  1.00  0.00     0.065 A 
HETATM    8  C8  UNL     1      28.867   4.864 -44.080  1.00  0.00     0.049 A 
HETATM    9  C9  UNL     1      27.883   5.088 -43.143  1.00  0.00     0.091 A 
HETATM   10  N5  UNL     1      27.321   6.296 -43.353  1.00  0.00    -0.361 N 
ATOM     11  H5  UNL     1      26.567   6.698 -42.796  1.00  0.00     0.165 HD
HETATM   12  C10 UNL     1      27.902   6.888 -44.403  1.00  0.00     0.103 A 
ENDROOT
BRANCH   1  13
HETATM   13  N2  UNL     1      26.815   8.864 -44.561  1.00  0.00    -0.373 N 
ATOM     14  H2  UNL     1      26.388   8.549 -43.689  1.00  0.00     0.161 HD
BRANCH  13  15
HETATM   15  C4  UNL     1      26.320  10.111 -45.101  1.00  0.00     0.151 C 
BRANCH  15  16
HETATM   16  C3  UNL     1      27.179  11.205 -44.536  1.00  0.00     0.290 C 
BRANCH  16  17
HETATM   17  N1  UNL     1      27.493  12.232 -45.459  1.00  0.00     0.081 N 
HETATM   18  C1  UNL     1      28.835  12.685 -45.311  1.00  0.00     0.309 C 
HETATM   19  C2  UNL     1      27.038  12.031 -46.793  1.00  0.00     0.309 C 
ENDBRANCH  16  17
ENDBRANCH  15  16
ENDBRANCH  13  15
ENDBRANCH   1  13
TORSDOF 4
ENDMDL
