MODEL 1
REMARK VINA RESULT: -8.030735317      0.000      0.000
REMARK  13 active torsions:
REMARK  status: ('A' for Active; 'I' for Inactive)
REMARK    1  A    between atoms: C3_3  and  N1_4 
REMARK    2  A    between atoms: N3_12  and  C7_13 
REMARK    3  A    between atoms: C7_13  and  C8_14 
REMARK    4  A    between atoms: C8_14  and  C9_15 
REMARK    5  A    between atoms: C9_15  and  C10_16 
REMARK    6  A    between atoms: C10_16  and  C11_17 
REMARK    7  A    between atoms: C11_17  and  C12_18 
REMARK    8  A    between atoms: C12_18  and  C13_19 
REMARK    9  A    between atoms: C13_19  and  C14_20 
REMARK   10  A    between atoms: C14_20  and  C15_21 
REMARK   11  A    between atoms: C15_21  and  C16_22 
REMARK   12  A    between atoms: C19_27  and  N5_28 
REMARK   13  A    between atoms: N5_28  and  C20_30 
ROOT
HETATM    1  C1  UNL     1      26.606  -6.614  44.235  1.00  0.00     0.014 C 
HETATM    2  C2  UNL     1      27.435  -7.455  44.019  1.00  0.00    -0.096 C 
HETATM    3  C3  UNL     1      28.405  -8.476  43.756  1.00  0.00     0.247 C 
ENDROOT
BRANCH   3   4
HETATM    4  N1  UNL     1      28.303  -9.614  44.593  1.00  0.00    -0.227 N 
HETATM    5  C4  UNL     1      27.435 -10.721  44.263  1.00  0.00     0.338 C 
HETATM    6  O1  UNL     1      26.759 -10.577  43.224  1.00  0.00    -0.245 OA
HETATM    7  N2  UNL     1      27.354 -11.879  45.049  1.00  0.00    -0.333 N 
HETATM    8  C5  UNL     1      28.478 -12.233  45.892  1.00  0.00     0.229 C 
ATOM      9  H2  UNL     1      26.517 -12.462  45.029  1.00  0.00     0.164 HD
HETATM   10  C6  UNL     1      28.947 -10.982  46.525  1.00  0.00     0.256 C 
HETATM   11  O2  UNL     1      29.254 -10.926  47.723  1.00  0.00    -0.270 OA
HETATM   12  N3  UNL     1      29.067  -9.757  45.749  1.00  0.00    -0.253 N 
BRANCH  12  13
HETATM   13  C7  UNL     1      30.007  -8.766  46.215  1.00  0.00     0.152 C 
BRANCH  13  14
HETATM   14  C8  UNL     1      29.304  -7.784  47.110  1.00  0.00     0.022 C 
BRANCH  14  15
HETATM   15  C9  UNL     1      29.844  -6.365  46.984  1.00  0.00     0.002 C 
BRANCH  15  16
HETATM   16  C10 UNL     1      31.182  -6.415  46.304  1.00  0.00     0.000 C 
BRANCH  16  17
HETATM   17  C11 UNL     1      31.364  -5.275  45.322  1.00  0.00     0.000 C 
BRANCH  17  18
HETATM   18  C12 UNL     1      30.830  -5.591  43.951  1.00  0.00     0.000 C 
BRANCH  18  19
HETATM   19  C13 UNL     1      29.782  -4.633  43.495  1.00  0.00     0.004 C 
BRANCH  19  20
HETATM   20  C14 UNL     1      29.289  -3.676  44.532  1.00  0.00     0.031 C 
BRANCH  20  21
HETATM   21  C15 UNL     1      27.949  -3.174  44.170  1.00  0.00     0.022 C 
BRANCH  21  22
HETATM   22  C16 UNL     1      27.521  -1.957  44.521  1.00  0.00     0.103 A 
HETATM   23  N4  UNL     1      26.301  -1.639  45.010  1.00  0.00    -0.340 N 
HETATM   24  C17 UNL     1      26.211  -0.330  45.254  1.00  0.00     0.068 A 
ATOM     25  H4  UNL     1      25.551  -2.310  45.172  1.00  0.00     0.167 HD
HETATM   26  C18 UNL     1      25.211   0.384  45.728  1.00  0.00     0.047 C 
HETATM   27  C19 UNL     1      27.435   0.188  44.897  1.00  0.00     0.129 A 
HETATM   28  N6  UNL     1      28.205  -0.810  44.459  1.00  0.00    -0.327 N 
ATOM     29  H6  UNL     1      29.165  -0.713  44.129  1.00  0.00     0.169 HD
BRANCH  27  30
HETATM   30  N5  UNL     1      27.738   1.437  44.989  1.00  0.00    -0.375 N 
ATOM     31  H5  UNL     1      27.369   1.992  45.762  1.00  0.00     0.161 HD
BRANCH  30  32
HETATM   32  C20 UNL     1      28.588   2.050  44.018  1.00  0.00     0.116 C 
HETATM   33  C21 UNL     1      27.902   3.261  43.406  1.00  0.00     0.026 C 
ENDBRANCH  30  32
ENDBRANCH  27  30
ENDBRANCH  21  22
ENDBRANCH  20  21
ENDBRANCH  19  20
ENDBRANCH  18  19
ENDBRANCH  17  18
ENDBRANCH  16  17
ENDBRANCH  15  16
ENDBRANCH  14  15
ENDBRANCH  13  14
ENDBRANCH  12  13
ENDBRANCH   3   4
TORSDOF 13
ENDMDL
MODEL 2
REMARK VINA RESULT: -7.444068489      4.070      7.924
REMARK  13 active torsions:
REMARK  status: ('A' for Active; 'I' for Inactive)
REMARK    1  A    between atoms: C3_3  and  N1_4 
REMARK    2  A    between atoms: N3_12  and  C7_13 
REMARK    3  A    between atoms: C7_13  and  C8_14 
REMARK    4  A    between atoms: C8_14  and  C9_15 
REMARK    5  A    between atoms: C9_15  and  C10_16 
REMARK    6  A    between atoms: C10_16  and  C11_17 
REMARK    7  A    between atoms: C11_17  and  C12_18 
REMARK    8  A    between atoms: C12_18  and  C13_19 
REMARK    9  A    between atoms: C13_19  and  C14_20 
REMARK   10  A    between atoms: C14_20  and  C15_21 
REMARK   11  A    between atoms: C15_21  and  C16_22 
REMARK   12  A    between atoms: C19_27  and  N5_28 
REMARK   13  A    between atoms: N5_28  and  C20_30 
ROOT
HETATM    1  C1  UNL     1      25.130  -6.728  38.981  1.00  0.00     0.014 C 
HETATM    2  C2  UNL     1      26.010  -5.927  39.139  1.00  0.00    -0.096 C 
HETATM    3  C3  UNL     1      27.074  -4.981  39.307  1.00  0.00     0.247 C 
ENDROOT
BRANCH   3   4
HETATM    4  N1  UNL     1      28.345  -5.562  39.536  1.00  0.00    -0.227 N 
HETATM    5  C4  UNL     1      29.175  -6.020  38.445  1.00  0.00     0.338 C 
HETATM    6  O1  UNL     1      28.671  -5.910  37.309  1.00  0.00    -0.245 OA
HETATM    7  N2  UNL     1      30.457  -6.552  38.643  1.00  0.00    -0.333 N 
HETATM    8  C5  UNL     1      31.191  -6.185  39.837  1.00  0.00     0.229 C 
ATOM      9  H2  UNL     1      30.866  -7.187  37.957  1.00  0.00     0.164 HD
HETATM   10  C6  UNL     1      30.229  -6.229  40.959  1.00  0.00     0.256 C 
HETATM   11  O2  UNL     1      30.517  -6.731  42.054  1.00  0.00    -0.270 OA
HETATM   12  N3  UNL     1      28.891  -5.675  40.812  1.00  0.00    -0.253 N 
BRANCH  12  13
HETATM   13  C7  UNL     1      28.218  -5.241  42.013  1.00  0.00     0.152 C 
BRANCH  13  14
HETATM   14  C8  UNL     1      27.452  -6.390  42.605  1.00  0.00     0.022 C 
BRANCH  14  15
HETATM   15  C9  UNL     1      27.425  -6.372  44.128  1.00  0.00     0.002 C 
BRANCH  15  16
HETATM   16  C10 UNL     1      27.870  -5.018  44.603  1.00  0.00     0.000 C 
BRANCH  16  17
HETATM   17  C11 UNL     1      29.040  -5.110  45.563  1.00  0.00     0.000 C 
BRANCH  17  18
HETATM   18  C12 UNL     1      30.331  -4.622  44.962  1.00  0.00     0.000 C 
BRANCH  18  19
HETATM   19  C13 UNL     1      31.509  -5.447  45.355  1.00  0.00     0.004 C 
BRANCH  19  20
HETATM   20  C14 UNL     1      31.260  -6.454  46.432  1.00  0.00     0.031 C 
BRANCH  20  21
HETATM   21  C15 UNL     1      31.465  -7.820  45.913  1.00  0.00     0.022 C 
BRANCH  21  22
HETATM   22  C16 UNL     1      30.458  -8.572  45.458  1.00  0.00     0.103 A 
HETATM   23  N4  UNL     1      30.160  -8.828  44.164  1.00  0.00    -0.340 N 
HETATM   24  C17 UNL     1      29.088  -9.617  44.069  1.00  0.00     0.068 A 
ATOM     25  H4  UNL     1      30.684  -8.466  43.368  1.00  0.00     0.167 HD
HETATM   26  C18 UNL     1      28.473 -10.098  43.008  1.00  0.00     0.047 C 
HETATM   27  C19 UNL     1      28.704  -9.863  45.367  1.00  0.00     0.129 A 
HETATM   28  N6  UNL     1      29.543  -9.224  46.184  1.00  0.00    -0.327 N 
ATOM     29  H6  UNL     1      29.494  -9.230  47.203  1.00  0.00     0.169 HD
BRANCH  27  30
HETATM   30  N5  UNL     1      27.693 -10.595  45.688  1.00  0.00    -0.375 N 
ATOM     31  H5  UNL     1      26.775 -10.392  45.294  1.00  0.00     0.161 HD
BRANCH  30  32
HETATM   32  C20 UNL     1      27.852 -11.690  46.593  1.00  0.00     0.116 C 
HETATM   33  C21 UNL     1      26.816 -11.612  47.702  1.00  0.00     0.026 C 
ENDBRANCH  30  32
ENDBRANCH  27  30
ENDBRANCH  21  22
ENDBRANCH  20  21
ENDBRANCH  19  20
ENDBRANCH  18  19
ENDBRANCH  17  18
ENDBRANCH  16  17
ENDBRANCH  15  16
ENDBRANCH  14  15
ENDBRANCH  13  14
ENDBRANCH  12  13
ENDBRANCH   3   4
TORSDOF 13
ENDMDL
MODEL 3
REMARK VINA RESULT: -7.435922141      3.364      7.836
REMARK  13 active torsions:
REMARK  status: ('A' for Active; 'I' for Inactive)
REMARK    1  A    between atoms: C3_3  and  N1_4 
REMARK    2  A    between atoms: N3_12  and  C7_13 
REMARK    3  A    between atoms: C7_13  and  C8_14 
REMARK    4  A    between atoms: C8_14  and  C9_15 
REMARK    5  A    between atoms: C9_15  and  C10_16 
REMARK    6  A    between atoms: C10_16  and  C11_17 
REMARK    7  A    between atoms: C11_17  and  C12_18 
REMARK    8  A    between atoms: C12_18  and  C13_19 
REMARK    9  A    between atoms: C13_19  and  C14_20 
REMARK   10  A    between atoms: C14_20  and  C15_21 
REMARK   11  A    between atoms: C15_21  and  C16_22 
REMARK   12  A    between atoms: C19_27  and  N5_28 
REMARK   13  A    between atoms: N5_28  and  C20_30 
ROOT
HETATM    1  C1  UNL     1      30.875  -6.026  40.195  1.00  0.00     0.014 C 
HETATM    2  C2  UNL     1      30.153  -6.168  41.145  1.00  0.00    -0.096 C 
HETATM    3  C3  UNL     1      29.272  -6.328  42.264  1.00  0.00     0.247 C 
ENDROOT
BRANCH   3   4
HETATM    4  N1  UNL     1      28.620  -5.140  42.673  1.00  0.00    -0.227 N 
HETATM    5  C4  UNL     1      27.269  -4.837  42.257  1.00  0.00     0.338 C 
HETATM    6  O1  UNL     1      26.750  -5.668  41.484  1.00  0.00    -0.245 OA
HETATM    7  N2  UNL     1      26.584  -3.692  42.689  1.00  0.00    -0.333 N 
HETATM    8  C5  UNL     1      26.978  -3.070  43.936  1.00  0.00     0.229 C 
ATOM      9  H2  UNL     1      25.822  -3.304  42.134  1.00  0.00     0.164 HD
HETATM   10  C6  UNL     1      28.457  -3.057  43.958  1.00  0.00     0.256 C 
HETATM   11  O2  UNL     1      29.101  -2.067  44.330  1.00  0.00    -0.270 OA
HETATM   12  N3  UNL     1      29.215  -4.225  43.537  1.00  0.00    -0.253 N 
BRANCH  12  13
HETATM   13  C7  UNL     1      30.545  -4.381  44.076  1.00  0.00     0.152 C 
BRANCH  13  14
HETATM   14  C8  UNL     1      30.481  -5.148  45.366  1.00  0.00     0.022 C 
BRANCH  14  15
HETATM   15  C9  UNL     1      31.724  -5.990  45.627  1.00  0.00     0.002 C 
BRANCH  15  16
HETATM   16  C10 UNL     1      31.303  -7.409  45.877  1.00  0.00     0.000 C 
BRANCH  16  17
HETATM   17  C11 UNL     1      29.795  -7.563  45.875  1.00  0.00     0.000 C 
BRANCH  17  18
HETATM   18  C12 UNL     1      29.299  -8.490  46.952  1.00  0.00     0.000 C 
BRANCH  18  19
HETATM   19  C13 UNL     1      28.254  -9.439  46.473  1.00  0.00     0.004 C 
BRANCH  19  20
HETATM   20  C14 UNL     1      28.719 -10.468  45.493  1.00  0.00     0.031 C 
BRANCH  20  21
HETATM   21  C15 UNL     1      27.944 -10.369  44.241  1.00  0.00     0.022 C 
BRANCH  21  22
HETATM   22  C16 UNL     1      28.520 -10.133  43.058  1.00  0.00     0.103 A 
HETATM   23  N4  UNL     1      29.844 -10.154  42.785  1.00  0.00    -0.340 N 
HETATM   24  C17 UNL     1      30.071  -9.872  41.500  1.00  0.00     0.068 A 
ATOM     25  H4  UNL     1      30.572 -10.359  43.469  1.00  0.00     0.167 HD
HETATM   26  C18 UNL     1      31.202  -9.788  40.831  1.00  0.00     0.047 C 
HETATM   27  C19 UNL     1      28.826  -9.665  40.951  1.00  0.00     0.129 A 
HETATM   28  N6  UNL     1      27.911  -9.828  41.907  1.00  0.00    -0.327 N 
ATOM     29  H6  UNL     1      26.902  -9.734  41.781  1.00  0.00     0.169 HD
BRANCH  27  30
HETATM   30  N5  UNL     1      28.631  -9.366  39.713  1.00  0.00    -0.375 N 
ATOM     31  H5  UNL     1      29.149  -9.858  38.985  1.00  0.00     0.161 HD
BRANCH  30  32
HETATM   32  C20 UNL     1      27.692  -8.351  39.352  1.00  0.00     0.116 C 
HETATM   33  C21 UNL     1      28.137  -7.649  38.081  1.00  0.00     0.026 C 
ENDBRANCH  30  32
ENDBRANCH  27  30
ENDBRANCH  21  22
ENDBRANCH  20  21
ENDBRANCH  19  20
ENDBRANCH  18  19
ENDBRANCH  17  18
ENDBRANCH  16  17
ENDBRANCH  15  16
ENDBRANCH  14  15
ENDBRANCH  13  14
ENDBRANCH  12  13
ENDBRANCH   3   4
TORSDOF 13
ENDMDL
MODEL 4
REMARK VINA RESULT: -7.394269876      4.293      7.486
REMARK  13 active torsions:
REMARK  status: ('A' for Active; 'I' for Inactive)
REMARK    1  A    between atoms: C3_3  and  N1_4 
REMARK    2  A    between atoms: N3_12  and  C7_13 
REMARK    3  A    between atoms: C7_13  and  C8_14 
REMARK    4  A    between atoms: C8_14  and  C9_15 
REMARK    5  A    between atoms: C9_15  and  C10_16 
REMARK    6  A    between atoms: C10_16  and  C11_17 
REMARK    7  A    between atoms: C11_17  and  C12_18 
REMARK    8  A    between atoms: C12_18  and  C13_19 
REMARK    9  A    between atoms: C13_19  and  C14_20 
REMARK   10  A    between atoms: C14_20  and  C15_21 
REMARK   11  A    between atoms: C15_21  and  C16_22 
REMARK   12  A    between atoms: C19_27  and  N5_28 
REMARK   13  A    between atoms: N5_28  and  C20_30 
ROOT
HETATM    1  C1  UNL     1      26.794  -4.872  39.577  1.00  0.00     0.014 C 
HETATM    2  C2  UNL     1      26.473  -6.021  39.441  1.00  0.00    -0.096 C 
HETATM    3  C3  UNL     1      26.108  -7.399  39.294  1.00  0.00     0.247 C 
ENDROOT
BRANCH   3   4
HETATM    4  N1  UNL     1      27.155  -8.238  38.839  1.00  0.00    -0.227 N 
HETATM    5  C4  UNL     1      27.217  -8.695  37.469  1.00  0.00     0.338 C 
HETATM    6  O1  UNL     1      26.267  -8.337  36.744  1.00  0.00    -0.245 OA
HETATM    7  N2  UNL     1      28.269  -9.484  36.983  1.00  0.00    -0.333 N 
HETATM    8  C5  UNL     1      29.552  -9.430  37.653  1.00  0.00     0.229 C 
ATOM      9  H2  UNL     1      28.133 -10.086  36.171  1.00  0.00     0.164 HD
HETATM   10  C6  UNL     1      29.276  -9.442  39.105  1.00  0.00     0.256 C 
HETATM   11  O2  UNL     1      29.933 -10.133  39.895  1.00  0.00    -0.270 OA
HETATM   12  N3  UNL     1      28.208  -8.627  39.664  1.00  0.00    -0.253 N 
BRANCH  12  13
HETATM   13  C7  UNL     1      28.325  -8.240  41.049  1.00  0.00     0.152 C 
BRANCH  13  14
HETATM   14  C8  UNL     1      29.399  -7.199  41.194  1.00  0.00     0.022 C 
BRANCH  14  15
HETATM   15  C9  UNL     1      29.103  -6.179  42.286  1.00  0.00     0.002 C 
BRANCH  15  16
HETATM   16  C10 UNL     1      30.340  -5.365  42.536  1.00  0.00     0.000 C 
BRANCH  16  17
HETATM   17  C11 UNL     1      30.175  -4.430  43.718  1.00  0.00     0.000 C 
BRANCH  17  18
HETATM   18  C12 UNL     1      31.264  -4.587  44.746  1.00  0.00     0.000 C 
BRANCH  18  19
HETATM   19  C13 UNL     1      31.640  -6.009  44.987  1.00  0.00     0.004 C 
BRANCH  19  20
HETATM   20  C14 UNL     1      31.562  -6.464  46.409  1.00  0.00     0.031 C 
BRANCH  20  21
HETATM   21  C15 UNL     1      30.191  -6.293  46.927  1.00  0.00     0.022 C 
BRANCH  21  22
HETATM   22  C16 UNL     1      29.219  -7.179  46.689  1.00  0.00     0.103 A 
HETATM   23  N4  UNL     1      28.340  -7.160  45.662  1.00  0.00    -0.340 N 
HETATM   24  C17 UNL     1      27.503  -8.197  45.730  1.00  0.00     0.068 A 
ATOM     25  H4  UNL     1      28.320  -6.448  44.932  1.00  0.00     0.167 HD
HETATM   26  C18 UNL     1      26.511  -8.548  44.939  1.00  0.00     0.047 C 
HETATM   27  C19 UNL     1      27.882  -8.893  46.855  1.00  0.00     0.129 A 
HETATM   28  N6  UNL     1      28.915  -8.261  47.415  1.00  0.00    -0.327 N 
ATOM     29  H6  UNL     1      29.399  -8.557  48.263  1.00  0.00     0.169 HD
BRANCH  27  30
HETATM   30  N5  UNL     1      27.303  -9.971  47.260  1.00  0.00    -0.375 N 
ATOM     31  H5  UNL     1      26.326  -9.943  47.550  1.00  0.00     0.161 HD
BRANCH  30  32
HETATM   32  C20 UNL     1      28.021 -11.206  47.303  1.00  0.00     0.116 C 
HETATM   33  C21 UNL     1      27.101 -12.335  47.736  1.00  0.00     0.026 C 
ENDBRANCH  30  32
ENDBRANCH  27  30
ENDBRANCH  21  22
ENDBRANCH  20  21
ENDBRANCH  19  20
ENDBRANCH  18  19
ENDBRANCH  17  18
ENDBRANCH  16  17
ENDBRANCH  15  16
ENDBRANCH  14  15
ENDBRANCH  13  14
ENDBRANCH  12  13
ENDBRANCH   3   4
TORSDOF 13
ENDMDL
MODEL 5
REMARK VINA RESULT: -7.378089410      4.291      7.651
REMARK  13 active torsions:
REMARK  status: ('A' for Active; 'I' for Inactive)
REMARK    1  A    between atoms: C3_3  and  N1_4 
REMARK    2  A    between atoms: N3_12  and  C7_13 
REMARK    3  A    between atoms: C7_13  and  C8_14 
REMARK    4  A    between atoms: C8_14  and  C9_15 
REMARK    5  A    between atoms: C9_15  and  C10_16 
REMARK    6  A    between atoms: C10_16  and  C11_17 
REMARK    7  A    between atoms: C11_17  and  C12_18 
REMARK    8  A    between atoms: C12_18  and  C13_19 
REMARK    9  A    between atoms: C13_19  and  C14_20 
REMARK   10  A    between atoms: C14_20  and  C15_21 
REMARK   11  A    between atoms: C15_21  and  C16_22 
REMARK   12  A    between atoms: C19_27  and  N5_28 
REMARK   13  A    between atoms: N5_28  and  C20_30 
ROOT
HETATM    1  C1  UNL     1      26.933  -6.839  44.174  1.00  0.00     0.014 C 
HETATM    2  C2  UNL     1      27.056  -6.599  43.004  1.00  0.00    -0.096 C 
HETATM    3  C3  UNL     1      27.190  -6.335  41.602  1.00  0.00     0.247 C 
ENDROOT
BRANCH   3   4
HETATM    4  N1  UNL     1      27.835  -7.362  40.870  1.00  0.00    -0.227 N 
HETATM    5  C4  UNL     1      27.149  -8.097  39.832  1.00  0.00     0.338 C 
HETATM    6  O1  UNL     1      25.949  -7.796  39.669  1.00  0.00    -0.245 OA
HETATM    7  N2  UNL     1      27.781  -9.082  39.061  1.00  0.00    -0.333 N 
HETATM    8  C5  UNL     1      29.220  -9.033  38.904  1.00  0.00     0.229 C 
ATOM      9  H2  UNL     1      27.236  -9.822  38.617  1.00  0.00     0.164 HD
HETATM   10  C6  UNL     1      29.783  -8.711  40.232  1.00  0.00     0.256 C 
HETATM   11  O2  UNL     1      30.779  -9.291  40.684  1.00  0.00    -0.270 OA
HETATM   12  N3  UNL     1      29.175  -7.684  41.066  1.00  0.00    -0.253 N 
BRANCH  12  13
HETATM   13  C7  UNL     1      30.023  -7.032  42.036  1.00  0.00     0.152 C 
BRANCH  13  14
HETATM   14  C8  UNL     1      30.678  -5.833  41.410  1.00  0.00     0.022 C 
BRANCH  14  15
HETATM   15  C9  UNL     1      31.152  -4.807  42.432  1.00  0.00     0.002 C 
BRANCH  15  16
HETATM   16  C10 UNL     1      29.970  -4.337  43.230  1.00  0.00     0.000 C 
BRANCH  16  17
HETATM   17  C11 UNL     1      30.260  -4.321  44.718  1.00  0.00     0.000 C 
BRANCH  17  18
HETATM   18  C12 UNL     1      31.595  -4.925  45.062  1.00  0.00     0.000 C 
BRANCH  18  19
HETATM   19  C13 UNL     1      31.501  -6.015  46.075  1.00  0.00     0.004 C 
BRANCH  19  20
HETATM   20  C14 UNL     1      30.808  -7.259  45.620  1.00  0.00     0.031 C 
BRANCH  20  21
HETATM   21  C15 UNL     1      29.998  -7.824  46.717  1.00  0.00     0.022 C 
BRANCH  21  22
HETATM   22  C16 UNL     1      29.121  -8.814  46.523  1.00  0.00     0.103 A 
HETATM   23  N4  UNL     1      27.941  -8.984  47.160  1.00  0.00    -0.340 N 
HETATM   24  C17 UNL     1      27.316 -10.079  46.723  1.00  0.00     0.068 A 
ATOM     25  H4  UNL     1      27.576  -8.360  47.879  1.00  0.00     0.167 HD
HETATM   26  C18 UNL     1      26.159 -10.601  47.074  1.00  0.00     0.047 C 
HETATM   27  C19 UNL     1      28.151 -10.614  45.768  1.00  0.00     0.129 A 
HETATM   28  N6  UNL     1      29.229  -9.835  45.667  1.00  0.00    -0.327 N 
ATOM     29  H6  UNL     1      30.014  -9.993  45.034  1.00  0.00     0.169 HD
BRANCH  27  30
HETATM   30  N5  UNL     1      27.889 -11.690  45.109  1.00  0.00    -0.375 N 
ATOM     31  H5  UNL     1      27.089 -11.714  44.475  1.00  0.00     0.161 HD
BRANCH  30  32
HETATM   32  C20 UNL     1      28.711 -12.849  45.259  1.00  0.00     0.116 C 
HETATM   33  C21 UNL     1      28.534 -13.444  46.646  1.00  0.00     0.026 C 
ENDBRANCH  30  32
ENDBRANCH  27  30
ENDBRANCH  21  22
ENDBRANCH  20  21
ENDBRANCH  19  20
ENDBRANCH  18  19
ENDBRANCH  17  18
ENDBRANCH  16  17
ENDBRANCH  15  16
ENDBRANCH  14  15
ENDBRANCH  13  14
ENDBRANCH  12  13
ENDBRANCH   3   4
TORSDOF 13
ENDMDL
