MODEL 1
REMARK VINA RESULT: -8.502500910      0.000      0.000
REMARK  13 active torsions:
REMARK  status: ('A' for Active; 'I' for Inactive)
REMARK    1  A    between atoms: C2_2  and  C3_3 
REMARK    2  A    between atoms: C3_3  and  C4_4 
REMARK    3  A    between atoms: C4_4  and  C5_5 
REMARK    4  A    between atoms: C5_5  and  C6_6 
REMARK    5  A    between atoms: C6_6  and  C7_7 
REMARK    6  A    between atoms: N2_14  and  C10_15 
REMARK    7  A    between atoms: C10_15  and  C11_16 
REMARK    8  A    between atoms: C11_16  and  C12_17 
REMARK    9  A    between atoms: C12_17  and  C13_18 
REMARK   10  A    between atoms: C16_25  and  C17_26 
REMARK   11  A    between atoms: C17_26  and  C18_27 
REMARK   12  A    between atoms: C18_27  and  C19_28 
REMARK   13  A    between atoms: C19_28  and  C20_29 
ROOT
HETATM    1  C11 UNL     1      29.307  -8.538  43.648  1.00  0.00     0.051 C 
ENDROOT
BRANCH   1   2
HETATM    2  C10 UNL     1      29.190  -9.965  44.176  1.00  0.00     0.132 C 
BRANCH   2   3
HETATM    3  N2  UNL     1      28.438  -9.975  45.416  1.00  0.00    -0.322 N 
HETATM    4  C7  UNL     1      28.852  -9.559  46.742  1.00  0.00     0.190 C 
HETATM    5  N1  UNL     1      28.110 -10.451  47.608  1.00  0.00    -0.332 N 
HETATM    6  C8  UNL     1      26.841 -10.737  46.983  1.00  0.00     0.311 C 
ATOM      7  H1  UNL     1      28.430 -10.816  48.505  1.00  0.00     0.165 HD
HETATM    8  O1  UNL     1      25.786 -11.151  47.491  1.00  0.00    -0.262 OA
HETATM    9  C9  UNL     1      27.075 -10.423  45.565  1.00  0.00     0.313 C 
HETATM   10  O2  UNL     1      26.253 -10.515  44.613  1.00  0.00    -0.262 OA
BRANCH   4  11
HETATM   11  C6  UNL     1      28.473  -8.120  47.015  1.00  0.00     0.047 C 
BRANCH  11  12
HETATM   12  C5  UNL     1      29.641  -7.271  47.377  1.00  0.00     0.004 C 
BRANCH  12  13
HETATM   13  C4  UNL     1      29.851  -6.106  46.451  1.00  0.00     0.004 C 
BRANCH  13  14
HETATM   14  C3  UNL     1      31.314  -6.154  46.006  1.00  0.00     0.026 C 
BRANCH  14  15
HETATM   15  C2  UNL     1      31.639  -5.070  45.058  1.00  0.00    -0.037 C 
HETATM   16  C1  UNL     1      30.697  -4.283  44.543  1.00  0.00     0.007 C 
ENDBRANCH  14  15
ENDBRANCH  13  14
ENDBRANCH  12  13
ENDBRANCH  11  12
ENDBRANCH   4  11
ENDBRANCH   2   3
ENDBRANCH   1   2
BRANCH   1  17
HETATM   17  C12 UNL     1      27.998  -7.897  43.557  1.00  0.00     0.023 C 
BRANCH  17  18
HETATM   18  C13 UNL     1      27.675  -6.946  42.729  1.00  0.00     0.104 A 
HETATM   19  N3  UNL     1      27.626  -5.666  43.140  1.00  0.00    -0.306 N 
HETATM   20  C14 UNL     1      27.290  -4.672  42.279  1.00  0.00     0.299 A 
ATOM     21  H3  UNL     1      27.844  -5.440  44.111  1.00  0.00     0.170 HD
HETATM   22  O3  UNL     1      27.251  -3.481  42.692  1.00  0.00    -0.264 OA
HETATM   23  C15 UNL     1      26.994  -4.979  40.967  1.00  0.00     0.265 A 
HETATM   24  O4  UNL     1      26.682  -4.076  40.161  1.00  0.00    -0.280 OA
HETATM   25  C16 UNL     1      27.043  -6.292  40.538  1.00  0.00     0.086 A 
HETATM   26  N4  UNL     1      27.381  -7.233  41.429  1.00  0.00    -0.340 N 
ATOM     27  H4  UNL     1      27.421  -8.205  41.122  1.00  0.00     0.167 HD
BRANCH  25  28
HETATM   28  C17 UNL     1      26.756  -6.566  39.275  1.00  0.00     0.007 C 
BRANCH  28  29
HETATM   29  C18 UNL     1      25.654  -7.467  38.948  1.00  0.00     0.029 C 
BRANCH  29  30
HETATM   30  C19 UNL     1      24.343  -6.766  38.727  1.00  0.00     0.003 C 
BRANCH  30  31
HETATM   31  C20 UNL     1      24.468  -5.594  37.787  1.00  0.00    -0.004 C 
HETATM   32  C21 UNL     1      23.161  -5.295  37.088  1.00  0.00     0.005 C 
ENDBRANCH  30  31
ENDBRANCH  29  30
ENDBRANCH  28  29
ENDBRANCH  25  28
ENDBRANCH  17  18
ENDBRANCH   1  17
TORSDOF 13
ENDMDL
MODEL 2
REMARK VINA RESULT: -8.379335527      2.948      4.960
REMARK  13 active torsions:
REMARK  status: ('A' for Active; 'I' for Inactive)
REMARK    1  A    between atoms: C2_2  and  C3_3 
REMARK    2  A    between atoms: C3_3  and  C4_4 
REMARK    3  A    between atoms: C4_4  and  C5_5 
REMARK    4  A    between atoms: C5_5  and  C6_6 
REMARK    5  A    between atoms: C6_6  and  C7_7 
REMARK    6  A    between atoms: N2_14  and  C10_15 
REMARK    7  A    between atoms: C10_15  and  C11_16 
REMARK    8  A    between atoms: C11_16  and  C12_17 
REMARK    9  A    between atoms: C12_17  and  C13_18 
REMARK   10  A    between atoms: C16_25  and  C17_26 
REMARK   11  A    between atoms: C17_26  and  C18_27 
REMARK   12  A    between atoms: C18_27  and  C19_28 
REMARK   13  A    between atoms: C19_28  and  C20_29 
ROOT
HETATM    1  C11 UNL     1      27.939  -7.484  43.109  1.00  0.00     0.051 C 
ENDROOT
BRANCH   1   2
HETATM    2  C10 UNL     1      27.094  -6.407  43.784  1.00  0.00     0.132 C 
BRANCH   2   3
HETATM    3  N2  UNL     1      27.917  -5.254  44.095  1.00  0.00    -0.322 N 
HETATM    4  C7  UNL     1      28.970  -5.119  45.083  1.00  0.00     0.190 C 
HETATM    5  N1  UNL     1      28.867  -3.731  45.478  1.00  0.00    -0.332 N 
HETATM    6  C8  UNL     1      28.448  -2.963  44.331  1.00  0.00     0.311 C 
ATOM      7  H1  UNL     1      29.058  -3.359  46.409  1.00  0.00     0.165 HD
HETATM    8  O1  UNL     1      28.561  -1.746  44.110  1.00  0.00    -0.262 OA
HETATM    9  C9  UNL     1      27.834  -3.967  43.448  1.00  0.00     0.313 C 
HETATM   10  O2  UNL     1      27.316  -3.778  42.314  1.00  0.00    -0.262 OA
BRANCH   4  11
HETATM   11  C6  UNL     1      30.331  -5.401  44.485  1.00  0.00     0.047 C 
BRANCH  11  12
HETATM   12  C5  UNL     1      31.402  -5.518  45.511  1.00  0.00     0.004 C 
BRANCH  12  13
HETATM   13  C4  UNL     1      31.163  -6.614  46.512  1.00  0.00     0.004 C 
BRANCH  13  14
HETATM   14  C3  UNL     1      31.299  -7.939  45.758  1.00  0.00     0.026 C 
BRANCH  14  15
HETATM   15  C2  UNL     1      30.125  -8.810  45.955  1.00  0.00    -0.037 C 
HETATM   16  C1  UNL     1      29.130  -8.473  46.774  1.00  0.00     0.007 C 
ENDBRANCH  14  15
ENDBRANCH  13  14
ENDBRANCH  12  13
ENDBRANCH  11  12
ENDBRANCH   4  11
ENDBRANCH   2   3
ENDBRANCH   1   2
BRANCH   1  17
HETATM   17  C12 UNL     1      28.390  -7.055  41.788  1.00  0.00     0.023 C 
BRANCH  17  18
HETATM   18  C13 UNL     1      27.634  -6.918  40.737  1.00  0.00     0.104 A 
HETATM   19  N3  UNL     1      26.730  -7.860  40.413  1.00  0.00    -0.306 N 
HETATM   20  C14 UNL     1      25.941  -7.720  39.317  1.00  0.00     0.299 A 
ATOM     21  H3  UNL     1      26.636  -8.690  40.999  1.00  0.00     0.170 HD
HETATM   22  O3  UNL     1      25.102  -8.619  39.038  1.00  0.00    -0.264 OA
HETATM   23  C15 UNL     1      26.071  -6.597  38.526  1.00  0.00     0.265 A 
HETATM   24  O4  UNL     1      25.352  -6.452  37.513  1.00  0.00    -0.280 OA
HETATM   25  C16 UNL     1      26.997  -5.625  38.852  1.00  0.00     0.086 A 
HETATM   26  N4  UNL     1      27.749  -5.814  39.945  1.00  0.00    -0.340 N 
ATOM     27  H4  UNL     1      28.436  -5.102  40.194  1.00  0.00     0.167 HD
BRANCH  25  28
HETATM   28  C17 UNL     1      27.105  -4.555  38.080  1.00  0.00     0.007 C 
BRANCH  28  29
HETATM   29  C18 UNL     1      28.117  -4.505  37.028  1.00  0.00     0.029 C 
BRANCH  29  30
HETATM   30  C19 UNL     1      27.663  -3.792  35.785  1.00  0.00     0.003 C 
BRANCH  30  31
HETATM   31  C20 UNL     1      28.673  -2.784  35.297  1.00  0.00    -0.004 C 
HETATM   32  C21 UNL     1      28.134  -1.965  34.146  1.00  0.00     0.005 C 
ENDBRANCH  30  31
ENDBRANCH  29  30
ENDBRANCH  28  29
ENDBRANCH  25  28
ENDBRANCH  17  18
ENDBRANCH   1  17
TORSDOF 13
ENDMDL
MODEL 3
REMARK VINA RESULT: -8.378702924      1.660      3.188
REMARK  13 active torsions:
REMARK  status: ('A' for Active; 'I' for Inactive)
REMARK    1  A    between atoms: C2_2  and  C3_3 
REMARK    2  A    between atoms: C3_3  and  C4_4 
REMARK    3  A    between atoms: C4_4  and  C5_5 
REMARK    4  A    between atoms: C5_5  and  C6_6 
REMARK    5  A    between atoms: C6_6  and  C7_7 
REMARK    6  A    between atoms: N2_14  and  C10_15 
REMARK    7  A    between atoms: C10_15  and  C11_16 
REMARK    8  A    between atoms: C11_16  and  C12_17 
REMARK    9  A    between atoms: C12_17  and  C13_18 
REMARK   10  A    between atoms: C16_25  and  C17_26 
REMARK   11  A    between atoms: C17_26  and  C18_27 
REMARK   12  A    between atoms: C18_27  and  C19_28 
REMARK   13  A    between atoms: C19_28  and  C20_29 
ROOT
HETATM    1  C11 UNL     1      29.117  -8.970  43.156  1.00  0.00     0.051 C 
ENDROOT
BRANCH   1   2
HETATM    2  C10 UNL     1      29.232 -10.217  44.028  1.00  0.00     0.132 C 
BRANCH   2   3
HETATM    3  N2  UNL     1      28.456 -10.048  45.241  1.00  0.00    -0.322 N 
HETATM    4  C7  UNL     1      28.867  -9.508  46.523  1.00  0.00     0.190 C 
HETATM    5  N1  UNL     1      28.060 -10.257  47.463  1.00  0.00    -0.332 N 
HETATM    6  C8  UNL     1      26.789 -10.543  46.842  1.00  0.00     0.311 C 
ATOM      7  H1  UNL     1      28.342 -10.535  48.403  1.00  0.00     0.165 HD
HETATM    8  O1  UNL     1      25.703 -10.841  47.366  1.00  0.00    -0.262 OA
HETATM    9  C9  UNL     1      27.068 -10.404  45.405  1.00  0.00     0.313 C 
HETATM   10  O2  UNL     1      26.261 -10.558  44.448  1.00  0.00    -0.262 OA
BRANCH   4  11
HETATM   11  C6  UNL     1      28.564  -8.029  46.625  1.00  0.00     0.047 C 
BRANCH  11  12
HETATM   12  C5  UNL     1      29.738  -7.225  47.059  1.00  0.00     0.004 C 
BRANCH  12  13
HETATM   13  C4  UNL     1      30.974  -7.468  46.238  1.00  0.00     0.004 C 
BRANCH  13  14
HETATM   14  C3  UNL     1      31.644  -6.107  46.035  1.00  0.00     0.026 C 
BRANCH  14  15
HETATM   15  C2  UNL     1      31.335  -5.532  44.712  1.00  0.00    -0.037 C 
HETATM   16  C1  UNL     1      31.143  -4.226  44.542  1.00  0.00     0.007 C 
ENDBRANCH  14  15
ENDBRANCH  13  14
ENDBRANCH  12  13
ENDBRANCH  11  12
ENDBRANCH   4  11
ENDBRANCH   2   3
ENDBRANCH   1   2
BRANCH   1  17
HETATM   17  C12 UNL     1      28.552  -9.288  41.847  1.00  0.00     0.023 C 
BRANCH  17  18
HETATM   18  C13 UNL     1      27.851  -8.479  41.107  1.00  0.00     0.104 A 
HETATM   19  N3  UNL     1      27.151  -8.943  40.056  1.00  0.00    -0.306 N 
HETATM   20  C14 UNL     1      26.419  -8.102  39.282  1.00  0.00     0.299 A 
ATOM     21  H3  UNL     1      27.172  -9.940  39.837  1.00  0.00     0.170 HD
HETATM   22  O3  UNL     1      25.773  -8.564  38.302  1.00  0.00    -0.264 OA
HETATM   23  C15 UNL     1      26.393  -6.755  39.578  1.00  0.00     0.265 A 
HETATM   24  O4  UNL     1      25.724  -5.966  38.876  1.00  0.00    -0.280 OA
HETATM   25  C16 UNL     1      27.109  -6.271  40.656  1.00  0.00     0.086 A 
HETATM   26  N4  UNL     1      27.814  -7.145  41.387  1.00  0.00    -0.340 N 
ATOM     27  H4  UNL     1      28.346  -6.798  42.185  1.00  0.00     0.167 HD
BRANCH  25  28
HETATM   28  C17 UNL     1      27.071  -4.975  40.924  1.00  0.00     0.007 C 
BRANCH  28  29
HETATM   29  C18 UNL     1      26.496  -4.499  42.180  1.00  0.00     0.029 C 
BRANCH  29  30
HETATM   30  C19 UNL     1      27.522  -4.152  43.223  1.00  0.00     0.003 C 
BRANCH  30  31
HETATM   31  C20 UNL     1      27.552  -5.147  44.356  1.00  0.00    -0.004 C 
HETATM   32  C21 UNL     1      26.357  -6.072  44.320  1.00  0.00     0.005 C 
ENDBRANCH  30  31
ENDBRANCH  29  30
ENDBRANCH  28  29
ENDBRANCH  25  28
ENDBRANCH  17  18
ENDBRANCH   1  17
TORSDOF 13
ENDMDL
MODEL 4
REMARK VINA RESULT: -8.346406975      2.809      8.078
REMARK  13 active torsions:
REMARK  status: ('A' for Active; 'I' for Inactive)
REMARK    1  A    between atoms: C2_2  and  C3_3 
REMARK    2  A    between atoms: C3_3  and  C4_4 
REMARK    3  A    between atoms: C4_4  and  C5_5 
REMARK    4  A    between atoms: C5_5  and  C6_6 
REMARK    5  A    between atoms: C6_6  and  C7_7 
REMARK    6  A    between atoms: N2_14  and  C10_15 
REMARK    7  A    between atoms: C10_15  and  C11_16 
REMARK    8  A    between atoms: C11_16  and  C12_17 
REMARK    9  A    between atoms: C12_17  and  C13_18 
REMARK   10  A    between atoms: C16_25  and  C17_26 
REMARK   11  A    between atoms: C17_26  and  C18_27 
REMARK   12  A    between atoms: C18_27  and  C19_28 
REMARK   13  A    between atoms: C19_28  and  C20_29 
ROOT
HETATM    1  C11 UNL     1      27.544  -4.677  42.979  1.00  0.00     0.051 C 
ENDROOT
BRANCH   1   2
HETATM    2  C10 UNL     1      28.389  -5.488  42.001  1.00  0.00     0.132 C 
BRANCH   2   3
HETATM    3  N2  UNL     1      27.598  -5.843  40.838  1.00  0.00    -0.322 N 
HETATM    4  C7  UNL     1      27.221  -5.024  39.702  1.00  0.00     0.190 C 
HETATM    5  N1  UNL     1      25.926  -5.557  39.334  1.00  0.00    -0.332 N 
HETATM    6  C8  UNL     1      25.925  -6.974  39.609  1.00  0.00     0.311 C 
ATOM      7  H1  UNL     1      25.149  -5.022  38.947  1.00  0.00     0.165 HD
HETATM    8  O1  UNL     1      25.194  -7.867  39.151  1.00  0.00    -0.262 OA
HETATM    9  C9  UNL     1      27.013  -7.138  40.586  1.00  0.00     0.313 C 
HETATM   10  O2  UNL     1      27.402  -8.207  41.131  1.00  0.00    -0.262 OA
BRANCH   4  11
HETATM   11  C6  UNL     1      28.201  -5.175  38.559  1.00  0.00     0.047 C 
BRANCH  11  12
HETATM   12  C5  UNL     1      27.649  -4.715  37.256  1.00  0.00     0.004 C 
BRANCH  12  13
HETATM   13  C4  UNL     1      28.684  -4.135  36.333  1.00  0.00     0.004 C 
BRANCH  13  14
HETATM   14  C3  UNL     1      27.927  -3.379  35.240  1.00  0.00     0.026 C 
BRANCH  14  15
HETATM   15  C2  UNL     1      28.615  -2.132  34.853  1.00  0.00    -0.037 C 
HETATM   16  C1  UNL     1      28.235  -1.420  33.794  1.00  0.00     0.007 C 
ENDBRANCH  14  15
ENDBRANCH  13  14
ENDBRANCH  12  13
ENDBRANCH  11  12
ENDBRANCH   4  11
ENDBRANCH   2   3
ENDBRANCH   1   2
BRANCH   1  17
HETATM   17  C12 UNL     1      26.652  -5.538  43.750  1.00  0.00     0.023 C 
BRANCH  17  18
HETATM   18  C13 UNL     1      27.010  -6.595  44.421  1.00  0.00     0.104 A 
HETATM   19  N3  UNL     1      26.502  -7.804  44.120  1.00  0.00    -0.306 N 
HETATM   20  C14 UNL     1      26.874  -8.908  44.818  1.00  0.00     0.299 A 
ATOM     21  H3  UNL     1      25.829  -7.892  43.358  1.00  0.00     0.170 HD
HETATM   22  O3  UNL     1      26.381 -10.028  44.515  1.00  0.00    -0.264 OA
HETATM   23  C15 UNL     1      27.783  -8.786  45.848  1.00  0.00     0.265 A 
HETATM   24  O4  UNL     1      28.137  -9.792  46.501  1.00  0.00    -0.280 OA
HETATM   25  C16 UNL     1      28.310  -7.548  46.163  1.00  0.00     0.086 A 
HETATM   26  N4  UNL     1      27.909  -6.493  45.441  1.00  0.00    -0.340 N 
ATOM     27  H4  UNL     1      28.292  -5.574  45.665  1.00  0.00     0.167 HD
BRANCH  25  28
HETATM   28  C17 UNL     1      29.182  -7.452  47.154  1.00  0.00     0.007 C 
BRANCH  28  29
HETATM   29  C18 UNL     1      30.246  -6.454  47.105  1.00  0.00     0.029 C 
BRANCH  29  30
HETATM   30  C19 UNL     1      31.258  -6.699  46.022  1.00  0.00     0.003 C 
BRANCH  30  31
HETATM   31  C20 UNL     1      31.904  -5.427  45.535  1.00  0.00    -0.004 C 
HETATM   32  C21 UNL     1      30.950  -4.597  44.705  1.00  0.00     0.005 C 
ENDBRANCH  30  31
ENDBRANCH  29  30
ENDBRANCH  28  29
ENDBRANCH  25  28
ENDBRANCH  17  18
ENDBRANCH   1  17
TORSDOF 13
ENDMDL
MODEL 5
REMARK VINA RESULT: -8.343825105      1.591      3.539
REMARK  13 active torsions:
REMARK  status: ('A' for Active; 'I' for Inactive)
REMARK    1  A    between atoms: C2_2  and  C3_3 
REMARK    2  A    between atoms: C3_3  and  C4_4 
REMARK    3  A    between atoms: C4_4  and  C5_5 
REMARK    4  A    between atoms: C5_5  and  C6_6 
REMARK    5  A    between atoms: C6_6  and  C7_7 
REMARK    6  A    between atoms: N2_14  and  C10_15 
REMARK    7  A    between atoms: C10_15  and  C11_16 
REMARK    8  A    between atoms: C11_16  and  C12_17 
REMARK    9  A    between atoms: C12_17  and  C13_18 
REMARK   10  A    between atoms: C16_25  and  C17_26 
REMARK   11  A    between atoms: C17_26  and  C18_27 
REMARK   12  A    between atoms: C18_27  and  C19_28 
REMARK   13  A    between atoms: C19_28  and  C20_29 
ROOT
HETATM    1  C11 UNL     1      29.456  -9.286  43.123  1.00  0.00     0.051 C 
ENDROOT
BRANCH   1   2
HETATM    2  C10 UNL     1      29.183 -10.551  43.931  1.00  0.00     0.132 C 
BRANCH   2   3
HETATM    3  N2  UNL     1      28.453 -10.220  45.140  1.00  0.00    -0.322 N 
HETATM    4  C7  UNL     1      28.940  -9.628  46.371  1.00  0.00     0.190 C 
HETATM    5  N1  UNL     1      28.088 -10.226  47.377  1.00  0.00    -0.332 N 
HETATM    6  C8  UNL     1      26.782 -10.435  46.798  1.00  0.00     0.311 C 
ATOM      7  H1  UNL     1      28.363 -10.459  48.331  1.00  0.00     0.165 HD
HETATM    8  O1  UNL     1      25.685 -10.589  47.358  1.00  0.00    -0.262 OA
HETATM    9  C9  UNL     1      27.041 -10.429  45.350  1.00  0.00     0.313 C 
HETATM   10  O2  UNL     1      26.203 -10.576  44.419  1.00  0.00    -0.262 OA
BRANCH   4  11
HETATM   11  C6  UNL     1      28.779  -8.124  46.365  1.00  0.00     0.047 C 
BRANCH  11  12
HETATM   12  C5  UNL     1      29.996  -7.408  46.835  1.00  0.00     0.004 C 
BRANCH  12  13
HETATM   13  C4  UNL     1      31.233  -7.737  46.045  1.00  0.00     0.004 C 
BRANCH  13  14
HETATM   14  C3  UNL     1      31.338  -6.691  44.933  1.00  0.00     0.026 C 
BRANCH  14  15
HETATM   15  C2  UNL     1      31.643  -5.349  45.465  1.00  0.00    -0.037 C 
HETATM   16  C1  UNL     1      31.600  -4.263  44.696  1.00  0.00     0.007 C 
ENDBRANCH  14  15
ENDBRANCH  13  14
ENDBRANCH  12  13
ENDBRANCH  11  12
ENDBRANCH   4  11
ENDBRANCH   2   3
ENDBRANCH   1   2
BRANCH   1  17
HETATM   17  C12 UNL     1      28.336  -8.969  42.241  1.00  0.00     0.023 C 
BRANCH  17  18
HETATM   18  C13 UNL     1      27.932  -7.771  41.930  1.00  0.00     0.104 A 
HETATM   19  N3  UNL     1      27.190  -7.562  40.827  1.00  0.00    -0.306 N 
HETATM   20  C14 UNL     1      26.767  -6.313  40.501  1.00  0.00     0.299 A 
ATOM     21  H3  UNL     1      26.942  -8.350  40.229  1.00  0.00     0.170 HD
HETATM   22  O3  UNL     1      26.073  -6.147  39.461  1.00  0.00    -0.264 OA
HETATM   23  C15 UNL     1      27.103  -5.248  41.310  1.00  0.00     0.265 A 
HETATM   24  O4  UNL     1      26.722  -4.092  41.024  1.00  0.00    -0.280 OA
HETATM   25  C16 UNL     1      27.865  -5.456  42.444  1.00  0.00     0.086 A 
HETATM   26  N4  UNL     1      28.254  -6.707  42.719  1.00  0.00    -0.340 N 
ATOM     27  H4  UNL     1      28.817  -6.871  43.555  1.00  0.00     0.167 HD
BRANCH  25  28
HETATM   28  C17 UNL     1      28.176  -4.420  43.208  1.00  0.00     0.007 C 
BRANCH  28  29
HETATM   29  C18 UNL     1      27.911  -4.458  44.644  1.00  0.00     0.029 C 
BRANCH  29  30
HETATM   30  C19 UNL     1      28.097  -3.134  45.329  1.00  0.00     0.003 C 
BRANCH  30  31
HETATM   31  C20 UNL     1      27.586  -1.980  44.504  1.00  0.00    -0.004 C 
HETATM   32  C21 UNL     1      26.697  -1.063  45.313  1.00  0.00     0.005 C 
ENDBRANCH  30  31
ENDBRANCH  29  30
ENDBRANCH  28  29
ENDBRANCH  25  28
ENDBRANCH  17  18
ENDBRANCH   1  17
TORSDOF 13
ENDMDL
