MODEL 1
REMARK VINA RESULT: -7.776091080      0.000      0.000
REMARK  12 active torsions:
REMARK  status: ('A' for Active; 'I' for Inactive)
REMARK    1  A    between atoms: C2_2  and  C3_3 
REMARK    2  A    between atoms: C3_3  and  C4_4 
REMARK    3  A    between atoms: C4_4  and  N1_5 
REMARK    4  A    between atoms: N1_5  and  C5_6 
REMARK    5  A    between atoms: N1_5  and  C7_8 
REMARK    6  A    between atoms: C7_8  and  C8_9 
REMARK    7  A    between atoms: C8_9  and  C9_10 
REMARK    8  A    between atoms: C9_10  and  C10_11 
REMARK    9  A    between atoms: C10_11  and  N2_12 
REMARK       I    between atoms: N2_12  and  C11_14 
REMARK       I    between atoms: C11_14  and  N3_15 
REMARK       I    between atoms: C11_14  and  N9_30 
REMARK   10  A    between atoms: N3_15  and  C12_17 
REMARK   11  A    between atoms: C12_17  and  C13_18 
REMARK   12  A    between atoms: C13_18  and  C14_19 
REMARK       I    between atoms: C14_19  and  N4_21 
REMARK       I    between atoms: C15_23  and  N6_25 
ROOT
HETATM    1  N2  UNL     1      27.502  -7.597  41.802  1.00  0.00    -0.206 N 
ATOM      2  H2  UNL     1      26.833  -7.459  41.045  1.00  0.00     0.183 HD
HETATM    3  C11 UNL     1      28.206  -8.480  41.365  1.00  0.00     0.674 C 
HETATM    4  N3  UNL     1      27.958  -9.043  40.054  1.00  0.00    -0.226 N 
ATOM      5  H3  UNL     1      27.010  -9.327  39.807  1.00  0.00     0.177 HD
HETATM    6  N9  UNL     1      29.294  -9.040  42.077  1.00  0.00    -0.227 N 
HETATM    7  C17 UNL     1      29.052  -9.903  43.189  1.00  0.00     0.168 C 
HETATM    8  C18 UNL     1      30.647  -8.743  41.677  1.00  0.00     0.168 C 
ENDROOT
BRANCH   1   9
HETATM    9  C10 UNL     1      27.093  -6.686  42.718  1.00  0.00     0.079 C 
BRANCH   9  10
HETATM   10  C9  UNL     1      28.121  -5.852  43.453  1.00  0.00     0.046 C 
BRANCH  10  11
HETATM   11  C8  UNL     1      27.886  -5.741  44.928  1.00  0.00     0.025 C 
BRANCH  11  12
HETATM   12  C7  UNL     1      27.917  -7.131  45.501  1.00  0.00     0.122 C 
BRANCH  12  13
HETATM   13  N1  UNL     1      28.830  -7.307  46.566  1.00  0.00    -0.394 N 
BRANCH  13  14
HETATM   14  C4  UNL     1      29.698  -6.215  46.774  1.00  0.00     0.122 C 
BRANCH  14  15
HETATM   15  C3  UNL     1      31.161  -6.618  46.585  1.00  0.00     0.019 C 
BRANCH  15  16
HETATM   16  C2  UNL     1      31.635  -6.219  45.187  1.00  0.00    -0.003 C 
HETATM   17  C1  UNL     1      31.497  -4.726  45.002  1.00  0.00     0.005 C 
ENDBRANCH  15  16
ENDBRANCH  14  15
ENDBRANCH  13  14
BRANCH  13  18
HETATM   18  C5  UNL     1      29.262  -8.597  46.900  1.00  0.00     0.054 C 
HETATM   19  C6  UNL     1      28.278  -9.707  46.879  1.00  0.00     0.054 C 
ENDBRANCH  13  18
ENDBRANCH  12  13
ENDBRANCH  11  12
ENDBRANCH  10  11
ENDBRANCH   9  10
ENDBRANCH   1   9
BRANCH   4  20
HETATM   20  C12 UNL     1      29.009  -9.210  39.098  1.00  0.00     0.147 C 
BRANCH  20  21
HETATM   21  C13 UNL     1      28.759  -8.308  37.904  1.00  0.00     0.123 C 
BRANCH  21  22
HETATM   22  C14 UNL     1      27.548  -8.685  37.151  1.00  0.00     0.225 C 
HETATM   23  O1  UNL     1      27.302  -9.908  36.957  1.00  0.00    -0.273 OA
HETATM   24  N4  UNL     1      26.636  -7.736  36.627  1.00  0.00    -0.301 N 
HETATM   25  C15 UNL     1      25.889  -7.076  37.429  1.00  0.00     0.197 C 
ATOM     26  H4  UNL     1      26.575  -7.581  35.621  1.00  0.00     0.171 HD
HETATM   27  N5  UNL     1      25.960  -7.277  38.822  1.00  0.00    -0.063 NA
HETATM   28  N6  UNL     1      24.960  -6.103  36.948  1.00  0.00    -0.307 N 
HETATM   29  C16 UNL     1      23.830  -5.872  37.509  1.00  0.00     0.203 C 
ATOM     30  H6  UNL     1      25.207  -5.567  36.117  1.00  0.00     0.170 HD
HETATM   31  N7  UNL     1      22.969  -4.894  36.969  1.00  0.00    -0.066 NA
HETATM   32  N8  UNL     1      23.481  -6.622  38.669  1.00  0.00    -0.066 NA
ENDBRANCH  21  22
ENDBRANCH  20  21
ENDBRANCH   4  20
TORSDOF 12
ENDMDL
MODEL 2
REMARK VINA RESULT: -7.609848116      5.441      7.594
REMARK  12 active torsions:
REMARK  status: ('A' for Active; 'I' for Inactive)
REMARK    1  A    between atoms: C2_2  and  C3_3 
REMARK    2  A    between atoms: C3_3  and  C4_4 
REMARK    3  A    between atoms: C4_4  and  N1_5 
REMARK    4  A    between atoms: N1_5  and  C5_6 
REMARK    5  A    between atoms: N1_5  and  C7_8 
REMARK    6  A    between atoms: C7_8  and  C8_9 
REMARK    7  A    between atoms: C8_9  and  C9_10 
REMARK    8  A    between atoms: C9_10  and  C10_11 
REMARK    9  A    between atoms: C10_11  and  N2_12 
REMARK       I    between atoms: N2_12  and  C11_14 
REMARK       I    between atoms: C11_14  and  N3_15 
REMARK       I    between atoms: C11_14  and  N9_30 
REMARK   10  A    between atoms: N3_15  and  C12_17 
REMARK   11  A    between atoms: C12_17  and  C13_18 
REMARK   12  A    between atoms: C13_18  and  C14_19 
REMARK       I    between atoms: C14_19  and  N4_21 
REMARK       I    between atoms: C15_23  and  N6_25 
ROOT
HETATM    1  N2  UNL     1      28.555  -6.248  45.702  1.00  0.00    -0.206 N 
ATOM      2  H2  UNL     1      27.815  -5.811  46.253  1.00  0.00     0.183 HD
HETATM    3  C11 UNL     1      28.367  -5.779  44.602  1.00  0.00     0.674 C 
HETATM    4  N3  UNL     1      27.287  -4.841  44.373  1.00  0.00    -0.226 N 
ATOM      5  H3  UNL     1      26.353  -5.065  44.718  1.00  0.00     0.177 HD
HETATM    6  N9  UNL     1      29.148  -6.103  43.467  1.00  0.00    -0.227 N 
HETATM    7  C17 UNL     1      29.012  -7.382  42.848  1.00  0.00     0.168 C 
HETATM    8  C18 UNL     1      30.078  -5.139  42.933  1.00  0.00     0.168 C 
ENDROOT
BRANCH   1   9
HETATM    9  C10 UNL     1      29.183  -7.019  46.623  1.00  0.00     0.079 C 
BRANCH   9  10
HETATM   10  C9  UNL     1      30.145  -8.094  46.164  1.00  0.00     0.046 C 
BRANCH  10  11
HETATM   11  C8  UNL     1      29.502  -9.417  45.880  1.00  0.00     0.025 C 
BRANCH  11  12
HETATM   12  C7  UNL     1      28.407  -9.618  46.891  1.00  0.00     0.122 C 
BRANCH  12  13
HETATM   13  N1  UNL     1      27.134  -9.879  46.336  1.00  0.00    -0.394 N 
BRANCH  13  14
HETATM   14  C4  UNL     1      26.368 -10.820  47.057  1.00  0.00     0.122 C 
BRANCH  14  15
HETATM   15  C3  UNL     1      27.245 -11.668  47.977  1.00  0.00     0.019 C 
BRANCH  15  16
HETATM   16  C2  UNL     1      27.161 -13.139  47.567  1.00  0.00    -0.003 C 
HETATM   17  C1  UNL     1      28.271 -13.468  46.596  1.00  0.00     0.005 C 
ENDBRANCH  15  16
ENDBRANCH  14  15
ENDBRANCH  13  14
BRANCH  13  18
HETATM   18  C5  UNL     1      26.945  -9.758  44.953  1.00  0.00     0.054 C 
HETATM   19  C6  UNL     1      26.832 -10.991  44.137  1.00  0.00     0.054 C 
ENDBRANCH  13  18
ENDBRANCH  12  13
ENDBRANCH  11  12
ENDBRANCH  10  11
ENDBRANCH   9  10
ENDBRANCH   1   9
BRANCH   4  20
HETATM   20  C12 UNL     1      27.498  -3.610  43.676  1.00  0.00     0.147 C 
BRANCH  20  21
HETATM   21  C13 UNL     1      28.090  -2.584  44.624  1.00  0.00     0.123 C 
BRANCH  21  22
HETATM   22  C14 UNL     1      27.102  -1.584  45.069  1.00  0.00     0.225 C 
HETATM   23  O1  UNL     1      26.685  -1.622  46.260  1.00  0.00    -0.273 OA
HETATM   24  N4  UNL     1      26.590  -0.571  44.222  1.00  0.00    -0.301 N 
HETATM   25  C15 UNL     1      27.353   0.393  43.866  1.00  0.00     0.197 C 
ATOM     26  H4  UNL     1      25.624  -0.608  43.899  1.00  0.00     0.171 HD
HETATM   27  N5  UNL     1      28.691   0.461  44.302  1.00  0.00    -0.063 NA
HETATM   28  N6  UNL     1      26.884   1.433  43.006  1.00  0.00    -0.307 N 
HETATM   29  C16 UNL     1      27.285   2.649  43.090  1.00  0.00     0.203 C 
ATOM     30  H6  UNL     1      26.197   1.198  42.291  1.00  0.00     0.170 HD
HETATM   31  N7  UNL     1      26.769   3.616  42.202  1.00  0.00    -0.066 NA
HETATM   32  N8  UNL     1      28.243   2.982  44.090  1.00  0.00    -0.066 NA
ENDBRANCH  21  22
ENDBRANCH  20  21
ENDBRANCH   4  20
TORSDOF 12
ENDMDL
MODEL 3
REMARK VINA RESULT: -7.556821686      4.395      6.467
REMARK  12 active torsions:
REMARK  status: ('A' for Active; 'I' for Inactive)
REMARK    1  A    between atoms: C2_2  and  C3_3 
REMARK    2  A    between atoms: C3_3  and  C4_4 
REMARK    3  A    between atoms: C4_4  and  N1_5 
REMARK    4  A    between atoms: N1_5  and  C5_6 
REMARK    5  A    between atoms: N1_5  and  C7_8 
REMARK    6  A    between atoms: C7_8  and  C8_9 
REMARK    7  A    between atoms: C8_9  and  C9_10 
REMARK    8  A    between atoms: C9_10  and  C10_11 
REMARK    9  A    between atoms: C10_11  and  N2_12 
REMARK       I    between atoms: N2_12  and  C11_14 
REMARK       I    between atoms: C11_14  and  N3_15 
REMARK       I    between atoms: C11_14  and  N9_30 
REMARK   10  A    between atoms: N3_15  and  C12_17 
REMARK   11  A    between atoms: C12_17  and  C13_18 
REMARK   12  A    between atoms: C13_18  and  C14_19 
REMARK       I    between atoms: C14_19  and  N4_21 
REMARK       I    between atoms: C15_23  and  N6_25 
ROOT
HETATM    1  N2  UNL     1      27.711  -7.798  41.648  1.00  0.00    -0.206 N 
ATOM      2  H2  UNL     1      27.748  -7.806  42.667  1.00  0.00     0.183 HD
HETATM    3  C11 UNL     1      27.178  -6.735  41.419  1.00  0.00     0.674 C 
HETATM    4  N3  UNL     1      26.782  -5.859  42.502  1.00  0.00    -0.226 N 
ATOM      5  H3  UNL     1      26.255  -6.243  43.286  1.00  0.00     0.177 HD
HETATM    6  N9  UNL     1      26.886  -6.269  40.115  1.00  0.00    -0.227 N 
HETATM    7  C17 UNL     1      25.825  -6.862  39.365  1.00  0.00     0.168 C 
HETATM    8  C18 UNL     1      27.657  -5.192  39.545  1.00  0.00     0.168 C 
ENDROOT
BRANCH   1   9
HETATM    9  C10 UNL     1      28.286  -8.983  41.329  1.00  0.00     0.079 C 
BRANCH   9  10
HETATM   10  C9  UNL     1      29.348  -9.566  42.238  1.00  0.00     0.046 C 
BRANCH  10  11
HETATM   11  C8  UNL     1      29.776  -8.656  43.348  1.00  0.00     0.025 C 
BRANCH  11  12
HETATM   12  C7  UNL     1      29.159  -9.166  44.620  1.00  0.00     0.122 C 
BRANCH  12  13
HETATM   13  N1  UNL     1      27.960  -8.517  44.993  1.00  0.00    -0.394 N 
BRANCH  13  14
HETATM   14  C4  UNL     1      28.126  -7.500  45.957  1.00  0.00     0.122 C 
BRANCH  14  15
HETATM   15  C3  UNL     1      29.116  -7.917  47.045  1.00  0.00     0.019 C 
BRANCH  15  16
HETATM   16  C2  UNL     1      29.978  -6.721  47.452  1.00  0.00    -0.003 C 
HETATM   17  C1  UNL     1      31.174  -6.612  46.536  1.00  0.00     0.005 C 
ENDBRANCH  15  16
ENDBRANCH  14  15
ENDBRANCH  13  14
BRANCH  13  18
HETATM   18  C5  UNL     1      26.749  -9.219  44.941  1.00  0.00     0.054 C 
HETATM   19  C6  UNL     1      26.781 -10.682  44.700  1.00  0.00     0.054 C 
ENDBRANCH  13  18
ENDBRANCH  12  13
ENDBRANCH  11  12
ENDBRANCH  10  11
ENDBRANCH   9  10
ENDBRANCH   1   9
BRANCH   4  20
HETATM   20  C12 UNL     1      27.112  -4.466  42.499  1.00  0.00     0.147 C 
BRANCH  20  21
HETATM   21  C13 UNL     1      28.283  -4.219  43.431  1.00  0.00     0.123 C 
BRANCH  21  22
HETATM   22  C14 UNL     1      27.867  -3.658  44.730  1.00  0.00     0.225 C 
HETATM   23  O1  UNL     1      28.336  -4.155  45.792  1.00  0.00    -0.273 OA
HETATM   24  N4  UNL     1      26.959  -2.578  44.852  1.00  0.00    -0.301 N 
HETATM   25  C15 UNL     1      27.331  -1.404  44.503  1.00  0.00     0.197 C 
ATOM     26  H4  UNL     1      26.018  -2.734  45.213  1.00  0.00     0.171 HD
HETATM   27  N5  UNL     1      28.626  -1.170  44.001  1.00  0.00    -0.063 NA
HETATM   28  N6  UNL     1      26.447  -0.286  44.600  1.00  0.00    -0.307 N 
HETATM   29  C16 UNL     1      26.844   0.903  44.873  1.00  0.00     0.203 C 
ATOM     30  H6  UNL     1      25.451  -0.440  44.444  1.00  0.00     0.170 HD
HETATM   31  N7  UNL     1      25.905   1.952  44.952  1.00  0.00    -0.066 NA
HETATM   32  N8  UNL     1      28.235   1.121  45.095  1.00  0.00    -0.066 NA
ENDBRANCH  21  22
ENDBRANCH  20  21
ENDBRANCH   4  20
TORSDOF 12
ENDMDL
MODEL 4
REMARK VINA RESULT: -7.526188175      5.329      7.070
REMARK  12 active torsions:
REMARK  status: ('A' for Active; 'I' for Inactive)
REMARK    1  A    between atoms: C2_2  and  C3_3 
REMARK    2  A    between atoms: C3_3  and  C4_4 
REMARK    3  A    between atoms: C4_4  and  N1_5 
REMARK    4  A    between atoms: N1_5  and  C5_6 
REMARK    5  A    between atoms: N1_5  and  C7_8 
REMARK    6  A    between atoms: C7_8  and  C8_9 
REMARK    7  A    between atoms: C8_9  and  C9_10 
REMARK    8  A    between atoms: C9_10  and  C10_11 
REMARK    9  A    between atoms: C10_11  and  N2_12 
REMARK       I    between atoms: N2_12  and  C11_14 
REMARK       I    between atoms: C11_14  and  N3_15 
REMARK       I    between atoms: C11_14  and  N9_30 
REMARK   10  A    between atoms: N3_15  and  C12_17 
REMARK   11  A    between atoms: C12_17  and  C13_18 
REMARK   12  A    between atoms: C13_18  and  C14_19 
REMARK       I    between atoms: C14_19  and  N4_21 
REMARK       I    between atoms: C15_23  and  N6_25 
ROOT
HETATM    1  N2  UNL     1      26.901  -6.938  44.690  1.00  0.00    -0.206 N 
ATOM      2  H2  UNL     1      26.525  -6.495  45.528  1.00  0.00     0.183 HD
HETATM    3  C11 UNL     1      27.500  -6.026  44.165  1.00  0.00     0.674 C 
HETATM    4  N3  UNL     1      27.530  -4.713  44.775  1.00  0.00    -0.226 N 
ATOM      5  H3  UNL     1      26.658  -4.293  45.096  1.00  0.00     0.177 HD
HETATM    6  N9  UNL     1      28.192  -6.146  42.936  1.00  0.00    -0.227 N 
HETATM    7  C17 UNL     1      27.464  -6.255  41.713  1.00  0.00     0.168 C 
HETATM    8  C18 UNL     1      29.634  -6.156  42.919  1.00  0.00     0.168 C 
ENDROOT
BRANCH   1   9
HETATM    9  C10 UNL     1      26.443  -8.209  44.804  1.00  0.00     0.079 C 
BRANCH   9  10
HETATM   10  C9  UNL     1      27.185  -9.333  44.114  1.00  0.00     0.046 C 
BRANCH  10  11
HETATM   11  C8  UNL     1      27.056 -10.664  44.790  1.00  0.00     0.025 C 
BRANCH  11  12
HETATM   12  C7  UNL     1      26.555 -10.419  46.186  1.00  0.00     0.122 C 
BRANCH  12  13
HETATM   13  N1  UNL     1      27.450 -10.810  47.209  1.00  0.00    -0.394 N 
BRANCH  13  14
HETATM   14  C4  UNL     1      28.807 -10.546  46.926  1.00  0.00     0.122 C 
BRANCH  14  15
HETATM   15  C3  UNL     1      29.163  -9.086  47.208  1.00  0.00     0.019 C 
BRANCH  15  16
HETATM   16  C2  UNL     1      30.104  -8.560  46.123  1.00  0.00    -0.003 C 
HETATM   17  C1  UNL     1      30.433  -7.109  46.385  1.00  0.00     0.005 C 
ENDBRANCH  15  16
ENDBRANCH  14  15
ENDBRANCH  13  14
BRANCH  13  18
HETATM   18  C5  UNL     1      27.122 -11.890  48.039  1.00  0.00     0.054 C 
HETATM   19  C6  UNL     1      27.361 -13.268  47.545  1.00  0.00     0.054 C 
ENDBRANCH  13  18
ENDBRANCH  12  13
ENDBRANCH  11  12
ENDBRANCH  10  11
ENDBRANCH   9  10
ENDBRANCH   1   9
BRANCH   4  20
HETATM   20  C12 UNL     1      28.754  -3.991  44.941  1.00  0.00     0.147 C 
BRANCH  20  21
HETATM   21  C13 UNL     1      28.650  -2.648  44.243  1.00  0.00     0.123 C 
BRANCH  21  22
HETATM   22  C14 UNL     1      27.618  -1.777  44.836  1.00  0.00     0.225 C 
HETATM   23  O1  UNL     1      27.326  -1.916  46.057  1.00  0.00    -0.273 OA
HETATM   24  N4  UNL     1      26.929  -0.781  44.102  1.00  0.00    -0.301 N 
HETATM   25  C15 UNL     1      27.556   0.272  43.733  1.00  0.00     0.197 C 
ATOM     26  H4  UNL     1      25.943  -0.902  43.869  1.00  0.00     0.171 HD
HETATM   27  N5  UNL     1      28.917   0.455  44.045  1.00  0.00    -0.063 NA
HETATM   28  N6  UNL     1      26.905   1.299  42.984  1.00  0.00    -0.307 N 
HETATM   29  C16 UNL     1      27.192   2.544  43.100  1.00  0.00     0.203 C 
ATOM     30  H6  UNL     1      26.176   1.030  42.323  1.00  0.00     0.170 HD
HETATM   31  N7  UNL     1      26.499   3.496  42.323  1.00  0.00    -0.066 NA
HETATM   32  N8  UNL     1      28.207   2.924  44.025  1.00  0.00    -0.066 NA
ENDBRANCH  21  22
ENDBRANCH  20  21
ENDBRANCH   4  20
TORSDOF 12
ENDMDL
MODEL 5
REMARK VINA RESULT: -7.494033304      3.810      9.003
REMARK  12 active torsions:
REMARK  status: ('A' for Active; 'I' for Inactive)
REMARK    1  A    between atoms: C2_2  and  C3_3 
REMARK    2  A    between atoms: C3_3  and  C4_4 
REMARK    3  A    between atoms: C4_4  and  N1_5 
REMARK    4  A    between atoms: N1_5  and  C5_6 
REMARK    5  A    between atoms: N1_5  and  C7_8 
REMARK    6  A    between atoms: C7_8  and  C8_9 
REMARK    7  A    between atoms: C8_9  and  C9_10 
REMARK    8  A    between atoms: C9_10  and  C10_11 
REMARK    9  A    between atoms: C10_11  and  N2_12 
REMARK       I    between atoms: N2_12  and  C11_14 
REMARK       I    between atoms: C11_14  and  N3_15 
REMARK       I    between atoms: C11_14  and  N9_30 
REMARK   10  A    between atoms: N3_15  and  C12_17 
REMARK   11  A    between atoms: C12_17  and  C13_18 
REMARK   12  A    between atoms: C13_18  and  C14_19 
REMARK       I    between atoms: C14_19  and  N4_21 
REMARK       I    between atoms: C15_23  and  N6_25 
ROOT
HETATM    1  N2  UNL     1      30.209  -6.621  42.000  1.00  0.00    -0.206 N 
ATOM      2  H2  UNL     1      30.869  -7.374  42.194  1.00  0.00     0.183 HD
HETATM    3  C11 UNL     1      29.938  -6.225  43.112  1.00  0.00     0.674 C 
HETATM    4  N3  UNL     1      30.540  -6.834  44.280  1.00  0.00    -0.226 N 
ATOM      5  H3  UNL     1      30.541  -7.851  44.366  1.00  0.00     0.177 HD
HETATM    6  N9  UNL     1      29.027  -5.173  43.370  1.00  0.00    -0.227 N 
HETATM    7  C17 UNL     1      27.625  -5.385  43.201  1.00  0.00     0.168 C 
HETATM    8  C18 UNL     1      29.513  -3.888  43.808  1.00  0.00     0.168 C 
ENDROOT
BRANCH   1   9
HETATM    9  C10 UNL     1      30.139  -6.639  40.647  1.00  0.00     0.079 C 
BRANCH   9  10
HETATM   10  C9  UNL     1      31.231  -5.978  39.835  1.00  0.00     0.046 C 
BRANCH  10  11
HETATM   11  C8  UNL     1      30.757  -5.347  38.561  1.00  0.00     0.025 C 
BRANCH  11  12
HETATM   12  C7  UNL     1      29.430  -5.961  38.214  1.00  0.00     0.122 C 
BRANCH  12  13
HETATM   13  N1  UNL     1      28.606  -5.157  37.394  1.00  0.00    -0.394 N 
BRANCH  13  14
HETATM   14  C4  UNL     1      29.292  -4.491  36.356  1.00  0.00     0.122 C 
BRANCH  14  15
HETATM   15  C3  UNL     1      28.341  -3.649  35.506  1.00  0.00     0.019 C 
BRANCH  15  16
HETATM   16  C2  UNL     1      28.976  -2.291  35.203  1.00  0.00    -0.003 C 
HETATM   17  C1  UNL     1      28.235  -1.616  34.073  1.00  0.00     0.005 C 
ENDBRANCH  15  16
ENDBRANCH  14  15
ENDBRANCH  13  14
BRANCH  13  18
HETATM   18  C5  UNL     1      27.451  -4.575  37.933  1.00  0.00     0.054 C 
HETATM   19  C6  UNL     1      27.138  -4.804  39.365  1.00  0.00     0.054 C 
ENDBRANCH  13  18
ENDBRANCH  12  13
ENDBRANCH  11  12
ENDBRANCH  10  11
ENDBRANCH   9  10
ENDBRANCH   1   9
BRANCH   4  20
HETATM   20  C12 UNL     1      31.131  -6.045  45.317  1.00  0.00     0.147 C 
BRANCH  20  21
HETATM   21  C13 UNL     1      30.891  -6.709  46.661  1.00  0.00     0.123 C 
BRANCH  21  22
HETATM   22  C14 UNL     1      29.474  -7.057  46.878  1.00  0.00     0.225 C 
HETATM   23  O1  UNL     1      28.579  -6.271  46.459  1.00  0.00    -0.273 OA
HETATM   24  N4  UNL     1      29.060  -8.239  47.538  1.00  0.00    -0.301 N 
HETATM   25  C15 UNL     1      29.211  -9.368  46.956  1.00  0.00     0.197 C 
ATOM     26  H4  UNL     1      28.644  -8.191  48.468  1.00  0.00     0.171 HD
HETATM   27  N5  UNL     1      29.784  -9.453  45.671  1.00  0.00    -0.063 NA
HETATM   28  N6  UNL     1      28.816 -10.588  47.585  1.00  0.00    -0.307 N 
HETATM   29  C16 UNL     1      28.360 -11.597  46.939  1.00  0.00     0.203 C 
ATOM     30  H6  UNL     1      28.900 -10.660  48.599  1.00  0.00     0.170 HD
HETATM   31  N7  UNL     1      27.990 -12.766  47.639  1.00  0.00    -0.066 NA
HETATM   32  N8  UNL     1      28.237 -11.500  45.523  1.00  0.00    -0.066 NA
ENDBRANCH  21  22
ENDBRANCH  20  21
ENDBRANCH   4  20
TORSDOF 12
ENDMDL
