MODEL 1
REMARK VINA RESULT: -11.655552984      0.000      0.000
REMARK  12 active torsions:
REMARK  status: ('A' for Active; 'I' for Inactive)
REMARK    1  A    between atoms: C9_12  and  C10_13 
REMARK    2  A    between atoms: C10_13  and  C11_15 
REMARK       I    between atoms: C11_15  and  N3_17 
REMARK    3  A    between atoms: N3_17  and  C12_19 
REMARK    4  A    between atoms: C12_19  and  C13_20 
REMARK    5  A    between atoms: C12_19  and  C16_27 
REMARK    6  A    between atoms: C13_20  and  C14_21 
REMARK    7  A    between atoms: C14_21  and  C15_22 
REMARK    8  A    between atoms: C15_22  and  N4_23 
REMARK       I    between atoms: C16_27  and  N5_29 
REMARK    9  A    between atoms: N5_29  and  C17_31 
REMARK   10  A    between atoms: C20_34  and  C21_35 
REMARK   11  A    between atoms: C21_35  and  C22_36 
REMARK   12  A    between atoms: N6_37  and  C23_39 
ROOT
HETATM    1  C12 UNL     1      27.324  -1.250  23.882  1.00  0.00     0.080 C 
ENDROOT
BRANCH   1   2
HETATM    2  N3  UNL     1      26.542  -1.499  22.767  1.00  0.00    -0.321 N 
HETATM    3  C11 UNL     1      26.267  -0.891  21.533  1.00  0.00     0.268 C 
HETATM    4  O1  UNL     1      26.869   0.127  21.173  1.00  0.00    -0.266 OA
ATOM      5  H3  UNL     1      26.018  -2.368  22.873  1.00  0.00     0.169 HD
BRANCH   3   6
HETATM    6  C10 UNL     1      25.227  -1.512  20.711  1.00  0.00     0.122 C 
HETATM    7  N2  UNL     1      23.881  -1.384  21.079  1.00  0.00    -0.099 NA
BRANCH   6   8
HETATM    8  C9  UNL     1      25.622  -2.782  19.996  1.00  0.00     0.239 C 
HETATM    9  N1  UNL     1      26.171  -2.404  18.694  1.00  0.00    -0.057 N 
HETATM   10  C7  UNL     1      26.483  -3.621  17.936  1.00  0.00     0.127 C 
ATOM     11  H12 UNL     1      26.975  -1.781  18.778  1.00  0.00     0.279 HD
ATOM     12  H11 UNL     1      25.555  -1.773  18.181  1.00  0.00     0.279 HD
HETATM   13  C6  UNL     1      27.375  -3.225  16.781  1.00  0.00     0.039 C 
HETATM   14  C8  UNL     1      27.204  -4.570  18.800  1.00  0.00     0.046 C 
HETATM   15  C37 UNL     1      25.160  -4.056  17.382  1.00  0.00     0.029 C 
HETATM   16  C5  UNL     1      27.004  -3.926  15.508  1.00  0.00     0.003 C 
HETATM   17  C4  UNL     1      26.463  -5.309  15.721  1.00  0.00     0.009 C 
HETATM   18  C2  UNL     1      25.242  -5.350  16.613  1.00  0.00    -0.042 C 
HETATM   19  C1  UNL     1      25.217  -6.564  17.494  1.00  0.00     0.015 C 
HETATM   20  C3  UNL     1      24.024  -5.410  15.710  1.00  0.00     0.015 C 
HETATM   21  C36 UNL     1      24.052  -3.954  18.367  1.00  0.00     0.010 C 
HETATM   22  C35 UNL     1      24.393  -3.655  19.782  1.00  0.00     0.040 C 
ENDBRANCH   6   8
ENDBRANCH   3   6
ENDBRANCH   1   2
BRANCH   1  23
HETATM   23  C13 UNL     1      28.359  -2.354  24.117  1.00  0.00     0.064 C 
BRANCH  23  24
HETATM   24  C14 UNL     1      27.727  -3.706  24.123  1.00  0.00     0.033 C 
BRANCH  24  25
HETATM   25  C15 UNL     1      27.822  -4.419  25.468  1.00  0.00     0.230 C 
BRANCH  25  26
HETATM   26  N4  UNL     1      26.716  -3.866  26.258  1.00  0.00    -0.079 N 
ATOM     27  H43 UNL     1      26.376  -2.965  25.922  1.00  0.00     0.274 HD
ATOM     28  H42 UNL     1      25.836  -4.369  26.149  1.00  0.00     0.274 HD
ATOM     29  H41 UNL     1      27.068  -3.848  27.215  1.00  0.00     0.274 HD
ENDBRANCH  25  26
ENDBRANCH  24  25
ENDBRANCH  23  24
ENDBRANCH   1  23
BRANCH   1  30
HETATM   30  C16 UNL     1      27.777   0.086  24.188  1.00  0.00     0.264 C 
HETATM   31  O2  UNL     1      28.958   0.387  24.399  1.00  0.00    -0.266 OA
HETATM   32  N5  UNL     1      26.816   1.183  24.259  1.00  0.00    -0.351 N 
ATOM     33  H5  UNL     1      25.820   0.990  24.154  1.00  0.00     0.163 HD
BRANCH  32  34
HETATM   34  C17 UNL     1      27.268   2.552  24.481  1.00  0.00     0.084 C 
HETATM   35  C18 UNL     1      26.240   3.375  25.229  1.00  0.00     0.025 C 
HETATM   36  C19 UNL     1      25.660   4.482  24.476  1.00  0.00     0.007 C 
HETATM   37  C20 UNL     1      26.500   5.303  23.552  1.00  0.00    -0.010 C 
HETATM   38  C33 UNL     1      27.815   4.616  23.250  1.00  0.00     0.007 C 
HETATM   39  C34 UNL     1      27.546   3.127  23.110  1.00  0.00     0.025 C 
BRANCH  37  40
HETATM   40  C21 UNL     1      26.706   6.677  24.214  1.00  0.00     0.049 C 
BRANCH  40  41
HETATM   41  C22 UNL     1      27.626   6.646  25.343  1.00  0.00     0.056 C 
HETATM   42  N6  UNL     1      28.751   7.396  25.423  1.00  0.00    -0.393 N 
ATOM     43  H6  UNL     1      28.755   8.034  26.218  1.00  0.00     0.159 HD
BRANCH  42  44
HETATM   44  C23 UNL     1      29.887   7.476  24.656  1.00  0.00     0.030 C 
HETATM   45  C24 UNL     1      30.601   6.110  24.666  1.00  0.00     0.035 C 
HETATM   46  C25 UNL     1      31.743   6.047  23.702  1.00  0.00    -0.012 C 
HETATM   47  C26 UNL     1      32.771   7.052  24.202  1.00  0.00     0.009 C 
HETATM   48  C30 UNL     1      31.304   6.363  22.315  1.00  0.00     0.009 C 
HETATM   49  C27 UNL     1      32.116   8.393  24.190  1.00  0.00    -0.012 C 
HETATM   50  C28 UNL     1      31.731   8.728  22.761  1.00  0.00     0.009 C 
HETATM   51  C32 UNL     1      30.913   8.519  25.102  1.00  0.00     0.035 C 
HETATM   52  C29 UNL     1      30.694   7.752  22.301  1.00  0.00    -0.012 C 
HETATM   53  C31 UNL     1      29.530   7.815  23.231  1.00  0.00     0.035 C 
ENDBRANCH  42  44
ENDBRANCH  40  41
ENDBRANCH  37  40
ENDBRANCH  32  34
ENDBRANCH   1  30
TORSDOF 12
ENDMDL
MODEL 2
REMARK VINA RESULT: -11.571157028      2.025     11.550
REMARK  12 active torsions:
REMARK  status: ('A' for Active; 'I' for Inactive)
REMARK    1  A    between atoms: C9_12  and  C10_13 
REMARK    2  A    between atoms: C10_13  and  C11_15 
REMARK       I    between atoms: C11_15  and  N3_17 
REMARK    3  A    between atoms: N3_17  and  C12_19 
REMARK    4  A    between atoms: C12_19  and  C13_20 
REMARK    5  A    between atoms: C12_19  and  C16_27 
REMARK    6  A    between atoms: C13_20  and  C14_21 
REMARK    7  A    between atoms: C14_21  and  C15_22 
REMARK    8  A    between atoms: C15_22  and  N4_23 
REMARK       I    between atoms: C16_27  and  N5_29 
REMARK    9  A    between atoms: N5_29  and  C17_31 
REMARK   10  A    between atoms: C20_34  and  C21_35 
REMARK   11  A    between atoms: C21_35  and  C22_36 
REMARK   12  A    between atoms: N6_37  and  C23_39 
ROOT
HETATM    1  C12 UNL     1      27.531   2.793  23.763  1.00  0.00     0.080 C 
ENDROOT
BRANCH   1   2
HETATM    2  N3  UNL     1      28.735   3.400  23.449  1.00  0.00    -0.321 N 
HETATM    3  C11 UNL     1      29.730   4.138  24.109  1.00  0.00     0.268 C 
HETATM    4  O1  UNL     1      29.689   4.320  25.331  1.00  0.00    -0.266 OA
ATOM      5  H3  UNL     1      28.962   3.278  22.462  1.00  0.00     0.169 HD
BRANCH   3   6
HETATM    6  C10 UNL     1      30.801   4.688  23.276  1.00  0.00     0.122 C 
HETATM    7  N2  UNL     1      32.115   4.229  23.439  1.00  0.00    -0.099 NA
BRANCH   6   8
HETATM    8  C9  UNL     1      30.629   6.124  22.842  1.00  0.00     0.239 C 
HETATM    9  N1  UNL     1      30.174   6.886  24.005  1.00  0.00    -0.057 N 
HETATM   10  C7  UNL     1      29.912   8.270  23.597  1.00  0.00     0.127 C 
ATOM     11  H12 UNL     1      30.827   6.829  24.786  1.00  0.00     0.279 HD
ATOM     12  H11 UNL     1      29.369   6.456  24.461  1.00  0.00     0.279 HD
HETATM   13  C6  UNL     1      29.811   9.108  24.851  1.00  0.00     0.039 C 
HETATM   14  C8  UNL     1      31.030   8.763  22.775  1.00  0.00     0.046 C 
HETATM   15  C37 UNL     1      28.557   8.212  22.958  1.00  0.00     0.029 C 
HETATM   16  C5  UNL     1      28.692  10.105  24.783  1.00  0.00     0.003 C 
HETATM   17  C4  UNL     1      28.437  10.624  23.399  1.00  0.00     0.009 C 
HETATM   18  C2  UNL     1      28.115   9.539  22.396  1.00  0.00    -0.042 C 
HETATM   19  C1  UNL     1      28.688   9.826  21.038  1.00  0.00     0.015 C 
HETATM   20  C3  UNL     1      26.605   9.484  22.257  1.00  0.00     0.015 C 
HETATM   21  C36 UNL     1      28.380   7.037  22.067  1.00  0.00     0.010 C 
HETATM   22  C35 UNL     1      29.573   6.209  21.749  1.00  0.00     0.040 C 
ENDBRANCH   6   8
ENDBRANCH   3   6
ENDBRANCH   1   2
BRANCH   1  23
HETATM   23  C13 UNL     1      26.401   3.810  23.935  1.00  0.00     0.064 C 
BRANCH  23  24
HETATM   24  C14 UNL     1      25.777   3.714  25.287  1.00  0.00     0.033 C 
BRANCH  24  25
HETATM   25  C15 UNL     1      26.493   4.539  26.351  1.00  0.00     0.230 C 
BRANCH  25  26
HETATM   26  N4  UNL     1      26.907   5.761  25.654  1.00  0.00    -0.079 N 
ATOM     27  H43 UNL     1      26.369   5.962  24.811  1.00  0.00     0.274 HD
ATOM     28  H42 UNL     1      26.672   6.622  26.147  1.00  0.00     0.274 HD
ATOM     29  H41 UNL     1      27.906   5.637  25.489  1.00  0.00     0.274 HD
ENDBRANCH  25  26
ENDBRANCH  24  25
ENDBRANCH  23  24
ENDBRANCH   1  23
BRANCH   1  30
HETATM   30  C16 UNL     1      27.144   1.549  23.141  1.00  0.00     0.264 C 
HETATM   31  O2  UNL     1      26.478   1.470  22.103  1.00  0.00    -0.266 OA
HETATM   32  N5  UNL     1      27.546   0.279  23.739  1.00  0.00    -0.351 N 
ATOM     33  H5  UNL     1      28.046   0.274  24.628  1.00  0.00     0.163 HD
BRANCH  32  34
HETATM   34  C17 UNL     1      27.238  -0.984  23.077  1.00  0.00     0.084 C 
HETATM   35  C18 UNL     1      26.375  -1.882  23.939  1.00  0.00     0.025 C 
HETATM   36  C19 UNL     1      27.006  -3.124  24.372  1.00  0.00     0.007 C 
HETATM   37  C20 UNL     1      27.902  -3.889  23.452  1.00  0.00    -0.010 C 
HETATM   38  C33 UNL     1      28.324  -3.044  22.268  1.00  0.00     0.007 C 
HETATM   39  C34 UNL     1      28.570  -1.629  22.766  1.00  0.00     0.025 C 
BRANCH  37  40
HETATM   40  C21 UNL     1      27.142  -5.155  23.015  1.00  0.00     0.049 C 
BRANCH  40  41
HETATM   41  C22 UNL     1      25.701  -4.964  22.926  1.00  0.00     0.056 C 
HETATM   42  N6  UNL     1      24.983  -5.146  21.791  1.00  0.00    -0.393 N 
ATOM     43  H6  UNL     1      24.270  -5.870  21.875  1.00  0.00     0.159 HD
BRANCH  42  44
HETATM   44  C23 UNL     1      25.015  -4.558  20.550  1.00  0.00     0.030 C 
HETATM   45  C24 UNL     1      24.967  -3.026  20.716  1.00  0.00     0.035 C 
HETATM   46  C25 UNL     1      25.192  -2.297  19.429  1.00  0.00    -0.012 C 
HETATM   47  C26 UNL     1      24.015  -2.651  18.533  1.00  0.00     0.009 C 
HETATM   48  C30 UNL     1      26.487  -2.684  18.804  1.00  0.00     0.009 C 
HETATM   49  C27 UNL     1      24.040  -4.131  18.338  1.00  0.00    -0.012 C 
HETATM   50  C28 UNL     1      25.337  -4.502  17.643  1.00  0.00     0.009 C 
HETATM   51  C32 UNL     1      23.874  -4.941  19.608  1.00  0.00     0.035 C 
HETATM   52  C29 UNL     1      26.480  -4.180  18.554  1.00  0.00    -0.012 C 
HETATM   53  C31 UNL     1      26.294  -4.918  19.837  1.00  0.00     0.035 C 
ENDBRANCH  42  44
ENDBRANCH  40  41
ENDBRANCH  37  40
ENDBRANCH  32  34
ENDBRANCH   1  30
TORSDOF 12
ENDMDL
MODEL 3
REMARK VINA RESULT: -11.312450486      2.826     12.612
REMARK  12 active torsions:
REMARK  status: ('A' for Active; 'I' for Inactive)
REMARK    1  A    between atoms: C9_12  and  C10_13 
REMARK    2  A    between atoms: C10_13  and  C11_15 
REMARK       I    between atoms: C11_15  and  N3_17 
REMARK    3  A    between atoms: N3_17  and  C12_19 
REMARK    4  A    between atoms: C12_19  and  C13_20 
REMARK    5  A    between atoms: C12_19  and  C16_27 
REMARK    6  A    between atoms: C13_20  and  C14_21 
REMARK    7  A    between atoms: C14_21  and  C15_22 
REMARK    8  A    between atoms: C15_22  and  N4_23 
REMARK       I    between atoms: C16_27  and  N5_29 
REMARK    9  A    between atoms: N5_29  and  C17_31 
REMARK   10  A    between atoms: C20_34  and  C21_35 
REMARK   11  A    between atoms: C21_35  and  C22_36 
REMARK   12  A    between atoms: N6_37  and  C23_39 
ROOT
HETATM    1  C12 UNL     1      27.475   2.865  23.724  1.00  0.00     0.080 C 
ENDROOT
BRANCH   1   2
HETATM    2  N3  UNL     1      28.687   3.457  23.413  1.00  0.00    -0.321 N 
HETATM    3  C11 UNL     1      29.702   4.160  24.080  1.00  0.00     0.268 C 
HETATM    4  O1  UNL     1      29.675   4.313  25.306  1.00  0.00    -0.266 OA
ATOM      5  H3  UNL     1      28.902   3.355  22.421  1.00  0.00     0.169 HD
BRANCH   3   6
HETATM    6  C10 UNL     1      30.775   4.710  23.250  1.00  0.00     0.122 C 
HETATM    7  N2  UNL     1      32.087   4.246  23.411  1.00  0.00    -0.099 NA
BRANCH   6   8
HETATM    8  C9  UNL     1      30.607   6.149  22.823  1.00  0.00     0.239 C 
HETATM    9  N1  UNL     1      30.158   6.907  23.990  1.00  0.00    -0.057 N 
HETATM   10  C7  UNL     1      29.900   8.295  23.588  1.00  0.00     0.127 C 
ATOM     11  H12 UNL     1      30.812   6.844  24.770  1.00  0.00     0.279 HD
ATOM     12  H11 UNL     1      29.352   6.478  24.445  1.00  0.00     0.279 HD
HETATM   13  C6  UNL     1      29.805   9.127  24.846  1.00  0.00     0.039 C 
HETATM   14  C8  UNL     1      31.019   8.787  22.766  1.00  0.00     0.046 C 
HETATM   15  C37 UNL     1      28.544   8.245  22.951  1.00  0.00     0.029 C 
HETATM   16  C5  UNL     1      28.691  10.129  24.784  1.00  0.00     0.003 C 
HETATM   17  C4  UNL     1      28.435  10.655  23.403  1.00  0.00     0.009 C 
HETATM   18  C2  UNL     1      28.107   9.576  22.396  1.00  0.00    -0.042 C 
HETATM   19  C1  UNL     1      28.678   9.867  21.038  1.00  0.00     0.015 C 
HETATM   20  C3  UNL     1      26.596   9.528  22.259  1.00  0.00     0.015 C 
HETATM   21  C36 UNL     1      28.361   7.074  22.055  1.00  0.00     0.010 C 
HETATM   22  C35 UNL     1      29.550   6.243  21.732  1.00  0.00     0.040 C 
ENDBRANCH   6   8
ENDBRANCH   3   6
ENDBRANCH   1   2
BRANCH   1  23
HETATM   23  C13 UNL     1      26.376   3.900  23.977  1.00  0.00     0.064 C 
BRANCH  23  24
HETATM   24  C14 UNL     1      25.823   3.786  25.359  1.00  0.00     0.033 C 
BRANCH  24  25
HETATM   25  C15 UNL     1      26.509   4.700  26.369  1.00  0.00     0.230 C 
BRANCH  25  26
HETATM   26  N4  UNL     1      26.938   5.862  25.584  1.00  0.00    -0.079 N 
ATOM     27  H43 UNL     1      26.812   5.754  24.578  1.00  0.00     0.274 HD
ATOM     28  H42 UNL     1      26.336   6.679  25.688  1.00  0.00     0.274 HD
ATOM     29  H41 UNL     1      27.905   6.021  25.868  1.00  0.00     0.274 HD
ENDBRANCH  25  26
ENDBRANCH  24  25
ENDBRANCH  23  24
ENDBRANCH   1  23
BRANCH   1  30
HETATM   30  C16 UNL     1      27.040   1.666  23.047  1.00  0.00     0.264 C 
HETATM   31  O2  UNL     1      26.246   1.654  22.099  1.00  0.00    -0.266 OA
HETATM   32  N5  UNL     1      27.545   0.364  23.472  1.00  0.00    -0.351 N 
ATOM     33  H5  UNL     1      28.157   0.301  24.286  1.00  0.00     0.163 HD
BRANCH  32  34
HETATM   34  C17 UNL     1      27.184  -0.847  22.744  1.00  0.00     0.084 C 
HETATM   35  C18 UNL     1      26.054  -1.599  23.417  1.00  0.00     0.025 C 
HETATM   36  C19 UNL     1      26.407  -2.915  23.938  1.00  0.00     0.007 C 
HETATM   37  C20 UNL     1      27.336  -3.813  23.187  1.00  0.00    -0.010 C 
HETATM   38  C33 UNL     1      28.088  -3.052  22.115  1.00  0.00     0.007 C 
HETATM   39  C34 UNL     1      28.442  -1.683  22.673  1.00  0.00     0.025 C 
BRANCH  37  40
HETATM   40  C21 UNL     1      26.493  -4.959  22.597  1.00  0.00     0.049 C 
BRANCH  40  41
HETATM   41  C22 UNL     1      25.650  -4.544  21.483  1.00  0.00     0.056 C 
HETATM   42  N6  UNL     1      24.389  -4.996  21.280  1.00  0.00    -0.393 N 
ATOM     43  H6  UNL     1      23.688  -4.256  21.295  1.00  0.00     0.159 HD
BRANCH  42  44
HETATM   44  C23 UNL     1      23.858  -6.243  21.059  1.00  0.00     0.030 C 
HETATM   45  C24 UNL     1      23.295  -6.794  22.384  1.00  0.00     0.035 C 
HETATM   46  C25 UNL     1      22.524  -8.064  22.201  1.00  0.00    -0.012 C 
HETATM   47  C26 UNL     1      23.529  -9.100  21.718  1.00  0.00     0.009 C 
HETATM   48  C30 UNL     1      21.412  -7.890  21.227  1.00  0.00     0.009 C 
HETATM   49  C27 UNL     1      24.084  -8.604  20.425  1.00  0.00    -0.012 C 
HETATM   50  C28 UNL     1      22.949  -8.492  19.425  1.00  0.00     0.009 C 
HETATM   51  C32 UNL     1      24.833  -7.290  20.518  1.00  0.00     0.035 C 
HETATM   52  C29 UNL     1      21.991  -7.444  19.898  1.00  0.00    -0.012 C 
HETATM   53  C31 UNL     1      22.730  -6.158  20.062  1.00  0.00     0.035 C 
ENDBRANCH  42  44
ENDBRANCH  40  41
ENDBRANCH  37  40
ENDBRANCH  32  34
ENDBRANCH   1  30
TORSDOF 12
ENDMDL
MODEL 4
REMARK VINA RESULT: -11.266394949      2.708     12.329
REMARK  12 active torsions:
REMARK  status: ('A' for Active; 'I' for Inactive)
REMARK    1  A    between atoms: C9_12  and  C10_13 
REMARK    2  A    between atoms: C10_13  and  C11_15 
REMARK       I    between atoms: C11_15  and  N3_17 
REMARK    3  A    between atoms: N3_17  and  C12_19 
REMARK    4  A    between atoms: C12_19  and  C13_20 
REMARK    5  A    between atoms: C12_19  and  C16_27 
REMARK    6  A    between atoms: C13_20  and  C14_21 
REMARK    7  A    between atoms: C14_21  and  C15_22 
REMARK    8  A    between atoms: C15_22  and  N4_23 
REMARK       I    between atoms: C16_27  and  N5_29 
REMARK    9  A    between atoms: N5_29  and  C17_31 
REMARK   10  A    between atoms: C20_34  and  C21_35 
REMARK   11  A    between atoms: C21_35  and  C22_36 
REMARK   12  A    between atoms: N6_37  and  C23_39 
ROOT
HETATM    1  C12 UNL     1      27.299  -0.244  22.627  1.00  0.00     0.080 C 
ENDROOT
BRANCH   1   2
HETATM    2  N3  UNL     1      27.117   0.916  23.361  1.00  0.00    -0.321 N 
HETATM    3  C11 UNL     1      27.304   2.296  23.188  1.00  0.00     0.268 C 
HETATM    4  O1  UNL     1      27.666   2.762  22.102  1.00  0.00    -0.266 OA
ATOM      5  H3  UNL     1      26.742   0.710  24.287  1.00  0.00     0.169 HD
BRANCH   3   6
HETATM    6  C10 UNL     1      27.064   3.144  24.357  1.00  0.00     0.122 C 
HETATM    7  N2  UNL     1      25.789   3.186  24.937  1.00  0.00    -0.099 NA
BRANCH   6   8
HETATM    8  C9  UNL     1      27.894   4.402  24.441  1.00  0.00     0.239 C 
HETATM    9  N1  UNL     1      27.502   5.266  23.328  1.00  0.00    -0.057 N 
HETATM   10  C7  UNL     1      28.352   6.462  23.329  1.00  0.00     0.127 C 
ATOM     11  H12 UNL     1      26.509   5.496  23.346  1.00  0.00     0.279 HD
ATOM     12  H11 UNL     1      27.519   4.777  22.433  1.00  0.00     0.279 HD
HETATM   13  C6  UNL     1      27.701   7.488  22.429  1.00  0.00     0.039 C 
HETATM   14  C8  UNL     1      28.442   7.004  24.695  1.00  0.00     0.046 C 
HETATM   15  C37 UNL     1      29.625   6.006  22.681  1.00  0.00     0.029 C 
HETATM   16  C5  UNL     1      28.697   8.204  21.566  1.00  0.00     0.003 C 
HETATM   17  C4  UNL     1      30.037   8.381  22.218  1.00  0.00     0.009 C 
HETATM   18  C2  UNL     1      30.681   7.080  22.640  1.00  0.00    -0.042 C 
HETATM   19  C1  UNL     1      31.442   7.209  23.928  1.00  0.00     0.015 C 
HETATM   20  C3  UNL     1      31.671   6.692  21.557  1.00  0.00     0.015 C 
HETATM   21  C36 UNL     1      30.073   4.669  23.148  1.00  0.00     0.010 C 
HETATM   22  C35 UNL     1      29.370   4.056  24.306  1.00  0.00     0.040 C 
ENDBRANCH   6   8
ENDBRANCH   3   6
ENDBRANCH   1   2
BRANCH   1  23
HETATM   23  C13 UNL     1      28.206  -1.244  23.349  1.00  0.00     0.064 C 
BRANCH  23  24
HETATM   24  C14 UNL     1      27.910  -1.297  24.811  1.00  0.00     0.033 C 
BRANCH  24  25
HETATM   25  C15 UNL     1      27.100  -2.520  25.227  1.00  0.00     0.230 C 
BRANCH  25  26
HETATM   26  N4  UNL     1      26.720  -2.256  26.618  1.00  0.00    -0.079 N 
ATOM     27  H43 UNL     1      25.902  -2.779  26.932  1.00  0.00     0.274 HD
ATOM     28  H42 UNL     1      27.369  -2.637  27.306  1.00  0.00     0.274 HD
ATOM     29  H41 UNL     1      26.610  -1.243  26.667  1.00  0.00     0.274 HD
ENDBRANCH  25  26
ENDBRANCH  24  25
ENDBRANCH  23  24
ENDBRANCH   1  23
BRANCH   1  30
HETATM   30  C16 UNL     1      26.209  -0.831  21.886  1.00  0.00     0.264 C 
HETATM   31  O2  UNL     1      25.084  -0.327  21.790  1.00  0.00    -0.266 OA
HETATM   32  N5  UNL     1      26.402  -2.098  21.186  1.00  0.00    -0.351 N 
ATOM     33  H5  UNL     1      27.289  -2.594  21.274  1.00  0.00     0.163 HD
BRANCH  32  34
HETATM   34  C17 UNL     1      25.338  -2.660  20.361  1.00  0.00     0.084 C 
HETATM   35  C18 UNL     1      25.222  -4.161  20.529  1.00  0.00     0.025 C 
HETATM   36  C19 UNL     1      25.537  -4.947  19.341  1.00  0.00     0.007 C 
HETATM   37  C20 UNL     1      25.123  -4.482  17.983  1.00  0.00    -0.010 C 
HETATM   38  C33 UNL     1      24.725  -3.021  18.001  1.00  0.00     0.007 C 
HETATM   39  C34 UNL     1      25.674  -2.287  18.934  1.00  0.00     0.025 C 
BRANCH  37  40
HETATM   40  C21 UNL     1      23.969  -5.388  17.517  1.00  0.00     0.049 C 
BRANCH  40  41
HETATM   41  C22 UNL     1      24.296  -6.807  17.551  1.00  0.00     0.056 C 
HETATM   42  N6  UNL     1      23.531  -7.745  18.161  1.00  0.00    -0.393 N 
ATOM     43  H6  UNL     1      23.185  -8.461  17.522  1.00  0.00     0.159 HD
BRANCH  42  44
HETATM   44  C23 UNL     1      23.124  -7.932  19.458  1.00  0.00     0.030 C 
HETATM   45  C24 UNL     1      24.365  -8.043  20.365  1.00  0.00     0.035 C 
HETATM   46  C25 UNL     1      24.020  -8.055  21.821  1.00  0.00    -0.012 C 
HETATM   47  C26 UNL     1      23.224  -9.331  22.054  1.00  0.00     0.009 C 
HETATM   48  C30 UNL     1      23.236  -6.848  22.204  1.00  0.00     0.009 C 
HETATM   49  C27 UNL     1      22.002  -9.249  21.200  1.00  0.00    -0.012 C 
HETATM   50  C28 UNL     1      21.184  -8.052  21.644  1.00  0.00     0.009 C 
HETATM   51  C32 UNL     1      22.273  -9.178  19.711  1.00  0.00     0.035 C 
HETATM   52  C29 UNL     1      21.967  -6.805  21.374  1.00  0.00    -0.012 C 
HETATM   53  C31 UNL     1      22.302  -6.755  19.921  1.00  0.00     0.035 C 
ENDBRANCH  42  44
ENDBRANCH  40  41
ENDBRANCH  37  40
ENDBRANCH  32  34
ENDBRANCH   1  30
TORSDOF 12
ENDMDL
MODEL 5
REMARK VINA RESULT: -11.232176332      2.366      3.730
REMARK  12 active torsions:
REMARK  status: ('A' for Active; 'I' for Inactive)
REMARK    1  A    between atoms: C9_12  and  C10_13 
REMARK    2  A    between atoms: C10_13  and  C11_15 
REMARK       I    between atoms: C11_15  and  N3_17 
REMARK    3  A    between atoms: N3_17  and  C12_19 
REMARK    4  A    between atoms: C12_19  and  C13_20 
REMARK    5  A    between atoms: C12_19  and  C16_27 
REMARK    6  A    between atoms: C13_20  and  C14_21 
REMARK    7  A    between atoms: C14_21  and  C15_22 
REMARK    8  A    between atoms: C15_22  and  N4_23 
REMARK       I    between atoms: C16_27  and  N5_29 
REMARK    9  A    between atoms: N5_29  and  C17_31 
REMARK   10  A    between atoms: C20_34  and  C21_35 
REMARK   11  A    between atoms: C21_35  and  C22_36 
REMARK   12  A    between atoms: N6_37  and  C23_39 
ROOT
HETATM    1  C12 UNL     1      26.668  -1.042  21.967  1.00  0.00     0.080 C 
ENDROOT
BRANCH   1   2
HETATM    2  N3  UNL     1      26.176  -1.720  20.864  1.00  0.00    -0.321 N 
HETATM    3  C11 UNL     1      24.929  -2.123  20.363  1.00  0.00     0.268 C 
HETATM    4  O1  UNL     1      23.877  -1.797  20.924  1.00  0.00    -0.266 OA
ATOM      5  H3  UNL     1      26.932  -2.006  20.241  1.00  0.00     0.169 HD
BRANCH   3   6
HETATM    6  C10 UNL     1      24.943  -2.959  19.161  1.00  0.00     0.122 C 
HETATM    7  N2  UNL     1      24.395  -2.470  17.967  1.00  0.00    -0.099 NA
BRANCH   6   8
HETATM    8  C9  UNL     1      24.857  -4.449  19.391  1.00  0.00     0.239 C 
HETATM    9  N1  UNL     1      23.481  -4.759  19.775  1.00  0.00    -0.057 N 
HETATM   10  C7  UNL     1      23.384  -6.188  20.092  1.00  0.00     0.127 C 
ATOM     11  H12 UNL     1      22.806  -4.471  19.066  1.00  0.00     0.279 HD
ATOM     12  H11 UNL     1      23.148  -4.168  20.537  1.00  0.00     0.279 HD
HETATM   13  C6  UNL     1      21.917  -6.553  20.117  1.00  0.00     0.039 C 
HETATM   14  C8  UNL     1      24.059  -6.973  19.045  1.00  0.00     0.046 C 
HETATM   15  C37 UNL     1      23.920  -6.290  21.487  1.00  0.00     0.029 C 
HETATM   16  C5  UNL     1      21.577  -7.469  21.256  1.00  0.00     0.003 C 
HETATM   17  C4  UNL     1      22.688  -8.409  21.620  1.00  0.00     0.009 C 
HETATM   18  C2  UNL     1      23.975  -7.709  21.993  1.00  0.00    -0.042 C 
HETATM   19  C1  UNL     1      25.190  -8.456  21.525  1.00  0.00     0.015 C 
HETATM   20  C3  UNL     1      24.031  -7.641  23.508  1.00  0.00     0.015 C 
HETATM   21  C36 UNL     1      25.141  -5.473  21.706  1.00  0.00     0.010 C 
HETATM   22  C35 UNL     1      25.792  -4.850  20.524  1.00  0.00     0.040 C 
ENDBRANCH   6   8
ENDBRANCH   3   6
ENDBRANCH   1   2
BRANCH   1  23
HETATM   23  C13 UNL     1      28.133  -1.388  22.248  1.00  0.00     0.064 C 
BRANCH  23  24
HETATM   24  C14 UNL     1      28.264  -2.318  23.407  1.00  0.00     0.033 C 
BRANCH  24  25
HETATM   25  C15 UNL     1      28.496  -1.609  24.737  1.00  0.00     0.230 C 
BRANCH  25  26
HETATM   26  N4  UNL     1      27.204  -1.684  25.427  1.00  0.00    -0.079 N 
ATOM     27  H43 UNL     1      26.783  -0.776  25.620  1.00  0.00     0.274 HD
ATOM     28  H42 UNL     1      26.445  -2.042  24.849  1.00  0.00     0.274 HD
ATOM     29  H41 UNL     1      27.390  -2.242  26.260  1.00  0.00     0.274 HD
ENDBRANCH  25  26
ENDBRANCH  24  25
ENDBRANCH  23  24
ENDBRANCH   1  23
BRANCH   1  30
HETATM   30  C16 UNL     1      26.306   0.333  22.215  1.00  0.00     0.264 C 
HETATM   31  O2  UNL     1      25.204   0.821  21.938  1.00  0.00    -0.266 OA
HETATM   32  N5  UNL     1      27.269   1.240  22.834  1.00  0.00    -0.351 N 
ATOM     33  H5  UNL     1      28.215   0.914  23.032  1.00  0.00     0.163 HD
BRANCH  32  34
HETATM   34  C17 UNL     1      26.889   2.608  23.171  1.00  0.00     0.084 C 
HETATM   35  C18 UNL     1      28.097   3.498  23.377  1.00  0.00     0.025 C 
HETATM   36  C19 UNL     1      28.272   4.006  24.733  1.00  0.00     0.007 C 
HETATM   37  C20 UNL     1      27.094   4.428  25.551  1.00  0.00    -0.010 C 
HETATM   38  C33 UNL     1      25.800   3.914  24.954  1.00  0.00     0.007 C 
HETATM   39  C34 UNL     1      26.051   2.511  24.426  1.00  0.00     0.025 C 
BRANCH  37  40
HETATM   40  C21 UNL     1      27.119   5.965  25.637  1.00  0.00     0.049 C 
BRANCH  40  41
HETATM   41  C22 UNL     1      28.433   6.507  25.954  1.00  0.00     0.056 C 
HETATM   42  N6  UNL     1      29.029   7.503  25.256  1.00  0.00    -0.393 N 
ATOM     43  H6  UNL     1      29.222   8.331  25.818  1.00  0.00     0.159 HD
BRANCH  42  44
HETATM   44  C23 UNL     1      29.428   7.629  23.948  1.00  0.00     0.030 C 
HETATM   45  C24 UNL     1      29.925   9.069  23.709  1.00  0.00     0.035 C 
HETATM   46  C25 UNL     1      30.560   9.247  22.365  1.00  0.00    -0.012 C 
HETATM   47  C26 UNL     1      29.455   9.017  21.345  1.00  0.00     0.009 C 
HETATM   48  C30 UNL     1      31.689   8.297  22.167  1.00  0.00     0.009 C 
HETATM   49  C27 UNL     1      28.960   7.622  21.538  1.00  0.00    -0.012 C 
HETATM   50  C28 UNL     1      30.106   6.664  21.271  1.00  0.00     0.009 C 
HETATM   51  C32 UNL     1      28.352   7.348  22.898  1.00  0.00     0.035 C 
HETATM   52  C29 UNL     1      31.165   6.880  22.306  1.00  0.00    -0.012 C 
HETATM   53  C31 UNL     1      30.564   6.681  23.657  1.00  0.00     0.035 C 
ENDBRANCH  42  44
ENDBRANCH  40  41
ENDBRANCH  37  40
ENDBRANCH  32  34
ENDBRANCH   1  30
TORSDOF 12
ENDMDL
