MODEL 1
REMARK VINA RESULT: -9.840789042      0.000      0.000
REMARK  15 active torsions:
REMARK  status: ('A' for Active; 'I' for Inactive)
REMARK       I    between atoms: N1_5  and  C5_6 
REMARK    1  A    between atoms: C5_6  and  C6_8 
REMARK    2  A    between atoms: C6_8  and  C7_9 
REMARK    3  A    between atoms: C6_8  and  N2_13 
REMARK    4  A    between atoms: C7_9  and  C8_10 
REMARK    5  A    between atoms: N2_13  and  C11_15 
REMARK    6  A    between atoms: C11_15  and  C12_16 
REMARK    7  A    between atoms: C11_15  and  C15_19 
REMARK    8  A    between atoms: C15_19  and  N3_20 
REMARK       I    between atoms: N3_20  and  C16_22 
REMARK    9  A    between atoms: C16_22  and  C17_24 
REMARK   10  A    between atoms: C17_24  and  N4_25 
REMARK   11  A    between atoms: C17_24  and  C18_29 
REMARK   12  A    between atoms: C18_29  and  C19_30 
REMARK   13  A    between atoms: C27_41  and  C28_42 
REMARK   14  A    between atoms: C28_42  and  O3_43 
REMARK   15  A    between atoms: C28_42  and  C29_45 
ROOT
HETATM    1  C15 UNL     1      27.565   5.281  24.178  1.00  0.00     0.103 C 
HETATM    2  C25 UNL     1      26.662   6.144  23.424  1.00  0.00     0.067 C 
HETATM    3  C26 UNL     1      26.472   7.475  24.108  1.00  0.00     0.236 C 
HETATM    4  N5  UNL     1      27.031   7.276  25.364  1.00  0.00    -0.066 N 
ATOM      5  H51 UNL     1      26.410   7.601  26.106  1.00  0.00     0.277 HD
ATOM      6  H52 UNL     1      27.815   7.906  25.529  1.00  0.00     0.277 HD
HETATM    7  C27 UNL     1      27.417   5.871  25.561  1.00  0.00     0.248 C 
ENDROOT
BRANCH   1   8
HETATM    8  C11 UNL     1      29.075   5.334  23.899  1.00  0.00     0.017 C 
BRANCH   8   9
HETATM    9  N2  UNL     1      29.502   6.580  23.426  1.00  0.00    -0.381 N 
ATOM     10  H2  UNL     1      29.340   7.269  24.160  1.00  0.00     0.160 HD
BRANCH   9  11
HETATM   11  C6  UNL     1      30.035   7.201  22.391  1.00  0.00     0.174 C 
BRANCH  11  12
HETATM   12  C5  UNL     1      29.258   8.095  21.480  1.00  0.00     0.242 C 
HETATM   13  N1  UNL     1      28.709   9.347  21.850  1.00  0.00    -0.347 N 
HETATM   14  C4  UNL     1      28.821   9.966  23.156  1.00  0.00     0.153 C 
HETATM   15  C35 UNL     1      27.966  10.090  20.858  1.00  0.00     0.130 C 
HETATM   16  C3  UNL     1      28.834  11.459  23.094  1.00  0.00    -0.005 C 
HETATM   17  C2  UNL     1      27.954  12.028  22.288  1.00  0.00    -0.084 C 
HETATM   18  C1  UNL     1      27.903  13.492  22.174  1.00  0.00     0.043 C 
HETATM   19  C36 UNL     1      27.064  11.099  21.537  1.00  0.00     0.053 C 
HETATM   20  O1  UNL     1      29.026   7.806  20.279  1.00  0.00    -0.271 OA
ENDBRANCH  11  12
BRANCH  11  21
HETATM   21  C7  UNL     1      31.221   8.067  22.845  1.00  0.00     0.038 C 
BRANCH  21  22
HETATM   22  C8  UNL     1      31.651   8.115  24.204  1.00  0.00    -0.020 C 
HETATM   23  C9  UNL     1      33.059   8.786  24.185  1.00  0.00     0.009 C 
HETATM   24  C10 UNL     1      30.974   8.639  25.367  1.00  0.00     0.009 C 
ENDBRANCH  21  22
ENDBRANCH  11  21
ENDBRANCH   9  11
ENDBRANCH   8   9
BRANCH   8  25
HETATM   25  C12 UNL     1      30.056   4.518  24.607  1.00  0.00     0.025 C 
HETATM   26  C13 UNL     1      30.692   4.994  25.889  1.00  0.00     0.016 C 
HETATM   27  C14 UNL     1      31.285   4.120  23.775  1.00  0.00     0.016 C 
ENDBRANCH   8  25
ENDBRANCH   1   8
BRANCH   1  28
HETATM   28  N3  UNL     1      27.090   3.914  24.062  1.00  0.00    -0.343 N 
HETATM   29  C16 UNL     1      27.239   2.913  23.103  1.00  0.00     0.249 C 
HETATM   30  O2  UNL     1      27.848   2.872  22.019  1.00  0.00    -0.271 OA
ATOM     31  H3  UNL     1      26.522   3.621  24.857  1.00  0.00     0.163 HD
BRANCH  29  32
HETATM   32  C17 UNL     1      26.569   1.549  23.305  1.00  0.00     0.275 C 
BRANCH  32  33
HETATM   33  N4  UNL     1      25.348   1.648  24.012  1.00  0.00    -0.066 N 
ATOM     34  H43 UNL     1      25.447   2.242  24.835  1.00  0.00     0.275 HD
ATOM     35  H42 UNL     1      24.666   2.201  23.493  1.00  0.00     0.275 HD
ATOM     36  H41 UNL     1      24.968   0.734  24.260  1.00  0.00     0.275 HD
ENDBRANCH  32  33
BRANCH  32  37
HETATM   37  C18 UNL     1      27.493   0.584  23.998  1.00  0.00     0.047 C 
BRANCH  37  38
HETATM   38  C19 UNL     1      27.478  -0.723  23.283  1.00  0.00    -0.012 C 
HETATM   39  C20 UNL     1      28.781  -1.439  23.204  1.00  0.00     0.005 C 
HETATM   40  C21 UNL     1      29.229  -2.033  24.503  1.00  0.00     0.000 C 
HETATM   41  C22 UNL     1      28.156  -2.961  25.042  1.00  0.00     0.000 C 
HETATM   42  C23 UNL     1      26.874  -2.185  25.215  1.00  0.00     0.000 C 
HETATM   43  C24 UNL     1      26.456  -1.688  23.845  1.00  0.00     0.005 C 
ENDBRANCH  37  38
ENDBRANCH  32  37
ENDBRANCH  29  32
ENDBRANCH   1  28
BRANCH   7  44
HETATM   44  C28 UNL     1      26.570   5.242  26.569  1.00  0.00     0.155 C 
BRANCH  44  45
HETATM   45  O3  UNL     1      26.940   3.918  26.784  1.00  0.00    -0.393 OA
ATOM     46  H3  UNL     1      26.202   3.398  27.080  1.00  0.00     0.210 HD
ENDBRANCH  44  45
BRANCH  44  47
HETATM   47  C29 UNL     1      26.874   5.901  27.917  1.00  0.00     0.016 C 
HETATM   48  C30 UNL     1      25.965   5.490  29.017  1.00  0.00     0.007 C 
HETATM   49  C31 UNL     1      26.088   6.572  30.105  1.00  0.00     0.000 C 
HETATM   50  C32 UNL     1      27.530   6.777  30.511  1.00  0.00     0.000 C 
HETATM   51  C33 UNL     1      28.421   7.097  29.317  1.00  0.00     0.000 C 
HETATM   52  C34 UNL     1      28.295   5.918  28.323  1.00  0.00     0.007 C 
ENDBRANCH  44  47
ENDBRANCH   7  44
TORSDOF 15
ENDMDL
MODEL 2
REMARK VINA RESULT: -9.784691136      2.984      8.357
REMARK  15 active torsions:
REMARK  status: ('A' for Active; 'I' for Inactive)
REMARK       I    between atoms: N1_5  and  C5_6 
REMARK    1  A    between atoms: C5_6  and  C6_8 
REMARK    2  A    between atoms: C6_8  and  C7_9 
REMARK    3  A    between atoms: C6_8  and  N2_13 
REMARK    4  A    between atoms: C7_9  and  C8_10 
REMARK    5  A    between atoms: N2_13  and  C11_15 
REMARK    6  A    between atoms: C11_15  and  C12_16 
REMARK    7  A    between atoms: C11_15  and  C15_19 
REMARK    8  A    between atoms: C15_19  and  N3_20 
REMARK       I    between atoms: N3_20  and  C16_22 
REMARK    9  A    between atoms: C16_22  and  C17_24 
REMARK   10  A    between atoms: C17_24  and  N4_25 
REMARK   11  A    between atoms: C17_24  and  C18_29 
REMARK   12  A    between atoms: C18_29  and  C19_30 
REMARK   13  A    between atoms: C27_41  and  C28_42 
REMARK   14  A    between atoms: C28_42  and  O3_43 
REMARK   15  A    between atoms: C28_42  and  C29_45 
ROOT
HETATM    1  C15 UNL     1      28.391   5.963  25.061  1.00  0.00     0.103 C 
HETATM    2  C25 UNL     1      28.411   5.408  23.712  1.00  0.00     0.067 C 
HETATM    3  C26 UNL     1      29.249   4.155  23.645  1.00  0.00     0.236 C 
HETATM    4  N5  UNL     1      29.920   4.148  24.862  1.00  0.00    -0.066 N 
ATOM      5  H51 UNL     1      30.918   3.977  24.738  1.00  0.00     0.277 HD
ATOM      6  H52 UNL     1      29.688   3.322  25.412  1.00  0.00     0.277 HD
HETATM    7  C27 UNL     1      29.673   5.386  25.615  1.00  0.00     0.248 C 
ENDROOT
BRANCH   1   8
HETATM    8  C11 UNL     1      27.308   5.511  26.053  1.00  0.00     0.017 C 
BRANCH   8   9
HETATM    9  N2  UNL     1      27.108   6.421  27.097  1.00  0.00    -0.381 N 
ATOM     10  H2  UNL     1      27.128   7.362  26.704  1.00  0.00     0.160 HD
BRANCH   9  11
HETATM   11  C6  UNL     1      26.903   6.524  28.397  1.00  0.00     0.174 C 
BRANCH  11  12
HETATM   12  C5  UNL     1      27.208   7.758  29.182  1.00  0.00     0.242 C 
HETATM   13  N1  UNL     1      28.409   8.503  29.083  1.00  0.00    -0.347 N 
HETATM   14  C4  UNL     1      29.520   8.202  28.202  1.00  0.00     0.153 C 
HETATM   15  C35 UNL     1      28.565   9.668  29.924  1.00  0.00     0.130 C 
HETATM   16  C3  UNL     1      30.257   9.422  27.755  1.00  0.00    -0.005 C 
HETATM   17  C2  UNL     1      30.517  10.331  28.680  1.00  0.00    -0.084 C 
HETATM   18  C1  UNL     1      31.240  11.558  28.319  1.00  0.00     0.043 C 
HETATM   19  C36 UNL     1      30.031  10.019  30.053  1.00  0.00     0.053 C 
HETATM   20  O1  UNL     1      26.405   8.251  30.014  1.00  0.00    -0.271 OA
ENDBRANCH  11  12
BRANCH  11  21
HETATM   21  C7  UNL     1      25.433   6.223  28.728  1.00  0.00     0.038 C 
BRANCH  21  22
HETATM   22  C8  UNL     1      25.054   5.181  29.626  1.00  0.00    -0.020 C 
HETATM   23  C9  UNL     1      26.382   4.639  30.238  1.00  0.00     0.009 C 
HETATM   24  C10 UNL     1      24.093   5.197  30.704  1.00  0.00     0.009 C 
ENDBRANCH  21  22
ENDBRANCH  11  21
ENDBRANCH   9  11
ENDBRANCH   8   9
BRANCH   8  25
HETATM   25  C12 UNL     1      26.182   4.658  25.687  1.00  0.00     0.025 C 
HETATM   26  C13 UNL     1      26.356   3.174  25.488  1.00  0.00     0.016 C 
HETATM   27  C14 UNL     1      25.456   5.067  24.396  1.00  0.00     0.016 C 
ENDBRANCH   8  25
ENDBRANCH   1   8
BRANCH   1  28
HETATM   28  N3  UNL     1      28.389   7.411  24.956  1.00  0.00    -0.343 N 
HETATM   29  C16 UNL     1      27.547   8.338  24.344  1.00  0.00     0.249 C 
HETATM   30  O2  UNL     1      26.500   8.215  23.683  1.00  0.00    -0.271 OA
ATOM     31  H3  UNL     1      29.177   7.846  25.436  1.00  0.00     0.163 HD
BRANCH  29  32
HETATM   32  C17 UNL     1      27.864   9.836  24.426  1.00  0.00     0.275 C 
BRANCH  32  33
HETATM   33  N4  UNL     1      27.503  10.395  25.675  1.00  0.00    -0.066 N 
ATOM     34  H43 UNL     1      27.332  11.397  25.594  1.00  0.00     0.275 HD
ATOM     35  H42 UNL     1      26.570  10.093  25.957  1.00  0.00     0.275 HD
ATOM     36  H41 UNL     1      28.190  10.196  26.402  1.00  0.00     0.275 HD
ENDBRANCH  32  33
BRANCH  32  37
HETATM   37  C18 UNL     1      27.203  10.596  23.308  1.00  0.00     0.047 C 
BRANCH  37  38
HETATM   38  C19 UNL     1      28.203  10.887  22.242  1.00  0.00    -0.012 C 
HETATM   39  C20 UNL     1      27.714  10.775  20.840  1.00  0.00     0.005 C 
HETATM   40  C21 UNL     1      26.793  11.879  20.426  1.00  0.00     0.000 C 
HETATM   41  C22 UNL     1      27.471  13.222  20.637  1.00  0.00     0.000 C 
HETATM   42  C23 UNL     1      27.859  13.355  22.088  1.00  0.00     0.000 C 
HETATM   43  C24 UNL     1      28.847  12.248  22.398  1.00  0.00     0.005 C 
ENDBRANCH  37  38
ENDBRANCH  32  37
ENDBRANCH  29  32
ENDBRANCH   1  28
BRANCH   7  44
HETATM   44  C28 UNL     1      30.891   6.184  25.703  1.00  0.00     0.155 C 
BRANCH  44  45
HETATM   45  O3  UNL     1      32.017   5.376  25.823  1.00  0.00    -0.393 OA
ATOM     46  H3  UNL     1      32.579   5.669  26.530  1.00  0.00     0.210 HD
ENDBRANCH  44  45
BRANCH  44  47
HETATM   47  C29 UNL     1      31.105   6.867  24.350  1.00  0.00     0.016 C 
HETATM   48  C30 UNL     1      31.417   8.316  24.438  1.00  0.00     0.007 C 
HETATM   49  C31 UNL     1      31.113   8.908  23.050  1.00  0.00     0.000 C 
HETATM   50  C32 UNL     1      31.851   8.161  21.963  1.00  0.00     0.000 C 
HETATM   51  C33 UNL     1      31.560   6.666  21.997  1.00  0.00     0.000 C 
HETATM   52  C34 UNL     1      31.976   6.149  23.395  1.00  0.00     0.007 C 
ENDBRANCH  44  47
ENDBRANCH   7  44
TORSDOF 15
ENDMDL
MODEL 3
REMARK VINA RESULT: -9.687783121      2.664      8.154
REMARK  15 active torsions:
REMARK  status: ('A' for Active; 'I' for Inactive)
REMARK       I    between atoms: N1_5  and  C5_6 
REMARK    1  A    between atoms: C5_6  and  C6_8 
REMARK    2  A    between atoms: C6_8  and  C7_9 
REMARK    3  A    between atoms: C6_8  and  N2_13 
REMARK    4  A    between atoms: C7_9  and  C8_10 
REMARK    5  A    between atoms: N2_13  and  C11_15 
REMARK    6  A    between atoms: C11_15  and  C12_16 
REMARK    7  A    between atoms: C11_15  and  C15_19 
REMARK    8  A    between atoms: C15_19  and  N3_20 
REMARK       I    between atoms: N3_20  and  C16_22 
REMARK    9  A    between atoms: C16_22  and  C17_24 
REMARK   10  A    between atoms: C17_24  and  N4_25 
REMARK   11  A    between atoms: C17_24  and  C18_29 
REMARK   12  A    between atoms: C18_29  and  C19_30 
REMARK   13  A    between atoms: C27_41  and  C28_42 
REMARK   14  A    between atoms: C28_42  and  O3_43 
REMARK   15  A    between atoms: C28_42  and  C29_45 
ROOT
HETATM    1  C15 UNL     1      30.035   8.187  23.708  1.00  0.00     0.103 C 
HETATM    2  C25 UNL     1      31.094   8.861  22.965  1.00  0.00     0.067 C 
HETATM    3  C26 UNL     1      32.406   8.810  23.708  1.00  0.00     0.236 C 
HETATM    4  N5  UNL     1      32.046   8.362  24.973  1.00  0.00    -0.066 N 
ATOM      5  H51 UNL     1      32.460   8.938  25.706  1.00  0.00     0.277 HD
ATOM      6  H52 UNL     1      32.496   7.476  25.198  1.00  0.00     0.277 HD
HETATM    7  C27 UNL     1      30.584   8.277  25.113  1.00  0.00     0.248 C 
ENDROOT
BRANCH   1   8
HETATM    8  C11 UNL     1      29.790   6.686  23.489  1.00  0.00     0.017 C 
BRANCH   8   9
HETATM    9  N2  UNL     1      28.473   6.301  23.763  1.00  0.00    -0.381 N 
ATOM     10  H2  UNL     1      27.903   6.518  22.945  1.00  0.00     0.160 HD
BRANCH   9  11
HETATM   11  C6  UNL     1      27.687   5.764  24.679  1.00  0.00     0.174 C 
BRANCH  11  12
HETATM   12  C5  UNL     1      27.082   6.542  25.801  1.00  0.00     0.242 C 
HETATM   13  N1  UNL     1      26.689   5.993  27.046  1.00  0.00    -0.347 N 
HETATM   14  C4  UNL     1      26.821   4.603  27.436  1.00  0.00     0.153 C 
HETATM   15  C35 UNL     1      26.099   6.874  28.029  1.00  0.00     0.130 C 
HETATM   16  C3  UNL     1      27.037   4.427  28.904  1.00  0.00    -0.005 C 
HETATM   17  C2  UNL     1      26.280   5.156  29.707  1.00  0.00    -0.084 C 
HETATM   18  C1  UNL     1      26.432   5.038  31.164  1.00  0.00     0.043 C 
HETATM   19  C36 UNL     1      25.310   6.067  29.038  1.00  0.00     0.053 C 
HETATM   20  O1  UNL     1      26.870   7.779  25.734  1.00  0.00    -0.271 OA
ENDBRANCH  11  12
BRANCH  11  21
HETATM   21  C7  UNL     1      26.488   5.074  24.010  1.00  0.00     0.038 C 
BRANCH  21  22
HETATM   22  C8  UNL     1      26.462   3.670  23.761  1.00  0.00    -0.020 C 
HETATM   23  C9  UNL     1      27.877   3.305  23.213  1.00  0.00     0.009 C 
HETATM   24  C10 UNL     1      26.080   2.585  24.635  1.00  0.00     0.009 C 
ENDBRANCH  21  22
ENDBRANCH  11  21
ENDBRANCH   9  11
ENDBRANCH   8   9
BRANCH   8  25
HETATM   25  C12 UNL     1      30.534   5.877  22.530  1.00  0.00     0.025 C 
HETATM   26  C13 UNL     1      31.903   5.336  22.857  1.00  0.00     0.016 C 
HETATM   27  C14 UNL     1      30.778   6.550  21.170  1.00  0.00     0.016 C 
ENDBRANCH   8  25
ENDBRANCH   1   8
BRANCH   1  28
HETATM   28  N3  UNL     1      28.799   8.923  23.506  1.00  0.00    -0.343 N 
HETATM   29  C16 UNL     1      27.835   8.941  22.501  1.00  0.00     0.249 C 
HETATM   30  O2  UNL     1      27.721   8.311  21.433  1.00  0.00    -0.271 OA
ATOM     31  H3  UNL     1      28.592   9.569  24.268  1.00  0.00     0.163 HD
BRANCH  29  32
HETATM   32  C17 UNL     1      26.627   9.880  22.610  1.00  0.00     0.275 C 
BRANCH  32  33
HETATM   33  N4  UNL     1      25.659   9.630  21.609  1.00  0.00    -0.066 N 
ATOM     34  H43 UNL     1      25.271   8.691  21.699  1.00  0.00     0.275 HD
ATOM     35  H42 UNL     1      24.812  10.173  21.774  1.00  0.00     0.275 HD
ATOM     36  H41 UNL     1      26.022   9.791  20.669  1.00  0.00     0.275 HD
ENDBRANCH  32  33
BRANCH  32  37
HETATM   37  C18 UNL     1      27.052  11.323  22.572  1.00  0.00     0.047 C 
BRANCH  37  38
HETATM   38  C19 UNL     1      27.880  11.568  21.357  1.00  0.00    -0.012 C 
HETATM   39  C20 UNL     1      27.151  12.082  20.164  1.00  0.00     0.005 C 
HETATM   40  C21 UNL     1      26.714  13.509  20.286  1.00  0.00     0.000 C 
HETATM   41  C22 UNL     1      27.914  14.391  20.586  1.00  0.00     0.000 C 
HETATM   42  C23 UNL     1      28.569  13.915  21.857  1.00  0.00     0.000 C 
HETATM   43  C24 UNL     1      29.046  12.496  21.619  1.00  0.00     0.005 C 
ENDBRANCH  37  38
ENDBRANCH  32  37
ENDBRANCH  29  32
ENDBRANCH   1  28
BRANCH   7  44
HETATM   44  C28 UNL     1      30.101   9.280  26.056  1.00  0.00     0.155 C 
BRANCH  44  45
HETATM   45  O3  UNL     1      28.798   9.667  25.756  1.00  0.00    -0.393 OA
ATOM     46  H3  UNL     1      28.756  10.590  25.533  1.00  0.00     0.210 HD
ENDBRANCH  44  45
BRANCH  44  47
HETATM   47  C29 UNL     1      29.947   8.606  27.422  1.00  0.00     0.016 C 
HETATM   48  C30 UNL     1      28.861   9.169  28.263  1.00  0.00     0.007 C 
HETATM   49  C31 UNL     1      29.169   8.741  29.709  1.00  0.00     0.000 C 
HETATM   50  C32 UNL     1      29.343   7.243  29.810  1.00  0.00     0.000 C 
HETATM   51  C33 UNL     1      30.404   6.724  28.847  1.00  0.00     0.000 C 
HETATM   52  C34 UNL     1      29.964   7.128  27.420  1.00  0.00     0.007 C 
ENDBRANCH  44  47
ENDBRANCH   7  44
TORSDOF 15
ENDMDL
MODEL 4
REMARK VINA RESULT: -9.628703790      3.242      8.681
REMARK  15 active torsions:
REMARK  status: ('A' for Active; 'I' for Inactive)
REMARK       I    between atoms: N1_5  and  C5_6 
REMARK    1  A    between atoms: C5_6  and  C6_8 
REMARK    2  A    between atoms: C6_8  and  C7_9 
REMARK    3  A    between atoms: C6_8  and  N2_13 
REMARK    4  A    between atoms: C7_9  and  C8_10 
REMARK    5  A    between atoms: N2_13  and  C11_15 
REMARK    6  A    between atoms: C11_15  and  C12_16 
REMARK    7  A    between atoms: C11_15  and  C15_19 
REMARK    8  A    between atoms: C15_19  and  N3_20 
REMARK       I    between atoms: N3_20  and  C16_22 
REMARK    9  A    between atoms: C16_22  and  C17_24 
REMARK   10  A    between atoms: C17_24  and  N4_25 
REMARK   11  A    between atoms: C17_24  and  C18_29 
REMARK   12  A    between atoms: C18_29  and  C19_30 
REMARK   13  A    between atoms: C27_41  and  C28_42 
REMARK   14  A    between atoms: C28_42  and  O3_43 
REMARK   15  A    between atoms: C28_42  and  C29_45 
ROOT
HETATM    1  C15 UNL     1      27.208   6.697  25.188  1.00  0.00     0.103 C 
HETATM    2  C25 UNL     1      25.977   6.054  25.636  1.00  0.00     0.067 C 
HETATM    3  C26 UNL     1      26.236   4.652  26.129  1.00  0.00     0.236 C 
HETATM    4  N5  UNL     1      27.537   4.397  25.712  1.00  0.00    -0.066 N 
ATOM      5  H51 UNL     1      27.611   3.492  25.247  1.00  0.00     0.277 HD
ATOM      6  H52 UNL     1      28.154   4.216  26.503  1.00  0.00     0.277 HD
HETATM    7  C27 UNL     1      28.050   5.484  24.865  1.00  0.00     0.248 C 
ENDROOT
BRANCH   1   8
HETATM    8  C11 UNL     1      28.056   7.496  26.189  1.00  0.00     0.017 C 
BRANCH   8   9
HETATM    9  N2  UNL     1      27.337   7.891  27.323  1.00  0.00    -0.381 N 
ATOM     10  H2  UNL     1      26.522   8.419  27.012  1.00  0.00     0.160 HD
BRANCH   9  11
HETATM   11  C6  UNL     1      27.313   7.841  28.642  1.00  0.00     0.174 C 
BRANCH  11  12
HETATM   12  C5  UNL     1      27.258   9.056  29.510  1.00  0.00     0.242 C 
HETATM   13  N1  UNL     1      28.341   9.553  30.274  1.00  0.00    -0.347 N 
HETATM   14  C4  UNL     1      29.672   8.981  30.327  1.00  0.00     0.153 C 
HETATM   15  C35 UNL     1      28.126  10.733  31.081  1.00  0.00     0.130 C 
HETATM   16  C3  UNL     1      30.737  10.003  30.557  1.00  0.00    -0.005 C 
HETATM   17  C2  UNL     1      30.495  10.918  31.479  1.00  0.00    -0.084 C 
HETATM   18  C1  UNL     1      31.495  11.956  31.763  1.00  0.00     0.043 C 
HETATM   19  C36 UNL     1      29.178  10.815  32.167  1.00  0.00     0.053 C 
HETATM   20  O1  UNL     1      26.221   9.755  29.635  1.00  0.00    -0.271 OA
ENDBRANCH  11  12
BRANCH  11  21
HETATM   21  C7  UNL     1      26.131   6.984  29.118  1.00  0.00     0.038 C 
BRANCH  21  22
HETATM   22  C8  UNL     1      26.313   5.805  29.901  1.00  0.00    -0.020 C 
HETATM   23  C9  UNL     1      24.888   5.204  30.109  1.00  0.00     0.009 C 
HETATM   24  C10 UNL     1      27.193   4.681  29.684  1.00  0.00     0.009 C 
ENDBRANCH  21  22
ENDBRANCH  11  21
ENDBRANCH   9  11
ENDBRANCH   8   9
BRANCH   8  25
HETATM   25  C12 UNL     1      29.498   7.332  26.339  1.00  0.00     0.025 C 
HETATM   26  C13 UNL     1      30.082   6.538  27.479  1.00  0.00     0.016 C 
HETATM   27  C14 UNL     1      30.291   8.645  26.431  1.00  0.00     0.016 C 
ENDBRANCH   8  25
ENDBRANCH   1   8
BRANCH   1  28
HETATM   28  N3  UNL     1      26.895   7.525  24.036  1.00  0.00    -0.343 N 
HETATM   29  C16 UNL     1      26.931   8.896  23.789  1.00  0.00     0.249 C 
HETATM   30  O2  UNL     1      27.260   9.869  24.492  1.00  0.00    -0.271 OA
ATOM     31  H3  UNL     1      26.578   6.984  23.232  1.00  0.00     0.163 HD
BRANCH  29  32
HETATM   32  C17 UNL     1      26.507   9.442  22.421  1.00  0.00     0.275 C 
BRANCH  32  33
HETATM   33  N4  UNL     1      27.173   8.796  21.353  1.00  0.00    -0.066 N 
ATOM     34  H43 UNL     1      27.082   7.782  21.422  1.00  0.00     0.275 HD
ATOM     35  H42 UNL     1      26.684   8.944  20.471  1.00  0.00     0.275 HD
ATOM     36  H41 UNL     1      28.153   9.074  21.282  1.00  0.00     0.275 HD
ENDBRANCH  32  33
BRANCH  32  37
HETATM   37  C18 UNL     1      26.717  10.930  22.338  1.00  0.00     0.047 C 
BRANCH  37  38
HETATM   38  C19 UNL     1      27.659  11.241  21.226  1.00  0.00    -0.012 C 
HETATM   39  C20 UNL     1      27.104  12.055  20.109  1.00  0.00     0.005 C 
HETATM   40  C21 UNL     1      26.874  13.492  20.459  1.00  0.00     0.000 C 
HETATM   41  C22 UNL     1      28.165  14.111  20.966  1.00  0.00     0.000 C 
HETATM   42  C23 UNL     1      28.647  13.333  22.164  1.00  0.00     0.000 C 
HETATM   43  C24 UNL     1      28.927  11.916  21.703  1.00  0.00     0.005 C 
ENDBRANCH  37  38
ENDBRANCH  32  37
ENDBRANCH  29  32
ENDBRANCH   1  28
BRANCH   7  44
HETATM   44  C28 UNL     1      28.227   5.025  23.492  1.00  0.00     0.155 C 
BRANCH  44  45
HETATM   45  O3  UNL     1      27.550   5.845  22.594  1.00  0.00    -0.393 OA
ATOM     46  H3  UNL     1      28.149   6.247  21.976  1.00  0.00     0.210 HD
ENDBRANCH  44  45
BRANCH  44  47
HETATM   47  C29 UNL     1      29.692   5.239  23.108  1.00  0.00     0.016 C 
HETATM   48  C30 UNL     1      29.996   6.595  22.585  1.00  0.00     0.007 C 
HETATM   49  C31 UNL     1      31.325   6.475  21.818  1.00  0.00     0.000 C 
HETATM   50  C32 UNL     1      32.404   5.868  22.685  1.00  0.00     0.000 C 
HETATM   51  C33 UNL     1      31.983   4.525  23.267  1.00  0.00     0.000 C 
HETATM   52  C34 UNL     1      30.693   4.764  24.087  1.00  0.00     0.007 C 
ENDBRANCH  44  47
ENDBRANCH   7  44
TORSDOF 15
ENDMDL
MODEL 5
REMARK VINA RESULT: -9.573088878      3.069      9.139
REMARK  15 active torsions:
REMARK  status: ('A' for Active; 'I' for Inactive)
REMARK       I    between atoms: N1_5  and  C5_6 
REMARK    1  A    between atoms: C5_6  and  C6_8 
REMARK    2  A    between atoms: C6_8  and  C7_9 
REMARK    3  A    between atoms: C6_8  and  N2_13 
REMARK    4  A    between atoms: C7_9  and  C8_10 
REMARK    5  A    between atoms: N2_13  and  C11_15 
REMARK    6  A    between atoms: C11_15  and  C12_16 
REMARK    7  A    between atoms: C11_15  and  C15_19 
REMARK    8  A    between atoms: C15_19  and  N3_20 
REMARK       I    between atoms: N3_20  and  C16_22 
REMARK    9  A    between atoms: C16_22  and  C17_24 
REMARK   10  A    between atoms: C17_24  and  N4_25 
REMARK   11  A    between atoms: C17_24  and  C18_29 
REMARK   12  A    between atoms: C18_29  and  C19_30 
REMARK   13  A    between atoms: C27_41  and  C28_42 
REMARK   14  A    between atoms: C28_42  and  O3_43 
REMARK   15  A    between atoms: C28_42  and  C29_45 
ROOT
HETATM    1  C15 UNL     1      28.631   8.390  24.378  1.00  0.00     0.103 C 
HETATM    2  C25 UNL     1      27.333   7.737  24.509  1.00  0.00     0.067 C 
HETATM    3  C26 UNL     1      26.469   7.980  23.297  1.00  0.00     0.236 C 
HETATM    4  N5  UNL     1      27.147   8.980  22.610  1.00  0.00    -0.066 N 
ATOM      5  H51 UNL     1      26.522   9.737  22.335  1.00  0.00     0.277 HD
ATOM      6  H52 UNL     1      27.433   8.669  21.682  1.00  0.00     0.277 HD
HETATM    7  C27 UNL     1      28.292   9.480  23.387  1.00  0.00     0.248 C 
ENDROOT
BRANCH   1   8
HETATM    8  C11 UNL     1      29.800   7.634  23.729  1.00  0.00     0.017 C 
BRANCH   8   9
HETATM    9  N2  UNL     1      29.765   6.256  23.974  1.00  0.00    -0.381 N 
ATOM     10  H2  UNL     1      28.951   5.871  23.496  1.00  0.00     0.160 HD
BRANCH   9  11
HETATM   11  C6  UNL     1      30.385   5.267  24.590  1.00  0.00     0.174 C 
BRANCH  11  12
HETATM   12  C5  UNL     1      30.958   5.384  25.965  1.00  0.00     0.242 C 
HETATM   13  N1  UNL     1      30.209   5.675  27.131  1.00  0.00    -0.347 N 
HETATM   14  C4  UNL     1      28.776   5.890  27.184  1.00  0.00     0.153 C 
HETATM   15  C35 UNL     1      30.911   5.774  28.391  1.00  0.00     0.130 C 
HETATM   16  C3  UNL     1      28.169   5.457  28.478  1.00  0.00    -0.005 C 
HETATM   17  C2  UNL     1      28.817   5.792  29.581  1.00  0.00    -0.084 C 
HETATM   18  C1  UNL     1      28.282   5.404  30.893  1.00  0.00     0.043 C 
HETATM   19  C36 UNL     1      30.080   6.556  29.385  1.00  0.00     0.053 C 
HETATM   20  O1  UNL     1      32.181   5.227  26.207  1.00  0.00    -0.271 OA
ENDBRANCH  11  12
BRANCH  11  21
HETATM   21  C7  UNL     1      29.470   4.035  24.668  1.00  0.00     0.038 C 
BRANCH  21  22
HETATM   22  C8  UNL     1      28.108   4.071  24.246  1.00  0.00    -0.020 C 
HETATM   23  C9  UNL     1      28.043   3.225  22.936  1.00  0.00     0.009 C 
HETATM   24  C10 UNL     1      26.905   3.760  24.982  1.00  0.00     0.009 C 
ENDBRANCH  21  22
ENDBRANCH  11  21
ENDBRANCH   9  11
ENDBRANCH   8   9
BRANCH   8  25
HETATM   25  C12 UNL     1      30.474   8.076  22.513  1.00  0.00     0.025 C 
HETATM   26  C13 UNL     1      30.705   7.135  21.359  1.00  0.00     0.016 C 
HETATM   27  C14 UNL     1      31.878   8.661  22.729  1.00  0.00     0.016 C 
ENDBRANCH   8  25
ENDBRANCH   1   8
BRANCH   1  28
HETATM   28  N3  UNL     1      29.027   8.881  25.686  1.00  0.00    -0.343 N 
HETATM   29  C16 UNL     1      30.252   9.056  26.326  1.00  0.00     0.249 C 
HETATM   30  O2  UNL     1      31.426   8.848  25.967  1.00  0.00    -0.271 OA
ATOM     31  H3  UNL     1      28.233   9.158  26.264  1.00  0.00     0.163 HD
BRANCH  29  32
HETATM   32  C17 UNL     1      30.301   9.602  27.758  1.00  0.00     0.275 C 
BRANCH  32  33
HETATM   33  N4  UNL     1      29.025   9.986  28.231  1.00  0.00    -0.066 N 
ATOM     34  H43 UNL     1      28.363   9.212  28.176  1.00  0.00     0.275 HD
ATOM     35  H42 UNL     1      29.033  10.121  29.242  1.00  0.00     0.275 HD
ATOM     36  H41 UNL     1      28.666  10.813  27.752  1.00  0.00     0.275 HD
ENDBRANCH  32  33
BRANCH  32  37
HETATM   37  C18 UNL     1      31.264  10.754  27.870  1.00  0.00     0.047 C 
BRANCH  37  38
HETATM   38  C19 UNL     1      30.561  11.940  28.434  1.00  0.00    -0.012 C 
HETATM   39  C20 UNL     1      30.845  12.248  29.864  1.00  0.00     0.005 C 
HETATM   40  C21 UNL     1      32.211  12.809  30.105  1.00  0.00     0.000 C 
HETATM   41  C22 UNL     1      32.417  14.049  29.252  1.00  0.00     0.000 C 
HETATM   42  C23 UNL     1      32.230  13.685  27.801  1.00  0.00     0.000 C 
HETATM   43  C24 UNL     1      30.803  13.201  27.635  1.00  0.00     0.005 C 
ENDBRANCH  37  38
ENDBRANCH  32  37
ENDBRANCH  29  32
ENDBRANCH   1  28
BRANCH   7  44
HETATM   44  C28 UNL     1      28.058  10.854  23.818  1.00  0.00     0.155 C 
BRANCH  44  45
HETATM   45  O3  UNL     1      29.183  11.385  24.441  1.00  0.00    -0.393 OA
ATOM     46  H3  UNL     1      29.154  12.335  24.454  1.00  0.00     0.210 HD
ENDBRANCH  44  45
BRANCH  44  47
HETATM   47  C29 UNL     1      27.921  11.723  22.566  1.00  0.00     0.016 C 
HETATM   48  C30 UNL     1      26.664  11.509  21.806  1.00  0.00     0.007 C 
HETATM   49  C31 UNL     1      26.915  12.060  20.391  1.00  0.00     0.000 C 
HETATM   50  C32 UNL     1      27.395  13.492  20.439  1.00  0.00     0.000 C 
HETATM   51  C33 UNL     1      28.629  13.653  21.318  1.00  0.00     0.000 C 
HETATM   52  C34 UNL     1      28.253  13.154  22.734  1.00  0.00     0.007 C 
ENDBRANCH  44  47
ENDBRANCH   7  44
TORSDOF 15
ENDMDL
