MODEL 1
REMARK VINA RESULT: -8.299434989      0.000      0.000
REMARK  4 active torsions:
REMARK  status: ('A' for Active; 'I' for Inactive)
REMARK    1  A    between atoms: O1_1  and  C1_3 
REMARK    2  A    between atoms: C2_4  and  N1_5 
REMARK    3  A    between atoms: N1_5  and  N2_7 
REMARK    4  A    between atoms: N2_7  and  C3_8 
ROOT
HETATM    1  N1  UNL     1      -1.564  34.244  -1.969  1.00  0.00    -0.233 N 
ATOM      2  H1  UNL     1      -2.078  33.696  -2.658  1.00  0.00     0.202 HD
ENDROOT
BRANCH   1   3
HETATM    3  C2  UNL     1      -1.288  33.694  -0.641  1.00  0.00     0.096 A 
HETATM    4  C1  UNL     1      -2.283  33.479   0.249  1.00  0.00     0.129 A 
HETATM    5  C16 UNL     1      -2.006  32.852   1.484  1.00  0.00     0.110 A 
HETATM    6  C15 UNL     1      -0.706  32.477   1.735  1.00  0.00    -0.020 A 
HETATM    7  O2  UNL     1      -2.837  32.520   2.549  1.00  0.00    -0.347 OA
HETATM    8  C14 UNL     1       0.297  32.699   0.829  1.00  0.00     0.012 A 
HETATM    9  C18 UNL     1      -0.665  31.779   3.056  1.00  0.00     0.068 C 
HETATM   10  C13 UNL     1       0.017  33.311  -0.376  1.00  0.00     0.035 A 
HETATM   11  C17 UNL     1      -2.012  32.109   3.640  1.00  0.00     0.180 C 
BRANCH   4  12
HETATM   12  O1  UNL     1      -3.580  33.869  -0.037  1.00  0.00    -0.356 OA
ATOM     13  H1  UNL     1      -3.761  34.742  -0.365  1.00  0.00     0.218 HD
ENDBRANCH   4  12
ENDBRANCH   1   3
BRANCH   1  14
HETATM   14  N2  UNL     1      -1.137  35.464  -2.261  1.00  0.00    -0.334 NA
BRANCH  14  15
HETATM   15  C3  UNL     1      -0.742  36.559  -2.515  1.00  0.00     0.095 C 
HETATM   16  C4  UNL     1      -0.728  37.686  -1.481  1.00  0.00     0.049 C 
HETATM   17  C5  UNL     1       0.775  37.866  -1.159  1.00  0.00     0.016 C 
HETATM   18  C9  UNL     1      -1.192  38.979  -2.071  1.00  0.00     0.016 C 
HETATM   19  C6  UNL     1       1.549  38.122  -2.409  1.00  0.00    -0.013 C 
HETATM   20  C7  UNL     1       1.052  39.468  -2.941  1.00  0.00     0.009 C 
HETATM   21  C12 UNL     1       1.387  37.046  -3.443  1.00  0.00     0.016 C 
HETATM   22  C8  UNL     1      -0.380  39.298  -3.302  1.00  0.00    -0.013 C 
HETATM   23  C10 UNL     1      -0.539  38.241  -4.350  1.00  0.00     0.016 C 
HETATM   24  C11 UNL     1      -0.099  36.930  -3.829  1.00  0.00     0.049 C 
ENDBRANCH  14  15
ENDBRANCH   1  14
TORSDOF 4
ENDMDL
MODEL 2
REMARK VINA RESULT: -8.232325998      0.616      1.612
REMARK  4 active torsions:
REMARK  status: ('A' for Active; 'I' for Inactive)
REMARK    1  A    between atoms: O1_1  and  C1_3 
REMARK    2  A    between atoms: C2_4  and  N1_5 
REMARK    3  A    between atoms: N1_5  and  N2_7 
REMARK    4  A    between atoms: N2_7  and  C3_8 
ROOT
HETATM    1  N1  UNL     1      -1.536  34.203  -1.904  1.00  0.00    -0.233 N 
ATOM      2  H1  UNL     1      -2.181  33.736  -2.540  1.00  0.00     0.202 HD
ENDROOT
BRANCH   1   3
HETATM    3  C2  UNL     1      -1.269  33.645  -0.578  1.00  0.00     0.096 A 
HETATM    4  C1  UNL     1      -2.267  33.449   0.314  1.00  0.00     0.129 A 
HETATM    5  C16 UNL     1      -2.001  32.815   1.548  1.00  0.00     0.110 A 
HETATM    6  C15 UNL     1      -0.708  32.413   1.796  1.00  0.00    -0.020 A 
HETATM    7  O2  UNL     1      -2.836  32.497   2.613  1.00  0.00    -0.347 OA
HETATM    8  C14 UNL     1       0.298  32.617   0.888  1.00  0.00     0.012 A 
HETATM    9  C18 UNL     1      -0.679  31.712   3.116  1.00  0.00     0.068 C 
HETATM   10  C13 UNL     1       0.028  33.236  -0.315  1.00  0.00     0.035 A 
HETATM   11  C17 UNL     1      -2.018  32.069   3.702  1.00  0.00     0.180 C 
BRANCH   4  12
HETATM   12  O1  UNL     1      -3.557  33.865   0.030  1.00  0.00    -0.356 OA
ATOM     13  H1  UNL     1      -4.178  34.024   0.731  1.00  0.00     0.218 HD
ENDBRANCH   4  12
ENDBRANCH   1   3
BRANCH   1  14
HETATM   14  N2  UNL     1      -0.928  35.324  -2.265  1.00  0.00    -0.334 NA
BRANCH  14  15
HETATM   15  C3  UNL     1      -0.377  36.332  -2.577  1.00  0.00     0.095 C 
HETATM   16  C4  UNL     1      -0.825  37.177  -3.771  1.00  0.00     0.049 C 
HETATM   17  C5  UNL     1      -1.458  38.428  -3.115  1.00  0.00     0.016 C 
HETATM   18  C9  UNL     1       0.341  37.663  -4.570  1.00  0.00     0.016 C 
HETATM   19  C6  UNL     1      -0.486  39.079  -2.188  1.00  0.00    -0.013 C 
HETATM   20  C7  UNL     1       0.661  39.580  -3.069  1.00  0.00     0.009 C 
HETATM   21  C12 UNL     1       0.025  38.160  -1.118  1.00  0.00     0.016 C 
HETATM   22  C8  UNL     1       1.312  38.385  -3.668  1.00  0.00    -0.013 C 
HETATM   23  C10 UNL     1       1.841  37.480  -2.600  1.00  0.00     0.016 C 
HETATM   24  C11 UNL     1       0.735  36.959  -1.771  1.00  0.00     0.049 C 
ENDBRANCH  14  15
ENDBRANCH   1  14
TORSDOF 4
ENDMDL
MODEL 3
REMARK VINA RESULT: -8.152462746      0.555      1.778
REMARK  4 active torsions:
REMARK  status: ('A' for Active; 'I' for Inactive)
REMARK    1  A    between atoms: O1_1  and  C1_3 
REMARK    2  A    between atoms: C2_4  and  N1_5 
REMARK    3  A    between atoms: N1_5  and  N2_7 
REMARK    4  A    between atoms: N2_7  and  C3_8 
ROOT
HETATM    1  N1  UNL     1      -1.487  34.466  -1.841  1.00  0.00    -0.233 N 
ATOM      2  H1  UNL     1      -2.078  34.002  -2.530  1.00  0.00     0.202 HD
ENDROOT
BRANCH   1   3
HETATM    3  C2  UNL     1      -1.252  33.852  -0.533  1.00  0.00     0.096 A 
HETATM    4  C1  UNL     1      -2.279  33.568   0.302  1.00  0.00     0.129 A 
HETATM    5  C16 UNL     1      -2.038  32.884   1.513  1.00  0.00     0.110 A 
HETATM    6  C15 UNL     1      -0.740  32.525   1.800  1.00  0.00    -0.020 A 
HETATM    7  O2  UNL     1      -2.904  32.477   2.523  1.00  0.00    -0.347 OA
HETATM    8  C14 UNL     1       0.294  32.818   0.950  1.00  0.00     0.012 A 
HETATM    9  C18 UNL     1      -0.737  31.760   3.083  1.00  0.00     0.068 C 
HETATM   10  C13 UNL     1       0.049  33.486  -0.232  1.00  0.00     0.035 A 
HETATM   11  C17 UNL     1      -2.115  32.028   3.625  1.00  0.00     0.180 C 
BRANCH   4  12
HETATM   12  O1  UNL     1      -3.572  33.944  -0.020  1.00  0.00    -0.356 OA
ATOM     13  H1  UNL     1      -3.935  34.756   0.312  1.00  0.00     0.218 HD
ENDBRANCH   4  12
ENDBRANCH   1   3
BRANCH   1  14
HETATM   14  N2  UNL     1      -0.919  35.631  -2.116  1.00  0.00    -0.334 NA
BRANCH  14  15
HETATM   15  C3  UNL     1      -0.399  36.676  -2.355  1.00  0.00     0.095 C 
HETATM   16  C4  UNL     1       0.735  36.814  -3.372  1.00  0.00     0.049 C 
HETATM   17  C5  UNL     1       0.071  37.550  -4.560  1.00  0.00     0.016 C 
HETATM   18  C9  UNL     1       1.819  37.712  -2.870  1.00  0.00     0.016 C 
HETATM   19  C6  UNL     1      -0.547  38.829  -4.100  1.00  0.00    -0.013 C 
HETATM   20  C7  UNL     1       0.612  39.711  -3.632  1.00  0.00     0.009 C 
HETATM   21  C12 UNL     1      -1.554  38.644  -3.003  1.00  0.00     0.016 C 
HETATM   22  C8  UNL     1       1.230  39.040  -2.458  1.00  0.00    -0.013 C 
HETATM   23  C10 UNL     1       0.232  38.876  -1.356  1.00  0.00     0.016 C 
HETATM   24  C11 UNL     1      -0.871  37.992  -1.787  1.00  0.00     0.049 C 
ENDBRANCH  14  15
ENDBRANCH   1  14
TORSDOF 4
ENDMDL
MODEL 4
REMARK VINA RESULT: -8.043457340      2.169      2.945
REMARK  4 active torsions:
REMARK  status: ('A' for Active; 'I' for Inactive)
REMARK    1  A    between atoms: O1_1  and  C1_3 
REMARK    2  A    between atoms: C2_4  and  N1_5 
REMARK    3  A    between atoms: N1_5  and  N2_7 
REMARK    4  A    between atoms: N2_7  and  C3_8 
ROOT
HETATM    1  N1  UNL     1       0.780  37.380   0.497  1.00  0.00    -0.233 N 
ATOM      2  H1  UNL     1       0.841  37.990   1.311  1.00  0.00     0.202 HD
ENDROOT
BRANCH   1   3
HETATM    3  C2  UNL     1       1.031  35.944   0.625  1.00  0.00     0.096 A 
HETATM    4  C1  UNL     1       0.059  35.037   0.376  1.00  0.00     0.129 A 
HETATM    5  C16 UNL     1       0.353  33.657   0.407  1.00  0.00     0.110 A 
HETATM    6  C15 UNL     1       1.645  33.283   0.695  1.00  0.00    -0.020 A 
HETATM    7  O2  UNL     1      -0.452  32.544   0.187  1.00  0.00    -0.347 OA
HETATM    8  C14 UNL     1       2.625  34.207   0.948  1.00  0.00     0.012 A 
HETATM    9  C18 UNL     1       1.735  31.794   0.604  1.00  0.00     0.068 C 
HETATM   10  C13 UNL     1       2.329  35.554   0.914  1.00  0.00     0.035 A 
HETATM   11  C17 UNL     1       0.288  31.383   0.564  1.00  0.00     0.180 C 
BRANCH   4  12
HETATM   12  O1  UNL     1      -1.231  35.450   0.089  1.00  0.00    -0.356 OA
ATOM     13  H1  UNL     1      -1.650  36.124   0.611  1.00  0.00     0.218 HD
ENDBRANCH   4  12
ENDBRANCH   1   3
BRANCH   1  14
HETATM   14  N2  UNL     1       0.471  37.875  -0.693  1.00  0.00    -0.334 NA
BRANCH  14  15
HETATM   15  C3  UNL     1       0.199  38.309  -1.769  1.00  0.00     0.095 C 
HETATM   16  C4  UNL     1       1.266  38.783  -2.756  1.00  0.00     0.049 C 
HETATM   17  C5  UNL     1       1.259  37.691  -3.853  1.00  0.00     0.016 C 
HETATM   18  C9  UNL     1       0.868  40.059  -3.426  1.00  0.00     0.016 C 
HETATM   19  C6  UNL     1      -0.115  37.524  -4.413  1.00  0.00    -0.013 C 
HETATM   20  C7  UNL     1      -0.446  38.846  -5.109  1.00  0.00     0.009 C 
HETATM   21  C12 UNL     1      -1.146  37.194  -3.374  1.00  0.00     0.016 C 
HETATM   22  C8  UNL     1      -0.493  39.898  -4.060  1.00  0.00    -0.013 C 
HETATM   23  C10 UNL     1      -1.537  39.580  -3.037  1.00  0.00     0.016 C 
HETATM   24  C11 UNL     1      -1.202  38.325  -2.331  1.00  0.00     0.049 C 
ENDBRANCH  14  15
ENDBRANCH   1  14
TORSDOF 4
ENDMDL
MODEL 5
REMARK VINA RESULT: -7.886038063      2.382      3.294
REMARK  4 active torsions:
REMARK  status: ('A' for Active; 'I' for Inactive)
REMARK    1  A    between atoms: O1_1  and  C1_3 
REMARK    2  A    between atoms: C2_4  and  N1_5 
REMARK    3  A    between atoms: N1_5  and  N2_7 
REMARK    4  A    between atoms: N2_7  and  C3_8 
ROOT
HETATM    1  N1  UNL     1       1.054  37.557   0.674  1.00  0.00    -0.233 N 
ATOM      2  H1  UNL     1       1.162  38.125   1.513  1.00  0.00     0.202 HD
ENDROOT
BRANCH   1   3
HETATM    3  C2  UNL     1       1.214  36.104   0.736  1.00  0.00     0.096 A 
HETATM    4  C1  UNL     1       0.198  35.272   0.410  1.00  0.00     0.129 A 
HETATM    5  C16 UNL     1       0.407  33.876   0.379  1.00  0.00     0.110 A 
HETATM    6  C15 UNL     1       1.664  33.410   0.688  1.00  0.00    -0.020 A 
HETATM    7  O2  UNL     1      -0.455  32.827   0.076  1.00  0.00    -0.347 OA
HETATM    8  C14 UNL     1       2.688  34.258   1.020  1.00  0.00     0.012 A 
HETATM    9  C18 UNL     1       1.668  31.924   0.524  1.00  0.00     0.068 C 
HETATM   10  C13 UNL     1       2.475  35.621   1.046  1.00  0.00     0.035 A 
HETATM   11  C17 UNL     1       0.201  31.606   0.416  1.00  0.00     0.180 C 
BRANCH   4  12
HETATM   12  O1  UNL     1      -1.054  35.778   0.103  1.00  0.00    -0.356 OA
ATOM     13  H1  UNL     1      -1.145  36.643  -0.277  1.00  0.00     0.218 HD
ENDBRANCH   4  12
ENDBRANCH   1   3
BRANCH   1  14
HETATM   14  N2  UNL     1       0.765  38.123  -0.489  1.00  0.00    -0.334 NA
BRANCH  14  15
HETATM   15  C3  UNL     1       0.492  38.630  -1.532  1.00  0.00     0.095 C 
HETATM   16  C4  UNL     1       0.139  37.810  -2.774  1.00  0.00     0.049 C 
HETATM   17  C5  UNL     1      -1.382  38.040  -2.943  1.00  0.00     0.016 C 
HETATM   18  C9  UNL     1       0.789  38.363  -4.002  1.00  0.00     0.016 C 
HETATM   19  C6  UNL     1      -1.683  39.500  -3.022  1.00  0.00    -0.013 C 
HETATM   20  C7  UNL     1      -1.020  39.995  -4.310  1.00  0.00     0.009 C 
HETATM   21  C12 UNL     1      -1.190  40.276  -1.836  1.00  0.00     0.016 C 
HETATM   22  C8  UNL     1       0.447  39.827  -4.144  1.00  0.00    -0.013 C 
HETATM   23  C10 UNL     1       0.942  40.618  -2.974  1.00  0.00     0.016 C 
HETATM   24  C11 UNL     1       0.337  40.119  -1.721  1.00  0.00     0.049 C 
ENDBRANCH  14  15
ENDBRANCH   1  14
TORSDOF 4
ENDMDL
