MODEL 1
REMARK VINA RESULT: -7.527473525      0.000      0.000
REMARK  3 active torsions:
REMARK  status: ('A' for Active; 'I' for Inactive)
REMARK    1  A    between atoms: O1_2  and  C2_3 
REMARK    2  A    between atoms: C5_8  and  C6_9 
REMARK    3  A    between atoms: C7_12  and  C8_13 
ROOT
HETATM    1  C2  UNL     1      -1.044  40.558  -2.630  1.00  0.00     0.113 A 
HETATM    2  C3  UNL     1      -1.023  39.958  -1.398  1.00  0.00     0.077 A 
HETATM    3  C4  UNL     1      -1.004  38.616  -1.361  1.00  0.00     0.071 A 
HETATM    4  N1  UNL     1      -0.983  37.606  -0.423  1.00  0.00    -0.338 N 
ATOM      5  H1  UNL     1      -0.978  37.763   0.584  1.00  0.00     0.167 HD
HETATM    6  C5  UNL     1      -0.970  36.407  -0.988  1.00  0.00     0.136 A 
HETATM    7  N4  UNL     1      -0.983  36.618  -2.337  1.00  0.00    -0.333 N 
ATOM      8  H4  UNL     1      -0.978  35.895  -3.057  1.00  0.00     0.168 HD
HETATM    9  C14 UNL     1      -1.006  37.949  -2.552  1.00  0.00     0.105 A 
HETATM   10  S1  UNL     1      -1.035  39.244  -3.700  1.00  0.00    -0.045 SA
ENDROOT
BRANCH   6  11
HETATM   11  C6  UNL     1      -0.904  35.069  -0.368  1.00  0.00     0.100 A 
HETATM   12  N2  UNL     1       0.238  34.460   0.044  1.00  0.00    -0.341 N 
HETATM   13  C7  UNL     1      -0.038  33.266   0.536  1.00  0.00     0.089 A 
ATOM     14  H2  UNL     1       1.172  34.866  -0.018  1.00  0.00     0.167 HD
HETATM   15  N3  UNL     1      -1.370  33.063   0.459  1.00  0.00    -0.347 N 
HETATM   16  C12 UNL     1      -1.897  34.174  -0.099  1.00  0.00     0.037 A 
ATOM     17  H3  UNL     1      -1.879  32.232   0.762  1.00  0.00     0.167 HD
HETATM   18  C13 UNL     1      -3.344  34.340  -0.389  1.00  0.00     0.070 C 
BRANCH  13  19
HETATM   19  C8  UNL     1       0.856  32.225   1.121  1.00  0.00     0.007 C 
HETATM   20  C9  UNL     1       2.276  32.760   1.081  1.00  0.00     0.022 C 
HETATM   21  C10 UNL     1       0.382  31.954   2.531  1.00  0.00     0.022 C 
HETATM   22  C11 UNL     1       0.791  30.934   0.313  1.00  0.00     0.022 C 
ENDBRANCH  13  19
ENDBRANCH   6  11
BRANCH   1  23
HETATM   23  O1  UNL     1      -1.071  41.963  -2.856  1.00  0.00    -0.349 OA
HETATM   24  C1  UNL     1      -1.787  42.774  -1.946  1.00  0.00     0.211 C 
ENDBRANCH   1  23
TORSDOF 3
ENDMDL
MODEL 2
REMARK VINA RESULT: -7.509843114      0.876      1.252
REMARK  3 active torsions:
REMARK  status: ('A' for Active; 'I' for Inactive)
REMARK    1  A    between atoms: O1_2  and  C2_3 
REMARK    2  A    between atoms: C5_8  and  C6_9 
REMARK    3  A    between atoms: C7_12  and  C8_13 
ROOT
HETATM    1  C2  UNL     1      -0.970  40.360  -3.119  1.00  0.00     0.113 A 
HETATM    2  C3  UNL     1      -0.884  39.040  -3.480  1.00  0.00     0.077 A 
HETATM    3  C4  UNL     1      -0.870  38.127  -2.496  1.00  0.00     0.071 A 
HETATM    4  N1  UNL     1      -0.797  36.757  -2.355  1.00  0.00    -0.338 N 
ATOM      5  H1  UNL     1      -0.729  36.106  -3.137  1.00  0.00     0.167 HD
HETATM    6  C5  UNL     1      -0.826  36.389  -1.083  1.00  0.00     0.136 A 
HETATM    7  N4  UNL     1      -0.919  37.539  -0.352  1.00  0.00    -0.333 N 
ATOM      8  H4  UNL     1      -0.963  37.601   0.665  1.00  0.00     0.168 HD
HETATM    9  C14 UNL     1      -0.943  38.579  -1.211  1.00  0.00     0.105 A 
HETATM   10  S1  UNL     1      -1.030  40.294  -1.427  1.00  0.00    -0.045 SA
ENDROOT
BRANCH   6  11
HETATM   11  C6  UNL     1      -0.814  35.038  -0.488  1.00  0.00     0.100 A 
HETATM   12  N2  UNL     1       0.291  34.416   0.001  1.00  0.00    -0.341 N 
HETATM   13  C7  UNL     1      -0.027  33.213   0.445  1.00  0.00     0.089 A 
ATOM     14  H2  UNL     1       1.228  34.819   0.023  1.00  0.00     0.167 HD
HETATM   15  N3  UNL     1      -1.349  33.017   0.257  1.00  0.00    -0.347 N 
HETATM   16  C12 UNL     1      -1.827  34.142  -0.317  1.00  0.00     0.037 A 
ATOM     17  H3  UNL     1      -1.883  32.183   0.501  1.00  0.00     0.167 HD
HETATM   18  C13 UNL     1      -3.245  34.320  -0.720  1.00  0.00     0.070 C 
BRANCH  13  19
HETATM   19  C8  UNL     1       0.815  32.157   1.078  1.00  0.00     0.007 C 
HETATM   20  C9  UNL     1       2.253  32.641   1.063  1.00  0.00     0.022 C 
HETATM   21  C10 UNL     1       0.296  31.938   2.481  1.00  0.00     0.022 C 
HETATM   22  C11 UNL     1       0.725  30.850   0.299  1.00  0.00     0.022 C 
ENDBRANCH  13  19
ENDBRANCH   6  11
BRANCH   1  23
HETATM   23  O1  UNL     1      -0.991  41.457  -4.025  1.00  0.00    -0.349 OA
HETATM   24  C1  UNL     1      -0.424  42.682  -3.608  1.00  0.00     0.211 C 
ENDBRANCH   1  23
TORSDOF 3
ENDMDL
MODEL 3
REMARK VINA RESULT: -7.349843406      0.755      1.244
REMARK  3 active torsions:
REMARK  status: ('A' for Active; 'I' for Inactive)
REMARK    1  A    between atoms: O1_2  and  C2_3 
REMARK    2  A    between atoms: C5_8  and  C6_9 
REMARK    3  A    between atoms: C7_12  and  C8_13 
ROOT
HETATM    1  C2  UNL     1      -0.844  40.127  -3.701  1.00  0.00     0.113 A 
HETATM    2  C3  UNL     1      -1.051  39.651  -2.432  1.00  0.00     0.077 A 
HETATM    3  C4  UNL     1      -0.926  38.328  -2.238  1.00  0.00     0.071 A 
HETATM    4  N1  UNL     1      -1.031  37.419  -1.207  1.00  0.00    -0.338 N 
ATOM      5  H1  UNL     1      -1.268  37.670  -0.247  1.00  0.00     0.167 HD
HETATM    6  C5  UNL     1      -0.788  36.181  -1.612  1.00  0.00     0.136 A 
HETATM    7  N4  UNL     1      -0.515  36.262  -2.948  1.00  0.00    -0.333 N 
ATOM      8  H4  UNL     1      -0.285  35.480  -3.561  1.00  0.00     0.168 HD
HETATM    9  C14 UNL     1      -0.602  37.557  -3.315  1.00  0.00     0.105 A 
HETATM   10  S1  UNL     1      -0.481  38.727  -4.585  1.00  0.00    -0.045 SA
ENDROOT
BRANCH   6  11
HETATM   11  C6  UNL     1      -0.751  34.922  -0.842  1.00  0.00     0.100 A 
HETATM   12  N2  UNL     1       0.380  34.334  -0.373  1.00  0.00    -0.341 N 
HETATM   13  C7  UNL     1       0.079  33.213   0.256  1.00  0.00     0.089 A 
ATOM     14  H2  UNL     1       1.324  34.704  -0.490  1.00  0.00     0.167 HD
HETATM   15  N3  UNL     1      -1.259  33.039   0.215  1.00  0.00    -0.347 N 
HETATM   16  C12 UNL     1      -1.763  34.092  -0.462  1.00  0.00     0.037 A 
ATOM     17  H3  UNL     1      -1.786  32.263   0.617  1.00  0.00     0.167 HD
HETATM   18  C13 UNL     1      -3.209  34.263  -0.758  1.00  0.00     0.070 C 
BRANCH  13  19
HETATM   19  C8  UNL     1       0.953  32.222   0.950  1.00  0.00     0.007 C 
HETATM   20  C9  UNL     1       0.427  32.051   2.363  1.00  0.00     0.022 C 
HETATM   21  C10 UNL     1       0.902  30.935   0.157  1.00  0.00     0.022 C 
HETATM   22  C11 UNL     1       2.393  32.716   1.013  1.00  0.00     0.022 C 
ENDBRANCH  13  19
ENDBRANCH   6  11
BRANCH   1  23
HETATM   23  O1  UNL     1      -0.940  41.493  -4.088  1.00  0.00    -0.349 OA
HETATM   24  C1  UNL     1      -1.008  42.474  -3.073  1.00  0.00     0.211 C 
ENDBRANCH   1  23
TORSDOF 3
ENDMDL
MODEL 4
REMARK VINA RESULT: -7.301639566      1.642      2.198
REMARK  3 active torsions:
REMARK  status: ('A' for Active; 'I' for Inactive)
REMARK    1  A    between atoms: O1_2  and  C2_3 
REMARK    2  A    between atoms: C5_8  and  C6_9 
REMARK    3  A    between atoms: C7_12  and  C8_13 
ROOT
HETATM    1  C2  UNL     1      -0.750  39.270  -4.784  1.00  0.00     0.113 A 
HETATM    2  C3  UNL     1      -0.540  37.915  -4.801  1.00  0.00     0.077 A 
HETATM    3  C4  UNL     1      -0.622  37.260  -3.631  1.00  0.00     0.071 A 
HETATM    4  N1  UNL     1      -0.496  35.973  -3.155  1.00  0.00    -0.338 N 
ATOM      5  H1  UNL     1      -0.276  35.167  -3.740  1.00  0.00     0.167 HD
HETATM    6  C5  UNL     1      -0.694  35.908  -1.847  1.00  0.00     0.136 A 
HETATM    7  N4  UNL     1      -0.959  37.184  -1.435  1.00  0.00    -0.333 N 
ATOM      8  H4  UNL     1      -1.157  37.476  -0.478  1.00  0.00     0.168 HD
HETATM    9  C14 UNL     1      -0.911  37.990  -2.516  1.00  0.00     0.105 A 
HETATM   10  S1  UNL     1      -1.059  39.593  -3.150  1.00  0.00    -0.045 SA
ENDROOT
BRANCH   6  11
HETATM   11  C6  UNL     1      -0.697  34.739  -0.946  1.00  0.00     0.100 A 
HETATM   12  N2  UNL     1       0.417  34.114  -0.483  1.00  0.00    -0.341 N 
HETATM   13  C7  UNL     1       0.078  33.094   0.284  1.00  0.00     0.089 A 
ATOM     14  H2  UNL     1       1.376  34.393  -0.696  1.00  0.00     0.167 HD
HETATM   15  N3  UNL     1      -1.268  33.024   0.342  1.00  0.00    -0.347 N 
HETATM   16  C12 UNL     1      -1.739  34.037  -0.417  1.00  0.00     0.037 A 
ATOM     17  H3  UNL     1      -1.822  32.340   0.857  1.00  0.00     0.167 HD
HETATM   18  C13 UNL     1      -3.185  34.292  -0.642  1.00  0.00     0.070 C 
BRANCH  13  19
HETATM   19  C8  UNL     1       0.922  32.115   1.029  1.00  0.00     0.007 C 
HETATM   20  C9  UNL     1       2.339  32.657   1.063  1.00  0.00     0.022 C 
HETATM   21  C10 UNL     1       0.331  31.962   2.413  1.00  0.00     0.022 C 
HETATM   22  C11 UNL     1       0.927  30.759   0.333  1.00  0.00     0.022 C 
ENDBRANCH  13  19
ENDBRANCH   6  11
BRANCH   1  23
HETATM   23  O1  UNL     1      -0.697  40.121  -5.924  1.00  0.00    -0.349 OA
HETATM   24  C1  UNL     1      -0.433  39.537  -7.183  1.00  0.00     0.211 C 
ENDBRANCH   1  23
TORSDOF 3
ENDMDL
MODEL 5
REMARK VINA RESULT: -6.877199064      1.061      1.065
REMARK  3 active torsions:
REMARK  status: ('A' for Active; 'I' for Inactive)
REMARK    1  A    between atoms: O1_2  and  C2_3 
REMARK    2  A    between atoms: C5_8  and  C6_9 
REMARK    3  A    between atoms: C7_12  and  C8_13 
ROOT
HETATM    1  C2  UNL     1      -0.702  41.041  -3.040  1.00  0.00     0.113 A 
HETATM    2  C3  UNL     1      -1.215  40.263  -2.035  1.00  0.00     0.077 A 
HETATM    3  C4  UNL     1      -0.883  38.962  -2.026  1.00  0.00     0.071 A 
HETATM    4  N1  UNL     1      -1.132  37.836  -1.271  1.00  0.00    -0.338 N 
ATOM      5  H1  UNL     1      -1.725  37.824  -0.441  1.00  0.00     0.167 HD
HETATM    6  C5  UNL     1      -0.508  36.771  -1.752  1.00  0.00     0.136 A 
HETATM    7  N4  UNL     1       0.174  37.193  -2.858  1.00  0.00    -0.333 N 
ATOM      8  H4  UNL     1       0.759  36.612  -3.460  1.00  0.00     0.168 HD
HETATM    9  C14 UNL     1      -0.059  38.512  -3.015  1.00  0.00     0.105 A 
HETATM   10  S1  UNL     1       0.227  39.946  -3.940  1.00  0.00    -0.045 SA
ENDROOT
BRANCH   6  11
HETATM   11  C6  UNL     1      -0.463  35.387  -1.239  1.00  0.00     0.100 A 
HETATM   12  N2  UNL     1       0.464  34.914  -0.366  1.00  0.00    -0.341 N 
HETATM   13  C7  UNL     1       0.242  33.635  -0.120  1.00  0.00     0.089 A 
ATOM     14  H2  UNL     1       1.221  35.465   0.040  1.00  0.00     0.167 HD
HETATM   15  N3  UNL     1      -0.837  33.239  -0.827  1.00  0.00    -0.347 N 
HETATM   16  C12 UNL     1      -1.266  34.320  -1.514  1.00  0.00     0.037 A 
ATOM     17  H3  UNL     1      -1.249  32.306  -0.840  1.00  0.00     0.167 HD
HETATM   18  C13 UNL     1      -2.422  34.296  -2.445  1.00  0.00     0.070 C 
BRANCH  13  19
HETATM   19  C8  UNL     1       0.962  32.677   0.768  1.00  0.00     0.007 C 
HETATM   20  C9  UNL     1       2.300  33.296   1.128  1.00  0.00     0.022 C 
HETATM   21  C10 UNL     1       0.093  32.437   1.982  1.00  0.00     0.022 C 
HETATM   22  C11 UNL     1       1.206  31.352   0.055  1.00  0.00     0.022 C 
ENDBRANCH  13  19
ENDBRANCH   6  11
BRANCH   1  23
HETATM   23  O1  UNL     1      -0.952  42.433  -3.207  1.00  0.00    -0.349 OA
HETATM   24  C1  UNL     1      -1.702  43.102  -2.215  1.00  0.00     0.211 C 
ENDBRANCH   1  23
TORSDOF 3
ENDMDL
