MODEL 1
REMARK VINA RESULT: -5.751829653      0.000      0.000
REMARK  7 active torsions:
REMARK  status: ('A' for Active; 'I' for Inactive)
REMARK    1  A    between atoms: S1_2  and  C2_3 
REMARK    2  A    between atoms: C2_3  and  N2_7 
REMARK    3  A    between atoms: C3_9  and  N3_10 
REMARK    4  A    between atoms: C3_9  and  O1_20 
REMARK    5  A    between atoms: N3_10  and  N4_12 
REMARK    6  A    between atoms: C4_14  and  C5_15 
REMARK    7  A    between atoms: O1_20  and  C9_21 
ROOT
HETATM    1  N2  UNL     1       0.665  39.176  -0.898  1.00  0.00    -0.302 N 
ATOM      2  H2  UNL     1       0.774  39.680  -1.778  1.00  0.00     0.171 HD
HETATM    3  C3  UNL     1      -0.215  38.246  -0.769  1.00  0.00     0.241 C 
ENDROOT
BRANCH   3   4
HETATM    4  N3  UNL     1      -0.391  37.524   0.447  1.00  0.00    -0.265 N 
ATOM      5  H3  UNL     1      -0.594  38.025   1.311  1.00  0.00     0.190 HD
BRANCH   4   6
HETATM    6  N4  UNL     1      -0.286  36.137   0.456  1.00  0.00    -0.308 N 
HETATM    7  C4  UNL     1       0.846  35.542   0.481  1.00  0.00     0.126 C 
ATOM      8  H4  UNL     1      -1.138  35.577   0.442  1.00  0.00     0.186 HD
BRANCH   7   9
HETATM    9  C5  UNL     1       0.855  34.067   0.490  1.00  0.00     0.021 A 
HETATM   10  C6  UNL     1       1.938  33.241   0.641  1.00  0.00     0.021 A 
HETATM   11  C7  UNL     1       1.714  31.921   0.617  1.00  0.00     0.008 A 
HETATM   12  C8  UNL     1       0.418  31.506   0.444  1.00  0.00     0.050 A 
HETATM   13  S2  UNL     1      -0.437  32.976   0.321  1.00  0.00    -0.101 SA
ENDBRANCH   7   9
ENDBRANCH   4   6
ENDBRANCH   3   4
BRANCH   3  14
HETATM   14  O1  UNL     1      -0.970  38.009  -1.905  1.00  0.00    -0.311 OA
BRANCH  14  15
HETATM   15  C9  UNL     1      -0.587  37.259  -2.988  1.00  0.00     0.060 C 
HETATM   16  C10 UNL     1       0.772  36.651  -2.954  1.00  0.00     0.046 C 
HETATM   17  C11 UNL     1      -0.628  38.171  -4.224  1.00  0.00     0.046 C 
HETATM   18  C12 UNL     1      -1.587  36.137  -3.290  1.00  0.00     0.046 C 
ENDBRANCH  14  15
ENDBRANCH   3  14
BRANCH   1  19
HETATM   19  C2  UNL     1       1.480  39.476   0.226  1.00  0.00     0.140 C 
HETATM   20  N1  UNL     1       1.117  40.315   1.136  1.00  0.00    -0.380 N 
ATOM     21  H12 UNL     1       1.703  40.531   1.943  1.00  0.00     0.158 HD
ATOM     22  H11 UNL     1       0.209  40.764   1.023  1.00  0.00     0.158 HD
BRANCH  19  23
HETATM   23  S1  UNL     1       3.083  38.683   0.425  1.00  0.00    -0.099 SA
HETATM   24  C1  UNL     1       3.279  38.024   2.078  1.00  0.00     0.099 C 
ENDBRANCH  19  23
ENDBRANCH   1  19
TORSDOF 7
ENDMDL
MODEL 2
REMARK VINA RESULT: -5.707744922      1.708      1.990
REMARK  7 active torsions:
REMARK  status: ('A' for Active; 'I' for Inactive)
REMARK    1  A    between atoms: S1_2  and  C2_3 
REMARK    2  A    between atoms: C2_3  and  N2_7 
REMARK    3  A    between atoms: C3_9  and  N3_10 
REMARK    4  A    between atoms: C3_9  and  O1_20 
REMARK    5  A    between atoms: N3_10  and  N4_12 
REMARK    6  A    between atoms: C4_14  and  C5_15 
REMARK    7  A    between atoms: O1_20  and  C9_21 
ROOT
HETATM    1  N2  UNL     1       2.191  39.163  -1.061  1.00  0.00    -0.302 N 
ATOM      2  H2  UNL     1       1.705  39.869  -1.612  1.00  0.00     0.171 HD
HETATM    3  C3  UNL     1       1.974  37.908  -1.246  1.00  0.00     0.241 C 
ENDROOT
BRANCH   3   4
HETATM    4  N3  UNL     1       2.638  36.898  -0.491  1.00  0.00    -0.265 N 
ATOM      5  H3  UNL     1       3.518  37.110  -0.021  1.00  0.00     0.190 HD
BRANCH   4   6
HETATM    6  N4  UNL     1       2.089  35.624  -0.395  1.00  0.00    -0.308 N 
HETATM    7  C4  UNL     1       2.047  34.984   0.711  1.00  0.00     0.126 C 
ATOM      8  H4  UNL     1       1.707  35.187  -1.234  1.00  0.00     0.186 HD
BRANCH   7   9
HETATM    9  C5  UNL     1       1.443  33.637   0.712  1.00  0.00     0.021 A 
HETATM   10  C6  UNL     1       2.094  32.433   0.658  1.00  0.00     0.021 A 
HETATM   11  C7  UNL     1       1.341  31.325   0.670  1.00  0.00     0.008 A 
HETATM   12  C8  UNL     1      -0.020  31.490   0.737  1.00  0.00     0.050 A 
HETATM   13  S2  UNL     1      -0.194  33.186   0.779  1.00  0.00    -0.101 SA
ENDBRANCH   7   9
ENDBRANCH   4   6
ENDBRANCH   3   4
BRANCH   3  14
HETATM   14  O1  UNL     1       1.046  37.626  -2.234  1.00  0.00    -0.311 OA
BRANCH  14  15
HETATM   15  C9  UNL     1      -0.318  37.623  -2.083  1.00  0.00     0.060 C 
HETATM   16  C10 UNL     1      -0.854  37.666  -0.694  1.00  0.00     0.046 C 
HETATM   17  C11 UNL     1      -0.853  36.332  -2.720  1.00  0.00     0.046 C 
HETATM   18  C12 UNL     1      -0.983  38.759  -2.869  1.00  0.00     0.046 C 
ENDBRANCH  14  15
ENDBRANCH   3  14
BRANCH   1  19
HETATM   19  C2  UNL     1       3.133  39.532  -0.062  1.00  0.00     0.140 C 
HETATM   20  N1  UNL     1       4.368  39.775  -0.337  1.00  0.00    -0.380 N 
ATOM     21  H12 UNL     1       5.045  40.040   0.381  1.00  0.00     0.158 HD
ATOM     22  H11 UNL     1       4.657  39.695  -1.311  1.00  0.00     0.158 HD
BRANCH  19  23
HETATM   23  S1  UNL     1       2.624  39.674   1.658  1.00  0.00    -0.099 SA
HETATM   24  C1  UNL     1       3.560  38.564   2.704  1.00  0.00     0.099 C 
ENDBRANCH  19  23
ENDBRANCH   1  19
TORSDOF 7
ENDMDL
MODEL 3
REMARK VINA RESULT: -5.671525791      1.434      1.617
REMARK  7 active torsions:
REMARK  status: ('A' for Active; 'I' for Inactive)
REMARK    1  A    between atoms: S1_2  and  C2_3 
REMARK    2  A    between atoms: C2_3  and  N2_7 
REMARK    3  A    between atoms: C3_9  and  N3_10 
REMARK    4  A    between atoms: C3_9  and  O1_20 
REMARK    5  A    between atoms: N3_10  and  N4_12 
REMARK    6  A    between atoms: C4_14  and  C5_15 
REMARK    7  A    between atoms: O1_20  and  C9_21 
ROOT
HETATM    1  N2  UNL     1       0.888  39.251  -0.158  1.00  0.00    -0.302 N 
ATOM      2  H2  UNL     1       0.184  39.906  -0.498  1.00  0.00     0.171 HD
HETATM    3  C3  UNL     1       1.395  38.358  -0.934  1.00  0.00     0.241 C 
ENDROOT
BRANCH   3   4
HETATM    4  N3  UNL     1       2.380  37.429  -0.489  1.00  0.00    -0.265 N 
ATOM      5  H3  UNL     1       3.303  37.761  -0.209  1.00  0.00     0.190 HD
BRANCH   4   6
HETATM    6  N4  UNL     1       2.084  36.072  -0.435  1.00  0.00    -0.308 N 
HETATM    7  C4  UNL     1       1.596  35.524   0.613  1.00  0.00     0.126 C 
ATOM      8  H4  UNL     1       2.263  35.495  -1.257  1.00  0.00     0.186 HD
BRANCH   7   9
HETATM    9  C5  UNL     1       1.315  34.076   0.573  1.00  0.00     0.021 A 
HETATM   10  C6  UNL     1       2.206  33.050   0.745  1.00  0.00     0.021 A 
HETATM   11  C7  UNL     1       1.729  31.800   0.667  1.00  0.00     0.008 A 
HETATM   12  C8  UNL     1       0.387  31.654   0.421  1.00  0.00     0.050 A 
HETATM   13  S2  UNL     1      -0.156  33.266   0.309  1.00  0.00    -0.101 SA
ENDBRANCH   7   9
ENDBRANCH   4   6
ENDBRANCH   3   4
BRANCH   3  14
HETATM   14  O1  UNL     1       0.905  38.377  -2.229  1.00  0.00    -0.311 OA
BRANCH  14  15
HETATM   15  C9  UNL     1      -0.316  37.904  -2.636  1.00  0.00     0.060 C 
HETATM   16  C10 UNL     1      -0.963  36.859  -1.794  1.00  0.00     0.046 C 
HETATM   17  C11 UNL     1      -0.135  37.291  -4.033  1.00  0.00     0.046 C 
HETATM   18  C12 UNL     1      -1.333  39.035  -2.829  1.00  0.00     0.046 C 
ENDBRANCH  14  15
ENDBRANCH   3  14
BRANCH   1  19
HETATM   19  C2  UNL     1       1.342  39.294   1.188  1.00  0.00     0.140 C 
HETATM   20  N1  UNL     1       0.713  38.703   2.146  1.00  0.00    -0.380 N 
ATOM     21  H12 UNL     1       1.039  38.734   3.112  1.00  0.00     0.158 HD
ATOM     22  H11 UNL     1      -0.136  38.194   1.905  1.00  0.00     0.158 HD
BRANCH  19  23
HETATM   23  S1  UNL     1       2.841  40.193   1.613  1.00  0.00    -0.099 SA
HETATM   24  C1  UNL     1       3.612  39.512   3.078  1.00  0.00     0.099 C 
ENDBRANCH  19  23
ENDBRANCH   1  19
TORSDOF 7
ENDMDL
MODEL 4
REMARK VINA RESULT: -5.641524668      2.507      6.012
REMARK  7 active torsions:
REMARK  status: ('A' for Active; 'I' for Inactive)
REMARK    1  A    between atoms: S1_2  and  C2_3 
REMARK    2  A    between atoms: C2_3  and  N2_7 
REMARK    3  A    between atoms: C3_9  and  N3_10 
REMARK    4  A    between atoms: C3_9  and  O1_20 
REMARK    5  A    between atoms: N3_10  and  N4_12 
REMARK    6  A    between atoms: C4_14  and  C5_15 
REMARK    7  A    between atoms: O1_20  and  C9_21 
ROOT
HETATM    1  N2  UNL     1      -0.570  35.462   0.253  1.00  0.00    -0.302 N 
ATOM      2  H2  UNL     1      -1.295  35.089   0.865  1.00  0.00     0.171 HD
HETATM    3  C3  UNL     1       0.630  34.997   0.282  1.00  0.00     0.241 C 
ENDROOT
BRANCH   3   4
HETATM    4  N3  UNL     1       1.664  35.498  -0.561  1.00  0.00    -0.265 N 
ATOM      5  H3  UNL     1       1.888  35.018  -1.432  1.00  0.00     0.190 HD
BRANCH   4   6
HETATM    6  N4  UNL     1       2.368  36.640  -0.197  1.00  0.00    -0.308 N 
HETATM    7  C4  UNL     1       2.468  37.017   1.022  1.00  0.00     0.126 C 
ATOM      8  H4  UNL     1       2.818  37.196  -0.924  1.00  0.00     0.186 HD
BRANCH   7   9
HETATM    9  C5  UNL     1       3.237  38.244   1.308  1.00  0.00     0.021 A 
HETATM   10  C6  UNL     1       4.030  38.950   0.443  1.00  0.00     0.021 A 
HETATM   11  C7  UNL     1       4.640  40.043   0.920  1.00  0.00     0.008 A 
HETATM   12  C8  UNL     1       4.419  40.363   2.236  1.00  0.00     0.050 A 
HETATM   13  S2  UNL     1       3.368  39.125   2.756  1.00  0.00    -0.101 SA
ENDBRANCH   7   9
ENDBRANCH   4   6
ENDBRANCH   3   4
BRANCH   3  14
HETATM   14  O1  UNL     1       0.827  33.977   1.197  1.00  0.00    -0.311 OA
BRANCH  14  15
HETATM   15  C9  UNL     1       0.586  32.643   0.983  1.00  0.00     0.060 C 
HETATM   16  C10 UNL     1      -0.485  32.287   0.012  1.00  0.00     0.046 C 
HETATM   17  C11 UNL     1       0.182  32.022   2.329  1.00  0.00     0.046 C 
HETATM   18  C12 UNL     1       1.856  31.892   0.564  1.00  0.00     0.046 C 
ENDBRANCH  14  15
ENDBRANCH   3  14
BRANCH   1  19
HETATM   19  C2  UNL     1      -0.851  36.512  -0.662  1.00  0.00     0.140 C 
HETATM   20  N1  UNL     1      -0.997  37.736  -0.282  1.00  0.00    -0.380 N 
ATOM     21  H12 UNL     1      -1.199  38.490  -0.939  1.00  0.00     0.158 HD
ATOM     22  H11 UNL     1      -0.903  37.932   0.714  1.00  0.00     0.158 HD
BRANCH  19  23
HETATM   23  S1  UNL     1      -1.018  36.167  -2.420  1.00  0.00    -0.099 SA
HETATM   24  C1  UNL     1      -1.987  34.689  -2.701  1.00  0.00     0.099 C 
ENDBRANCH  19  23
ENDBRANCH   1  19
TORSDOF 7
ENDMDL
MODEL 5
REMARK VINA RESULT: -5.589551172      2.029      2.466
REMARK  7 active torsions:
REMARK  status: ('A' for Active; 'I' for Inactive)
REMARK    1  A    between atoms: S1_2  and  C2_3 
REMARK    2  A    between atoms: C2_3  and  N2_7 
REMARK    3  A    between atoms: C3_9  and  N3_10 
REMARK    4  A    between atoms: C3_9  and  O1_20 
REMARK    5  A    between atoms: N3_10  and  N4_12 
REMARK    6  A    between atoms: C4_14  and  C5_15 
REMARK    7  A    between atoms: O1_20  and  C9_21 
ROOT
HETATM    1  N2  UNL     1       2.312  38.876  -1.139  1.00  0.00    -0.302 N 
ATOM      2  H2  UNL     1       2.082  39.704  -1.687  1.00  0.00     0.171 HD
HETATM    3  C3  UNL     1       1.925  37.705  -1.508  1.00  0.00     0.241 C 
ENDROOT
BRANCH   3   4
HETATM    4  N3  UNL     1       2.231  36.530  -0.762  1.00  0.00    -0.265 N 
ATOM      5  H3  UNL     1       3.196  36.210  -0.688  1.00  0.00     0.190 HD
BRANCH   4   6
HETATM    6  N4  UNL     1       1.214  35.817  -0.136  1.00  0.00    -0.308 N 
HETATM    7  C4  UNL     1       0.666  34.797  -0.679  1.00  0.00     0.126 C 
ATOM      8  H4  UNL     1       0.895  36.118   0.785  1.00  0.00     0.186 HD
BRANCH   7   9
HETATM    9  C5  UNL     1      -0.405  34.106   0.065  1.00  0.00     0.021 A 
HETATM   10  C6  UNL     1      -1.732  34.443   0.119  1.00  0.00     0.021 A 
HETATM   11  C7  UNL     1      -2.534  33.669   0.863  1.00  0.00     0.008 A 
HETATM   12  C8  UNL     1      -1.958  32.604   1.509  1.00  0.00     0.050 A 
HETATM   13  S2  UNL     1      -0.320  32.725   1.052  1.00  0.00    -0.101 SA
ENDBRANCH   7   9
ENDBRANCH   4   6
ENDBRANCH   3   4
BRANCH   3  14
HETATM   14  O1  UNL     1       1.192  37.687  -2.681  1.00  0.00    -0.311 OA
BRANCH  14  15
HETATM   15  C9  UNL     1      -0.152  37.938  -2.798  1.00  0.00     0.060 C 
HETATM   16  C10 UNL     1      -0.914  38.187  -1.543  1.00  0.00     0.046 C 
HETATM   17  C11 UNL     1      -0.798  36.716  -3.468  1.00  0.00     0.046 C 
HETATM   18  C12 UNL     1      -0.435  39.108  -3.748  1.00  0.00     0.046 C 
ENDBRANCH  14  15
ENDBRANCH   3  14
BRANCH   1  19
HETATM   19  C2  UNL     1       3.071  38.976   0.058  1.00  0.00     0.140 C 
HETATM   20  N1  UNL     1       4.357  39.063   0.053  1.00  0.00    -0.380 N 
ATOM     21  H12 UNL     1       4.902  39.134   0.913  1.00  0.00     0.158 HD
ATOM     22  H11 UNL     1       4.824  39.059  -0.853  1.00  0.00     0.158 HD
BRANCH  19  23
HETATM   23  S1  UNL     1       2.248  38.983   1.658  1.00  0.00    -0.099 SA
HETATM   24  C1  UNL     1       3.434  39.027   2.997  1.00  0.00     0.099 C 
ENDBRANCH  19  23
ENDBRANCH   1  19
TORSDOF 7
ENDMDL
