MODEL 1
REMARK VINA RESULT: -6.736252552      0.000      0.000
REMARK  2 active torsions:
REMARK  status: ('A' for Active; 'I' for Inactive)
REMARK    1  A    between atoms: C5_6  and  N1_7 
REMARK       I    between atoms: N1_7  and  C6_9 
REMARK       I    between atoms: C6_9  and  N3_11 
REMARK    2  A    between atoms: N3_11  and  N4_13 
ROOT
HETATM    1  N1  UNL     1      -1.268  35.499  -0.580  1.00  0.00    -0.329 N 
ATOM      2  H1  UNL     1      -1.044  36.400  -0.156  1.00  0.00     0.168 HD
HETATM    3  C6  UNL     1      -1.562  35.440  -1.823  1.00  0.00     0.207 C 
HETATM    4  N2  UNL     1      -1.880  34.213  -2.463  1.00  0.00    -0.062 NA
HETATM    5  N3  UNL     1      -1.544  36.694  -2.550  1.00  0.00    -0.274 N 
ATOM      6  H3  UNL     1      -2.247  37.417  -2.396  1.00  0.00     0.189 HD
ENDROOT
BRANCH   5   7
HETATM    7  N4  UNL     1      -0.546  36.851  -3.441  1.00  0.00    -0.305 N 
HETATM    8  C7  UNL     1      -0.052  37.747  -4.134  1.00  0.00     0.021 C 
HETATM    9  C8  UNL     1       1.117  37.385  -5.007  1.00  0.00     0.056 C 
HETATM   10  C11 UNL     1      -0.511  39.130  -4.173  1.00  0.00     0.041 C 
HETATM   11  C9  UNL     1       2.226  38.371  -4.962  1.00  0.00     0.016 C 
HETATM   12  C10 UNL     1       2.340  39.072  -3.636  1.00  0.00     0.075 C 
HETATM   13  S2  UNL     1       0.871  40.131  -3.473  1.00  0.00    -0.154 SA
HETATM   14  C12 UNL     1      -1.739  39.449  -3.391  1.00  0.00     0.033 C 
HETATM   15  C13 UNL     1      -0.769  39.606  -5.603  1.00  0.00     0.033 C 
ATOM     16  H4  UNL     1      -0.051  35.971  -3.586  1.00  0.00     0.186 HD
ENDBRANCH   5   7
BRANCH   1  17
HETATM   17  C5  UNL     1      -1.250  34.287   0.238  1.00  0.00     0.047 A 
HETATM   18  C2  UNL     1      -0.047  33.667   0.493  1.00  0.00     0.005 A 
HETATM   19  C1  UNL     1       1.321  34.079   0.029  1.00  0.00     0.058 C 
HETATM   20  S1  UNL     1      -0.497  32.334   1.453  1.00  0.00    -0.104 SA
HETATM   21  C3  UNL     1      -2.181  32.589   1.509  1.00  0.00     0.052 A 
HETATM   22  C4  UNL     1      -2.342  33.727   0.764  1.00  0.00     0.038 A 
ENDBRANCH   1  17
TORSDOF 2
ENDMDL
MODEL 2
REMARK VINA RESULT: -6.731355170      1.469      2.459
REMARK  2 active torsions:
REMARK  status: ('A' for Active; 'I' for Inactive)
REMARK    1  A    between atoms: C5_6  and  N1_7 
REMARK       I    between atoms: N1_7  and  C6_9 
REMARK       I    between atoms: C6_9  and  N3_11 
REMARK    2  A    between atoms: N3_11  and  N4_13 
ROOT
HETATM    1  N1  UNL     1      -0.779  34.192  -1.046  1.00  0.00    -0.329 N 
ATOM      2  H1  UNL     1      -0.972  33.785  -1.961  1.00  0.00     0.168 HD
HETATM    3  C6  UNL     1      -0.183  35.320  -0.967  1.00  0.00     0.207 C 
HETATM    4  N2  UNL     1       0.109  35.932   0.280  1.00  0.00    -0.062 NA
HETATM    5  N3  UNL     1       0.171  35.951  -2.225  1.00  0.00    -0.274 N 
ATOM      6  H3  UNL     1       0.907  35.579  -2.825  1.00  0.00     0.189 HD
ENDROOT
BRANCH   5   7
HETATM    7  N4  UNL     1      -0.527  37.055  -2.554  1.00  0.00    -0.305 N 
HETATM    8  C7  UNL     1      -0.351  38.274  -2.635  1.00  0.00     0.021 C 
HETATM    9  C8  UNL     1      -1.514  39.117  -3.076  1.00  0.00     0.056 C 
HETATM   10  C11 UNL     1       0.899  38.966  -2.337  1.00  0.00     0.041 C 
HETATM   11  C9  UNL     1      -1.161  40.146  -4.087  1.00  0.00     0.016 C 
HETATM   12  C10 UNL     1      -0.025  39.730  -4.980  1.00  0.00     0.075 C 
HETATM   13  S2  UNL     1       1.468  39.674  -3.942  1.00  0.00    -0.154 SA
HETATM   14  C12 UNL     1       2.009  38.134  -1.793  1.00  0.00     0.033 C 
HETATM   15  C13 UNL     1       0.693  40.118  -1.354  1.00  0.00     0.033 C 
ATOM     16  H4  UNL     1      -1.482  36.812  -2.814  1.00  0.00     0.186 HD
ENDBRANCH   5   7
BRANCH   1  17
HETATM   17  C5  UNL     1      -1.185  33.480   0.166  1.00  0.00     0.047 A 
HETATM   18  C2  UNL     1      -0.300  32.610   0.761  1.00  0.00     0.005 A 
HETATM   19  C1  UNL     1       1.097  32.269   0.323  1.00  0.00     0.058 C 
HETATM   20  S1  UNL     1      -1.176  32.024   2.099  1.00  0.00    -0.104 SA
HETATM   21  C3  UNL     1      -2.630  32.886   1.876  1.00  0.00     0.052 A 
HETATM   22  C4  UNL     1      -2.380  33.617   0.745  1.00  0.00     0.038 A 
ENDBRANCH   1  17
TORSDOF 2
ENDMDL
MODEL 3
REMARK VINA RESULT: -6.610549311      1.697      2.917
REMARK  2 active torsions:
REMARK  status: ('A' for Active; 'I' for Inactive)
REMARK    1  A    between atoms: C5_6  and  N1_7 
REMARK       I    between atoms: N1_7  and  C6_9 
REMARK       I    between atoms: C6_9  and  N3_11 
REMARK    2  A    between atoms: N3_11  and  N4_13 
ROOT
HETATM    1  N1  UNL     1       0.057  34.275  -0.903  1.00  0.00    -0.329 N 
ATOM      2  H1  UNL     1       0.030  33.871  -1.840  1.00  0.00     0.168 HD
HETATM    3  C6  UNL     1       0.411  35.494  -0.750  1.00  0.00     0.207 C 
HETATM    4  N2  UNL     1       0.466  36.106   0.530  1.00  0.00    -0.062 NA
HETATM    5  N3  UNL     1       0.745  36.225  -1.957  1.00  0.00    -0.274 N 
ATOM      6  H3  UNL     1       1.589  36.025  -2.492  1.00  0.00     0.189 HD
ENDROOT
BRANCH   5   7
HETATM    7  N4  UNL     1      -0.124  37.184  -2.331  1.00  0.00    -0.305 N 
HETATM    8  C7  UNL     1      -0.178  38.417  -2.389  1.00  0.00     0.021 C 
HETATM    9  C8  UNL     1      -1.444  39.033  -2.913  1.00  0.00     0.056 C 
HETATM   10  C11 UNL     1       0.892  39.325  -1.991  1.00  0.00     0.041 C 
HETATM   11  C9  UNL     1      -1.219  40.132  -3.885  1.00  0.00     0.016 C 
HETATM   12  C10 UNL     1       0.038  39.958  -4.692  1.00  0.00     0.075 C 
HETATM   13  S2  UNL     1       1.433  40.163  -3.542  1.00  0.00    -0.154 SA
HETATM   14  C12 UNL     1       2.096  38.708  -1.368  1.00  0.00     0.033 C 
HETATM   15  C13 UNL     1       0.398  40.396  -1.018  1.00  0.00     0.033 C 
ATOM     16  H4  UNL     1      -0.994  36.771  -2.665  1.00  0.00     0.186 HD
ENDBRANCH   5   7
BRANCH   1  17
HETATM   17  C5  UNL     1      -0.307  33.456   0.252  1.00  0.00     0.047 A 
HETATM   18  C2  UNL     1      -1.629  33.378   0.630  1.00  0.00     0.005 A 
HETATM   19  C1  UNL     1      -2.812  34.049  -0.009  1.00  0.00     0.058 C 
HETATM   20  S1  UNL     1      -1.582  32.347   1.985  1.00  0.00    -0.104 SA
HETATM   21  C3  UNL     1       0.093  32.041   2.042  1.00  0.00     0.052 A 
HETATM   22  C4  UNL     1       0.571  32.765   0.983  1.00  0.00     0.038 A 
ENDBRANCH   1  17
TORSDOF 2
ENDMDL
MODEL 4
REMARK VINA RESULT: -6.573642239      0.959      1.771
REMARK  2 active torsions:
REMARK  status: ('A' for Active; 'I' for Inactive)
REMARK    1  A    between atoms: C5_6  and  N1_7 
REMARK       I    between atoms: N1_7  and  C6_9 
REMARK       I    between atoms: C6_9  and  N3_11 
REMARK    2  A    between atoms: N3_11  and  N4_13 
ROOT
HETATM    1  N1  UNL     1      -0.517  35.107  -0.597  1.00  0.00    -0.329 N 
ATOM      2  H1  UNL     1      -0.259  35.999  -0.174  1.00  0.00     0.168 HD
HETATM    3  C6  UNL     1      -1.247  35.092  -1.647  1.00  0.00     0.207 C 
HETATM    4  N2  UNL     1      -1.634  33.879  -2.276  1.00  0.00    -0.062 NA
HETATM    5  N3  UNL     1      -1.653  36.382  -2.169  1.00  0.00    -0.274 N 
ATOM      6  H3  UNL     1      -2.327  36.973  -1.682  1.00  0.00     0.189 HD
ENDROOT
BRANCH   5   7
HETATM    7  N4  UNL     1      -1.089  36.757  -3.333  1.00  0.00    -0.305 N 
HETATM    8  C7  UNL     1      -0.624  37.776  -3.854  1.00  0.00     0.021 C 
HETATM    9  C8  UNL     1      -0.087  37.659  -5.252  1.00  0.00     0.056 C 
HETATM   10  C11 UNL     1      -0.551  39.087  -3.219  1.00  0.00     0.041 C 
HETATM   11  C9  UNL     1       1.220  38.333  -5.451  1.00  0.00     0.016 C 
HETATM   12  C10 UNL     1       2.072  38.346  -4.212  1.00  0.00     0.075 C 
HETATM   13  S2  UNL     1       1.247  39.442  -3.018  1.00  0.00    -0.154 SA
HETATM   14  C12 UNL     1      -1.189  39.217  -1.878  1.00  0.00     0.033 C 
HETATM   15  C13 UNL     1      -1.158  40.181  -4.098  1.00  0.00     0.033 C 
ATOM     16  H4  UNL     1      -1.028  35.967  -3.974  1.00  0.00     0.186 HD
ENDBRANCH   5   7
BRANCH   1  17
HETATM   17  C5  UNL     1      -0.049  33.858   0.001  1.00  0.00     0.047 A 
HETATM   18  C2  UNL     1      -0.905  33.134   0.801  1.00  0.00     0.005 A 
HETATM   19  C1  UNL     1      -2.326  33.461   1.165  1.00  0.00     0.058 C 
HETATM   20  S1  UNL     1       0.040  31.797   1.267  1.00  0.00    -0.104 SA
HETATM   21  C3  UNL     1       1.485  32.180   0.447  1.00  0.00     0.052 A 
HETATM   22  C4  UNL     1       1.177  33.360  -0.176  1.00  0.00     0.038 A 
ENDBRANCH   1  17
TORSDOF 2
ENDMDL
MODEL 5
REMARK VINA RESULT: -6.503056735      1.849      2.933
REMARK  2 active torsions:
REMARK  status: ('A' for Active; 'I' for Inactive)
REMARK    1  A    between atoms: C5_6  and  N1_7 
REMARK       I    between atoms: N1_7  and  C6_9 
REMARK       I    between atoms: C6_9  and  N3_11 
REMARK    2  A    between atoms: N3_11  and  N4_13 
ROOT
HETATM    1  N1  UNL     1       0.887  35.201  -1.081  1.00  0.00    -0.329 N 
ATOM      2  H1  UNL     1       1.076  34.959  -2.054  1.00  0.00     0.168 HD
HETATM    3  C6  UNL     1       1.452  36.225  -0.562  1.00  0.00     0.207 C 
HETATM    4  N2  UNL     1       1.224  36.606   0.786  1.00  0.00    -0.062 NA
HETATM    5  N3  UNL     1       2.333  36.983  -1.429  1.00  0.00    -0.274 N 
ATOM      6  H3  UNL     1       3.232  36.616  -1.738  1.00  0.00     0.189 HD
ENDROOT
BRANCH   5   7
HETATM    7  N4  UNL     1       1.894  38.201  -1.804  1.00  0.00    -0.305 N 
HETATM    8  C7  UNL     1       1.497  38.771  -2.824  1.00  0.00     0.021 C 
HETATM    9  C8  UNL     1       1.104  40.217  -2.705  1.00  0.00     0.056 C 
HETATM   10  C11 UNL     1       1.376  38.153  -4.140  1.00  0.00     0.041 C 
HETATM   11  C9  UNL     1      -0.169  40.551  -3.392  1.00  0.00     0.016 C 
HETATM   12  C10 UNL     1      -1.142  39.405  -3.424  1.00  0.00     0.075 C 
HETATM   13  S2  UNL     1      -0.429  38.138  -4.517  1.00  0.00    -0.154 SA
HETATM   14  C12 UNL     1       1.876  36.756  -4.271  1.00  0.00     0.033 C 
HETATM   15  C13 UNL     1       2.083  38.972  -5.222  1.00  0.00     0.033 C 
ATOM     16  H4  UNL     1       1.889  38.841  -1.010  1.00  0.00     0.186 HD
ENDBRANCH   5   7
BRANCH   1  17
HETATM   17  C5  UNL     1      -0.025  34.375  -0.292  1.00  0.00     0.047 A 
HETATM   18  C2  UNL     1       0.467  33.268   0.362  1.00  0.00     0.005 A 
HETATM   19  C1  UNL     1       1.882  32.760   0.382  1.00  0.00     0.058 C 
HETATM   20  S1  UNL     1      -0.912  32.628   1.129  1.00  0.00    -0.104 SA
HETATM   21  C3  UNL     1      -2.070  33.766   0.609  1.00  0.00     0.052 A 
HETATM   22  C4  UNL     1      -1.330  34.624  -0.159  1.00  0.00     0.038 A 
ENDBRANCH   1  17
TORSDOF 2
ENDMDL
