MODEL 1
REMARK VINA RESULT: -9.496458956      0.000      0.000
REMARK  10 active torsions:
REMARK  status: ('A' for Active; 'I' for Inactive)
REMARK    1  A    between atoms: C2_2  and  N1_3 
REMARK    2  A    between atoms: C2_2  and  C10_14 
REMARK       I    between atoms: N1_3  and  C3_5 
REMARK       I    between atoms: C3_5  and  N2_7 
REMARK    3  A    between atoms: C10_14  and  O3_16 
REMARK    4  A    between atoms: O3_16  and  C11_17 
REMARK    5  A    between atoms: C14_22  and  N3_23 
REMARK       I    between atoms: N3_23  and  C15_25 
REMARK    6  A    between atoms: C15_25  and  C16_27 
REMARK    7  A    between atoms: C16_27  and  C17_28 
REMARK    8  A    between atoms: C16_27  and  N4_37 
REMARK    9  A    between atoms: C17_28  and  C18_29 
REMARK       I    between atoms: N4_37  and  C25_39 
REMARK   10  A    between atoms: C25_39  and  C26_41 
ROOT
HETATM    1  N3  UNL     1       7.537  20.412   5.396  1.00  0.00    -0.349 N 
ATOM      2  H3  UNL     1       7.248  21.281   5.844  1.00  0.00     0.163 HD
HETATM    3  C15 UNL     1       6.899  19.183   5.710  1.00  0.00     0.240 C 
HETATM    4  O6  UNL     1       7.228  18.100   5.188  1.00  0.00    -0.271 OA
ENDROOT
BRANCH   3   5
HETATM    5  C16 UNL     1       5.764  19.139   6.714  1.00  0.00     0.177 C 
BRANCH   5   6
HETATM    6  C17 UNL     1       5.384  17.703   6.838  1.00  0.00     0.039 C 
BRANCH   6   7
HETATM    7  C18 UNL     1       4.728  17.275   8.093  1.00  0.00    -0.012 C 
HETATM    8  C19 UNL     1       3.315  17.811   8.248  1.00  0.00     0.005 C 
HETATM    9  C20 UNL     1       2.966  17.805   9.719  1.00  0.00     0.003 C 
HETATM   10  C21 UNL     1       2.423  16.478  10.166  1.00  0.00     0.037 C 
HETATM   11  C22 UNL     1       3.461  15.484  10.567  1.00  0.00     0.170 C 
HETATM   12  F1  UNL     1       3.666  15.558  11.949  1.00  0.00    -0.249 F 
HETATM   13  C23 UNL     1       4.800  15.655   9.927  1.00  0.00     0.037 C 
HETATM   14  C24 UNL     1       4.714  15.819   8.400  1.00  0.00     0.007 C 
ENDBRANCH   6   7
ENDBRANCH   5   6
BRANCH   5  15
HETATM   15  N4  UNL     1       4.655  19.917   6.222  1.00  0.00    -0.347 N 
HETATM   16  C25 UNL     1       4.289  21.130   6.833  1.00  0.00     0.224 C 
HETATM   17  O7  UNL     1       4.997  21.487   7.841  1.00  0.00    -0.273 OA
ATOM     18  H4  UNL     1       4.125  19.582   5.417  1.00  0.00     0.163 HD
BRANCH  16  19
HETATM   19  C26 UNL     1       3.202  22.022   6.451  1.00  0.00     0.110 C 
HETATM   20  C27 UNL     1       3.686  23.334   5.810  1.00  0.00     0.049 C 
HETATM   21  C28 UNL     1       2.560  23.533   4.793  1.00  0.00     0.187 C 
HETATM   22  C29 UNL     1       1.277  23.643   5.551  1.00  0.00     0.035 C 
HETATM   23  N5  UNL     1       2.497  22.162   4.255  1.00  0.00    -0.066 N 
HETATM   24  C30 UNL     1       0.863  22.203   5.842  1.00  0.00     0.036 C 
HETATM   25  C31 UNL     1       2.176  21.485   5.525  1.00  0.00     0.199 C 
ATOM     26  H52 UNL     1       1.866  22.000   3.470  1.00  0.00     0.278 HD
ATOM     27  H51 UNL     1       3.313  21.826   3.743  1.00  0.00     0.278 HD
ENDBRANCH  16  19
ENDBRANCH   5  15
ENDBRANCH   3   5
BRANCH   1  28
HETATM   28  C14 UNL     1       8.609  20.401   4.423  1.00  0.00     0.150 C 
HETATM   29  C11 UNL     1       9.964  20.489   4.995  1.00  0.00     0.302 C 
HETATM   30  O4  UNL     1      10.752  21.048   3.966  1.00  0.00    -0.287 OA
HETATM   31  C12 UNL     1       9.952  21.914   3.255  1.00  0.00     0.263 C 
HETATM   32  O5  UNL     1      10.448  22.786   2.467  1.00  0.00    -0.265 OA
HETATM   33  C13 UNL     1       8.524  21.667   3.551  1.00  0.00     0.141 C 
BRANCH  29  34
HETATM   34  O3  UNL     1       9.969  21.444   6.080  1.00  0.00    -0.285 OA
BRANCH  34  35
HETATM   35  C10 UNL     1      10.933  21.335   7.057  1.00  0.00     0.283 C 
HETATM   36  O2  UNL     1      11.039  22.243   7.910  1.00  0.00    -0.263 OA
BRANCH  35  37
HETATM   37  C2  UNL     1      11.878  20.199   7.178  1.00  0.00     0.182 C 
HETATM   38  C1  UNL     1      13.284  20.702   7.482  1.00  0.00     0.043 C 
BRANCH  37  39
HETATM   39  N1  UNL     1      11.421  19.396   8.332  1.00  0.00    -0.330 N 
HETATM   40  C3  UNL     1      10.856  18.126   8.154  1.00  0.00     0.319 C 
HETATM   41  O1  UNL     1      10.784  17.723   6.935  1.00  0.00    -0.247 OA
HETATM   42  N2  UNL     1      10.368  17.257   9.115  1.00  0.00    -0.330 N 
HETATM   43  C4  UNL     1      10.376  17.650  10.530  1.00  0.00     0.128 C 
HETATM   44  C8  UNL     1       9.810  15.938   8.888  1.00  0.00     0.085 C 
HETATM   45  C5  UNL     1       8.909  17.743  10.918  1.00  0.00     0.020 C 
HETATM   46  C6  UNL     1       8.235  16.441  10.675  1.00  0.00     0.004 C 
HETATM   47  C7  UNL     1       8.343  15.947   9.258  1.00  0.00     0.025 C 
HETATM   48  C9  UNL     1       9.989  15.378   7.532  1.00  0.00     0.032 C 
ATOM     49  H1  UNL     1      11.519  19.773   9.275  1.00  0.00     0.165 HD
ENDBRANCH  37  39
ENDBRANCH  35  37
ENDBRANCH  34  35
ENDBRANCH  29  34
ENDBRANCH   1  28
TORSDOF 10
ENDMDL
MODEL 2
REMARK VINA RESULT: -9.439512740      0.591      1.052
REMARK  10 active torsions:
REMARK  status: ('A' for Active; 'I' for Inactive)
REMARK    1  A    between atoms: C2_2  and  N1_3 
REMARK    2  A    between atoms: C2_2  and  C10_14 
REMARK       I    between atoms: N1_3  and  C3_5 
REMARK       I    between atoms: C3_5  and  N2_7 
REMARK    3  A    between atoms: C10_14  and  O3_16 
REMARK    4  A    between atoms: O3_16  and  C11_17 
REMARK    5  A    between atoms: C14_22  and  N3_23 
REMARK       I    between atoms: N3_23  and  C15_25 
REMARK    6  A    between atoms: C15_25  and  C16_27 
REMARK    7  A    between atoms: C16_27  and  C17_28 
REMARK    8  A    between atoms: C16_27  and  N4_37 
REMARK    9  A    between atoms: C17_28  and  C18_29 
REMARK       I    between atoms: N4_37  and  C25_39 
REMARK   10  A    between atoms: C25_39  and  C26_41 
ROOT
HETATM    1  N3  UNL     1       7.414  20.612   4.972  1.00  0.00    -0.349 N 
ATOM      2  H3  UNL     1       6.928  21.450   5.289  1.00  0.00     0.163 HD
HETATM    3  C15 UNL     1       6.985  19.322   5.384  1.00  0.00     0.240 C 
HETATM    4  O6  UNL     1       7.556  18.274   5.022  1.00  0.00    -0.271 OA
ENDROOT
BRANCH   3   5
HETATM    5  C16 UNL     1       5.785  19.165   6.296  1.00  0.00     0.177 C 
BRANCH   5   6
HETATM    6  C17 UNL     1       5.368  17.738   6.180  1.00  0.00     0.039 C 
BRANCH   6   7
HETATM    7  C18 UNL     1       4.747  17.108   7.366  1.00  0.00    -0.012 C 
HETATM    8  C19 UNL     1       5.626  16.055   8.019  1.00  0.00     0.005 C 
HETATM    9  C20 UNL     1       4.737  15.123   8.812  1.00  0.00     0.003 C 
HETATM   10  C21 UNL     1       4.469  15.639  10.196  1.00  0.00     0.037 C 
HETATM   11  C22 UNL     1       3.314  16.577  10.298  1.00  0.00     0.170 C 
HETATM   12  F1  UNL     1       2.161  15.859  10.637  1.00  0.00    -0.249 F 
HETATM   13  C23 UNL     1       2.991  17.341   9.056  1.00  0.00     0.037 C 
HETATM   14  C24 UNL     1       4.226  18.010   8.430  1.00  0.00     0.007 C 
ENDBRANCH   6   7
ENDBRANCH   5   6
BRANCH   5  15
HETATM   15  N4  UNL     1       4.727  20.039   5.858  1.00  0.00    -0.347 N 
HETATM   16  C25 UNL     1       4.371  21.181   6.600  1.00  0.00     0.224 C 
HETATM   17  O7  UNL     1       5.040  21.381   7.675  1.00  0.00    -0.273 OA
ATOM     18  H4  UNL     1       4.227  19.828   4.994  1.00  0.00     0.163 HD
BRANCH  16  19
HETATM   19  C26 UNL     1       3.334  22.154   6.285  1.00  0.00     0.110 C 
HETATM   20  C27 UNL     1       3.871  23.412   5.582  1.00  0.00     0.049 C 
HETATM   21  C28 UNL     1       2.688  23.690   4.651  1.00  0.00     0.187 C 
HETATM   22  C29 UNL     1       1.482  23.916   5.504  1.00  0.00     0.035 C 
HETATM   23  N5  UNL     1       2.471  22.321   4.148  1.00  0.00    -0.066 N 
HETATM   24  C30 UNL     1       0.976  22.519   5.856  1.00  0.00     0.036 C 
HETATM   25  C31 UNL     1       2.197  21.691   5.453  1.00  0.00     0.199 C 
ATOM     26  H52 UNL     1       1.769  22.201   3.418  1.00  0.00     0.278 HD
ATOM     27  H51 UNL     1       3.214  21.911   3.581  1.00  0.00     0.278 HD
ENDBRANCH  16  19
ENDBRANCH   5  15
ENDBRANCH   3   5
BRANCH   1  28
HETATM   28  C14 UNL     1       8.560  20.706   4.092  1.00  0.00     0.150 C 
HETATM   29  C11 UNL     1       9.861  20.788   4.777  1.00  0.00     0.302 C 
HETATM   30  O4  UNL     1      10.708  21.446   3.861  1.00  0.00    -0.287 OA
HETATM   31  C12 UNL     1       9.938  22.343   3.155  1.00  0.00     0.263 C 
HETATM   32  O5  UNL     1      10.465  23.287   2.477  1.00  0.00    -0.265 OA
HETATM   33  C13 UNL     1       8.501  22.034   3.314  1.00  0.00     0.141 C 
BRANCH  29  34
HETATM   34  O3  UNL     1       9.748  21.654   5.928  1.00  0.00    -0.285 OA
BRANCH  34  35
HETATM   35  C10 UNL     1      10.665  21.531   6.946  1.00  0.00     0.283 C 
HETATM   36  O2  UNL     1      10.750  22.439   7.802  1.00  0.00    -0.263 OA
BRANCH  35  37
HETATM   37  C2  UNL     1      11.583  20.377   7.111  1.00  0.00     0.182 C 
HETATM   38  C1  UNL     1      12.994  20.858   7.429  1.00  0.00     0.043 C 
BRANCH  37  39
HETATM   39  N1  UNL     1      11.089  19.612   8.276  1.00  0.00    -0.330 N 
HETATM   40  C3  UNL     1      10.910  18.225   8.208  1.00  0.00     0.319 C 
HETATM   41  O1  UNL     1      11.217  17.685   7.082  1.00  0.00    -0.247 OA
HETATM   42  N2  UNL     1      10.447  17.366   9.191  1.00  0.00    -0.330 N 
HETATM   43  C4  UNL     1      10.036  17.900  10.497  1.00  0.00     0.128 C 
HETATM   44  C8  UNL     1      10.297  15.928   9.086  1.00  0.00     0.085 C 
HETATM   45  C5  UNL     1       8.544  17.626  10.579  1.00  0.00     0.020 C 
HETATM   46  C6  UNL     1       8.284  16.170  10.434  1.00  0.00     0.004 C 
HETATM   47  C7  UNL     1       8.828  15.572   9.165  1.00  0.00     0.025 C 
HETATM   48  C9  UNL     1      10.910  15.293   7.901  1.00  0.00     0.032 C 
ATOM     49  H1  UNL     1      10.875  20.104   9.144  1.00  0.00     0.165 HD
ENDBRANCH  37  39
ENDBRANCH  35  37
ENDBRANCH  34  35
ENDBRANCH  29  34
ENDBRANCH   1  28
TORSDOF 10
ENDMDL
MODEL 3
REMARK VINA RESULT: -9.191780864      0.924      1.357
REMARK  10 active torsions:
REMARK  status: ('A' for Active; 'I' for Inactive)
REMARK    1  A    between atoms: C2_2  and  N1_3 
REMARK    2  A    between atoms: C2_2  and  C10_14 
REMARK       I    between atoms: N1_3  and  C3_5 
REMARK       I    between atoms: C3_5  and  N2_7 
REMARK    3  A    between atoms: C10_14  and  O3_16 
REMARK    4  A    between atoms: O3_16  and  C11_17 
REMARK    5  A    between atoms: C14_22  and  N3_23 
REMARK       I    between atoms: N3_23  and  C15_25 
REMARK    6  A    between atoms: C15_25  and  C16_27 
REMARK    7  A    between atoms: C16_27  and  C17_28 
REMARK    8  A    between atoms: C16_27  and  N4_37 
REMARK    9  A    between atoms: C17_28  and  C18_29 
REMARK       I    between atoms: N4_37  and  C25_39 
REMARK   10  A    between atoms: C25_39  and  C26_41 
ROOT
HETATM    1  N3  UNL     1       7.101  20.088   5.763  1.00  0.00    -0.349 N 
ATOM      2  H3  UNL     1       6.919  20.778   6.492  1.00  0.00     0.163 HD
HETATM    3  C15 UNL     1       6.439  18.832   5.768  1.00  0.00     0.240 C 
HETATM    4  O6  UNL     1       6.639  17.961   4.898  1.00  0.00    -0.271 OA
ENDROOT
BRANCH   3   5
HETATM    5  C16 UNL     1       5.437  18.493   6.853  1.00  0.00     0.177 C 
BRANCH   5   6
HETATM    6  C17 UNL     1       5.114  17.048   6.675  1.00  0.00     0.039 C 
BRANCH   6   7
HETATM    7  C18 UNL     1       4.911  16.237   7.895  1.00  0.00    -0.012 C 
HETATM    8  C19 UNL     1       5.836  15.035   7.980  1.00  0.00     0.005 C 
HETATM    9  C20 UNL     1       5.204  14.015   8.900  1.00  0.00     0.003 C 
HETATM   10  C21 UNL     1       5.538  14.271  10.341  1.00  0.00     0.037 C 
HETATM   11  C22 UNL     1       4.628  15.230  11.032  1.00  0.00     0.170 C 
HETATM   12  F1  UNL     1       3.609  14.521  11.677  1.00  0.00    -0.249 F 
HETATM   13  C23 UNL     1       3.958  16.233  10.150  1.00  0.00     0.037 C 
HETATM   14  C24 UNL     1       4.940  16.945   9.204  1.00  0.00     0.007 C 
ENDBRANCH   6   7
ENDBRANCH   5   6
BRANCH   5  15
HETATM   15  N4  UNL     1       4.256  19.301   6.690  1.00  0.00    -0.347 N 
HETATM   16  C25 UNL     1       4.109  20.524   7.371  1.00  0.00     0.224 C 
HETATM   17  O7  UNL     1       5.083  20.859   8.135  1.00  0.00    -0.273 OA
ATOM     18  H4  UNL     1       3.512  18.982   6.069  1.00  0.00     0.163 HD
BRANCH  16  19
HETATM   19  C26 UNL     1       2.983  21.446   7.305  1.00  0.00     0.110 C 
HETATM   20  C27 UNL     1       3.315  22.764   6.585  1.00  0.00     0.049 C 
HETATM   21  C28 UNL     1       1.968  23.010   5.903  1.00  0.00     0.187 C 
HETATM   22  C29 UNL     1       0.931  23.125   6.973  1.00  0.00     0.035 C 
HETATM   23  N5  UNL     1       1.731  21.654   5.373  1.00  0.00    -0.066 N 
HETATM   24  C30 UNL     1       0.571  21.686   7.335  1.00  0.00     0.036 C 
HETATM   25  C31 UNL     1       1.737  20.952   6.670  1.00  0.00     0.199 C 
ATOM     26  H52 UNL     1       0.913  21.524   4.779  1.00  0.00     0.278 HD
ATOM     27  H51 UNL     1       2.376  21.316   4.659  1.00  0.00     0.278 HD
ENDBRANCH  16  19
ENDBRANCH   5  15
ENDBRANCH   3   5
BRANCH   1  28
HETATM   28  C14 UNL     1       8.041  20.365   4.698  1.00  0.00     0.150 C 
HETATM   29  C11 UNL     1       9.447  20.468   5.125  1.00  0.00     0.302 C 
HETATM   30  O4  UNL     1      10.059  21.286   4.151  1.00  0.00    -0.287 OA
HETATM   31  C12 UNL     1       9.117  22.195   3.722  1.00  0.00     0.263 C 
HETATM   32  O5  UNL     1       9.449  23.246   3.078  1.00  0.00    -0.265 OA
HETATM   33  C13 UNL     1       7.759  21.763   4.116  1.00  0.00     0.141 C 
BRANCH  29  34
HETATM   34  O3  UNL     1       9.521  21.191   6.374  1.00  0.00    -0.285 OA
BRANCH  34  35
HETATM   35  C10 UNL     1      10.755  21.422   6.937  1.00  0.00     0.283 C 
HETATM   36  O2  UNL     1      11.062  22.586   7.274  1.00  0.00    -0.263 OA
BRANCH  35  37
HETATM   37  C2  UNL     1      11.775  20.372   7.178  1.00  0.00     0.182 C 
HETATM   38  C1  UNL     1      13.111  21.001   7.557  1.00  0.00     0.043 C 
BRANCH  37  39
HETATM   39  N1  UNL     1      11.298  19.584   8.335  1.00  0.00    -0.330 N 
HETATM   40  C3  UNL     1      11.047  18.210   8.221  1.00  0.00     0.319 C 
HETATM   41  O1  UNL     1      11.275  17.703   7.061  1.00  0.00    -0.247 OA
HETATM   42  N2  UNL     1      10.588  17.335   9.191  1.00  0.00    -0.330 N 
HETATM   43  C4  UNL     1      10.266  17.833  10.535  1.00  0.00     0.128 C 
HETATM   44  C8  UNL     1      10.363  15.911   9.037  1.00  0.00     0.085 C 
HETATM   45  C5  UNL     1       8.767  17.628  10.679  1.00  0.00     0.020 C 
HETATM   46  C6  UNL     1       8.428  16.193  10.489  1.00  0.00     0.004 C 
HETATM   47  C7  UNL     1       8.883  15.623   9.173  1.00  0.00     0.025 C 
HETATM   48  C9  UNL     1      10.888  15.297   7.800  1.00  0.00     0.032 C 
ATOM     49  H1  UNL     1      11.149  20.049   9.231  1.00  0.00     0.165 HD
ENDBRANCH  37  39
ENDBRANCH  35  37
ENDBRANCH  34  35
ENDBRANCH  29  34
ENDBRANCH   1  28
TORSDOF 10
ENDMDL
MODEL 4
REMARK VINA RESULT: -9.081930174      2.270      4.965
REMARK  10 active torsions:
REMARK  status: ('A' for Active; 'I' for Inactive)
REMARK    1  A    between atoms: C2_2  and  N1_3 
REMARK    2  A    between atoms: C2_2  and  C10_14 
REMARK       I    between atoms: N1_3  and  C3_5 
REMARK       I    between atoms: C3_5  and  N2_7 
REMARK    3  A    between atoms: C10_14  and  O3_16 
REMARK    4  A    between atoms: O3_16  and  C11_17 
REMARK    5  A    between atoms: C14_22  and  N3_23 
REMARK       I    between atoms: N3_23  and  C15_25 
REMARK    6  A    between atoms: C15_25  and  C16_27 
REMARK    7  A    between atoms: C16_27  and  C17_28 
REMARK    8  A    between atoms: C16_27  and  N4_37 
REMARK    9  A    between atoms: C17_28  and  C18_29 
REMARK       I    between atoms: N4_37  and  C25_39 
REMARK   10  A    between atoms: C25_39  and  C26_41 
ROOT
HETATM    1  N3  UNL     1       6.793  20.085   5.503  1.00  0.00    -0.349 N 
ATOM      2  H3  UNL     1       6.466  20.874   6.060  1.00  0.00     0.163 HD
HETATM    3  C15 UNL     1       6.201  18.801   5.643  1.00  0.00     0.240 C 
HETATM    4  O6  UNL     1       6.576  17.811   4.983  1.00  0.00    -0.271 OA
ENDROOT
BRANCH   3   5
HETATM    5  C16 UNL     1       5.062  18.580   6.618  1.00  0.00     0.177 C 
BRANCH   5   6
HETATM    6  C17 UNL     1       4.645  19.937   7.072  1.00  0.00     0.039 C 
BRANCH   6   7
HETATM    7  C18 UNL     1       3.219  20.301   6.920  1.00  0.00    -0.012 C 
HETATM    8  C19 UNL     1       2.375  19.950   8.134  1.00  0.00     0.005 C 
HETATM    9  C20 UNL     1       0.934  19.831   7.690  1.00  0.00     0.003 C 
HETATM   10  C21 UNL     1       0.232  21.158   7.688  1.00  0.00     0.037 C 
HETATM   11  C22 UNL     1       0.393  21.946   6.431  1.00  0.00     0.170 C 
HETATM   12  F1  UNL     1      -0.684  21.683   5.577  1.00  0.00    -0.249 F 
HETATM   13  C23 UNL     1       1.636  21.669   5.650  1.00  0.00     0.037 C 
HETATM   14  C24 UNL     1       2.904  21.699   6.518  1.00  0.00     0.007 C 
ENDBRANCH   6   7
ENDBRANCH   5   6
BRANCH   5  15
HETATM   15  N4  UNL     1       5.526  17.792   7.731  1.00  0.00    -0.347 N 
HETATM   16  C25 UNL     1       4.731  16.770   8.282  1.00  0.00     0.224 C 
HETATM   17  O7  UNL     1       3.585  16.595   7.734  1.00  0.00    -0.273 OA
ATOM     18  H4  UNL     1       6.447  17.979   8.128  1.00  0.00     0.163 HD
BRANCH  16  19
HETATM   19  C26 UNL     1       5.062  15.894   9.397  1.00  0.00     0.110 C 
HETATM   20  C27 UNL     1       4.073  16.000  10.571  1.00  0.00     0.049 C 
HETATM   21  C28 UNL     1       4.081  14.539  11.024  1.00  0.00     0.187 C 
HETATM   22  C29 UNL     1       5.481  14.191  11.415  1.00  0.00     0.035 C 
HETATM   23  N5  UNL     1       3.948  13.892   9.705  1.00  0.00    -0.066 N 
HETATM   24  C30 UNL     1       6.192  13.868  10.103  1.00  0.00     0.036 C 
HETATM   25  C31 UNL     1       5.180  14.444   9.110  1.00  0.00     0.199 C 
ATOM     26  H52 UNL     1       3.841  12.878   9.694  1.00  0.00     0.278 HD
ATOM     27  H51 UNL     1       3.077  14.048   9.198  1.00  0.00     0.278 HD
ENDBRANCH  16  19
ENDBRANCH   5  15
ENDBRANCH   3   5
BRANCH   1  28
HETATM   28  C14 UNL     1       7.871  20.245   4.550  1.00  0.00     0.150 C 
HETATM   29  C11 UNL     1       9.221  20.236   5.137  1.00  0.00     0.302 C 
HETATM   30  O4  UNL     1      10.013  20.966   4.226  1.00  0.00    -0.287 OA
HETATM   31  C12 UNL     1       9.215  21.941   3.671  1.00  0.00     0.263 C 
HETATM   32  O5  UNL     1       9.713  22.938   3.049  1.00  0.00    -0.265 OA
HETATM   33  C13 UNL     1       7.786  21.643   3.910  1.00  0.00     0.141 C 
BRANCH  29  34
HETATM   34  O3  UNL     1       9.217  20.988   6.372  1.00  0.00    -0.285 OA
BRANCH  34  35
HETATM   35  C10 UNL     1      10.415  21.423   6.889  1.00  0.00     0.283 C 
HETATM   36  O2  UNL     1      10.565  22.640   7.135  1.00  0.00    -0.263 OA
BRANCH  35  37
HETATM   37  C2  UNL     1      11.570  20.541   7.184  1.00  0.00     0.182 C 
HETATM   38  C1  UNL     1      12.786  21.367   7.585  1.00  0.00     0.043 C 
BRANCH  37  39
HETATM   39  N1  UNL     1      11.179  19.713   8.345  1.00  0.00    -0.330 N 
HETATM   40  C3  UNL     1      10.975  18.333   8.216  1.00  0.00     0.319 C 
HETATM   41  O1  UNL     1      11.167  17.857   7.036  1.00  0.00    -0.247 OA
HETATM   42  N2  UNL     1      10.596  17.423   9.188  1.00  0.00    -0.330 N 
HETATM   43  C4  UNL     1      10.319  17.883  10.555  1.00  0.00     0.128 C 
HETATM   44  C8  UNL     1      10.418  15.994   9.015  1.00  0.00     0.085 C 
HETATM   45  C5  UNL     1       8.838  17.617  10.765  1.00  0.00     0.020 C 
HETATM   46  C6  UNL     1       8.546  16.173  10.562  1.00  0.00     0.004 C 
HETATM   47  C7  UNL     1       8.959  15.646   9.215  1.00  0.00     0.025 C 
HETATM   48  C9  UNL     1      10.907  15.424   7.743  1.00  0.00     0.032 C 
ATOM     49  H1  UNL     1      11.055  20.155   9.257  1.00  0.00     0.165 HD
ENDBRANCH  37  39
ENDBRANCH  35  37
ENDBRANCH  34  35
ENDBRANCH  29  34
ENDBRANCH   1  28
TORSDOF 10
ENDMDL
MODEL 5
REMARK VINA RESULT: -8.947442218      2.115      3.620
REMARK  10 active torsions:
REMARK  status: ('A' for Active; 'I' for Inactive)
REMARK    1  A    between atoms: C2_2  and  N1_3 
REMARK    2  A    between atoms: C2_2  and  C10_14 
REMARK       I    between atoms: N1_3  and  C3_5 
REMARK       I    between atoms: C3_5  and  N2_7 
REMARK    3  A    between atoms: C10_14  and  O3_16 
REMARK    4  A    between atoms: O3_16  and  C11_17 
REMARK    5  A    between atoms: C14_22  and  N3_23 
REMARK       I    between atoms: N3_23  and  C15_25 
REMARK    6  A    between atoms: C15_25  and  C16_27 
REMARK    7  A    between atoms: C16_27  and  C17_28 
REMARK    8  A    between atoms: C16_27  and  N4_37 
REMARK    9  A    between atoms: C17_28  and  C18_29 
REMARK       I    between atoms: N4_37  and  C25_39 
REMARK   10  A    between atoms: C25_39  and  C26_41 
ROOT
HETATM    1  N3  UNL     1       7.027  20.125   6.733  1.00  0.00    -0.349 N 
ATOM      2  H3  UNL     1       6.857  20.683   7.570  1.00  0.00     0.163 HD
HETATM    3  C15 UNL     1       6.088  19.149   6.305  1.00  0.00     0.240 C 
HETATM    4  O6  UNL     1       6.264  18.445   5.291  1.00  0.00    -0.271 OA
ENDROOT
BRANCH   3   5
HETATM    5  C16 UNL     1       4.805  18.924   7.078  1.00  0.00     0.177 C 
BRANCH   5   6
HETATM    6  C17 UNL     1       4.589  17.449   7.090  1.00  0.00     0.039 C 
BRANCH   6   7
HETATM    7  C18 UNL     1       4.577  16.770   8.404  1.00  0.00    -0.012 C 
HETATM    8  C19 UNL     1       3.201  16.722   9.046  1.00  0.00     0.005 C 
HETATM    9  C20 UNL     1       3.380  16.544  10.537  1.00  0.00     0.003 C 
HETATM   10  C21 UNL     1       3.517  15.099  10.921  1.00  0.00     0.037 C 
HETATM   11  C22 UNL     1       4.909  14.565  10.846  1.00  0.00     0.170 C 
HETATM   12  F1  UNL     1       5.516  14.674  12.102  1.00  0.00    -0.249 F 
HETATM   13  C23 UNL     1       5.812  15.250   9.874  1.00  0.00     0.037 C 
HETATM   14  C24 UNL     1       5.178  15.410   8.482  1.00  0.00     0.007 C 
ENDBRANCH   6   7
ENDBRANCH   5   6
BRANCH   5  15
HETATM   15  N4  UNL     1       3.716  19.591   6.412  1.00  0.00    -0.347 N 
HETATM   16  C25 UNL     1       2.646  20.145   7.139  1.00  0.00     0.224 C 
HETATM   17  O7  UNL     1       2.708  20.014   8.413  1.00  0.00    -0.273 OA
ATOM     18  H4  UNL     1       3.719  19.663   5.394  1.00  0.00     0.163 HD
BRANCH  16  19
HETATM   19  C26 UNL     1       1.484  20.847   6.610  1.00  0.00     0.110 C 
HETATM   20  C27 UNL     1       0.147  20.281   7.118  1.00  0.00     0.049 C 
HETATM   21  C28 UNL     1      -0.646  21.586   7.210  1.00  0.00     0.187 C 
HETATM   22  C29 UNL     1      -0.699  22.183   5.841  1.00  0.00     0.035 C 
HETATM   23  N5  UNL     1       0.367  22.420   7.883  1.00  0.00    -0.066 N 
HETATM   24  C30 UNL     1       0.631  22.914   5.674  1.00  0.00     0.036 C 
HETATM   25  C31 UNL     1       1.409  22.309   6.844  1.00  0.00     0.199 C 
ATOM     26  H52 UNL     1       0.086  23.360   8.159  1.00  0.00     0.278 HD
ATOM     27  H51 UNL     1       0.629  22.156   8.833  1.00  0.00     0.278 HD
ENDBRANCH  16  19
ENDBRANCH   5  15
ENDBRANCH   3   5
BRANCH   1  28
HETATM   28  C14 UNL     1       8.233  20.308   5.953  1.00  0.00     0.150 C 
HETATM   29  C11 UNL     1       9.323  19.371   6.270  1.00  0.00     0.302 C 
HETATM   30  O4  UNL     1      10.501  20.049   5.892  1.00  0.00    -0.287 OA
HETATM   31  C12 UNL     1      10.295  21.392   6.115  1.00  0.00     0.263 C 
HETATM   32  O5  UNL     1      11.267  22.219   6.157  1.00  0.00    -0.265 OA
HETATM   33  C13 UNL     1       8.854  21.678   6.282  1.00  0.00     0.141 C 
BRANCH  29  34
HETATM   34  O3  UNL     1       9.398  19.183   7.702  1.00  0.00    -0.285 OA
BRANCH  34  35
HETATM   35  C10 UNL     1       9.042  17.965   8.232  1.00  0.00     0.283 C 
HETATM   36  O2  UNL     1       7.985  17.875   8.894  1.00  0.00    -0.263 OA
BRANCH  35  37
HETATM   37  C2  UNL     1       9.834  16.720   8.077  1.00  0.00     0.182 C 
HETATM   38  C1  UNL     1       9.032  15.665   7.325  1.00  0.00     0.043 C 
BRANCH  37  39
HETATM   39  N1  UNL     1      11.010  17.073   7.253  1.00  0.00    -0.330 N 
HETATM   40  C3  UNL     1      12.311  16.962   7.761  1.00  0.00     0.319 C 
HETATM   41  O1  UNL     1      12.394  16.526   8.969  1.00  0.00    -0.247 OA
HETATM   42  N2  UNL     1      13.509  17.261   7.135  1.00  0.00    -0.330 N 
HETATM   43  C4  UNL     1      13.508  17.800   5.769  1.00  0.00     0.128 C 
HETATM   44  C8  UNL     1      14.840  17.110   7.693  1.00  0.00     0.085 C 
HETATM   45  C5  UNL     1      14.068  19.207   5.903  1.00  0.00     0.020 C 
HETATM   46  C6  UNL     1      15.423  19.159   6.514  1.00  0.00     0.004 C 
HETATM   47  C7  UNL     1      15.470  18.476   7.853  1.00  0.00     0.025 C 
HETATM   48  C9  UNL     1      14.935  16.354   8.958  1.00  0.00     0.032 C 
ATOM     49  H1  UNL     1      10.871  17.402   6.297  1.00  0.00     0.165 HD
ENDBRANCH  37  39
ENDBRANCH  35  37
ENDBRANCH  34  35
ENDBRANCH  29  34
ENDBRANCH   1  28
TORSDOF 10
ENDMDL
