MODEL 1
REMARK VINA RESULT: -7.626689280      0.000      0.000
REMARK  14 active torsions:
REMARK  status: ('A' for Active; 'I' for Inactive)
REMARK    1  A    between atoms: C2_2  and  O1_3 
REMARK    2  A    between atoms: O1_3  and  C3_4 
REMARK       I    between atoms: C3_4  and  N1_6 
REMARK    3  A    between atoms: N1_6  and  C5_8 
REMARK    4  A    between atoms: C5_8  and  C6_9 
REMARK    5  A    between atoms: C5_8  and  C10_13 
REMARK    6  A    between atoms: C6_9  and  C7_10 
REMARK       I    between atoms: C10_13  and  N2_15 
REMARK    7  A    between atoms: N2_15  and  C11_17 
REMARK    8  A    between atoms: C11_17  and  C12_18 
REMARK    9  A    between atoms: C11_17  and  C14_20 
REMARK       I    between atoms: C14_20  and  N3_22 
REMARK   10  A    between atoms: N3_22  and  C15_24 
REMARK   11  A    between atoms: C18_28  and  C19_29 
REMARK   12  A    between atoms: C20_30  and  C21_31 
REMARK   13  A    between atoms: C21_31  and  O6_34 
REMARK   14  A    between atoms: C28_41  and  O7_42 
ROOT
HETATM    1  C14 UNL     1       5.941  21.001   7.485  1.00  0.00     0.240 C 
HETATM    2  O4  UNL     1       5.231  20.682   8.484  1.00  0.00    -0.271 OA
HETATM    3  N3  UNL     1       5.471  21.954   6.577  1.00  0.00    -0.350 N 
ATOM      4  H3  UNL     1       6.052  22.182   5.769  1.00  0.00     0.163 HD
ENDROOT
BRANCH   3   5
HETATM    5  C15 UNL     1       4.196  22.639   6.724  1.00  0.00     0.142 C 
HETATM    6  C16 UNL     1       4.375  24.065   7.118  1.00  0.00     0.203 C 
HETATM    7  O5  UNL     1       3.134  24.768   7.049  1.00  0.00    -0.347 OA
HETATM    8  C17 UNL     1       1.939  24.132   6.698  1.00  0.00     0.096 A 
HETATM    9  C18 UNL     1       0.701  24.568   7.113  1.00  0.00     0.053 A 
HETATM   10  C27 UNL     1       1.989  22.996   5.887  1.00  0.00     0.009 A 
HETATM   11  C24 UNL     1      -0.475  23.933   6.760  1.00  0.00     0.042 A 
HETATM   12  C25 UNL     1      -0.423  22.799   5.950  1.00  0.00     0.013 A 
HETATM   13 BR1  UNL     1      -2.037  21.894   5.443  1.00  0.00    -0.051 Br
HETATM   14  C26 UNL     1       0.827  22.381   5.548  1.00  0.00     0.032 A 
HETATM   15  C28 UNL     1       3.341  22.554   5.469  1.00  0.00     0.178 C 
BRANCH   9  16
HETATM   16  C19 UNL     1       0.665  25.752   7.955  1.00  0.00    -0.061 C 
HETATM   17  C20 UNL     1       0.645  26.724   8.661  1.00  0.00    -0.064 C 
BRANCH  17  18
HETATM   18  C21 UNL     1       0.632  27.891   9.540  1.00  0.00     0.114 C 
HETATM   19  C22 UNL     1       1.971  28.557   9.656  1.00  0.00     0.060 C 
HETATM   20  C23 UNL     1      -0.346  28.958   9.017  1.00  0.00     0.060 C 
BRANCH  18  21
HETATM   21  O6  UNL     1       0.154  27.459  10.778  1.00  0.00    -0.378 OA
ATOM     22  H6  UNL     1       0.895  27.454  11.373  1.00  0.00     0.211 HD
ENDBRANCH  18  21
ENDBRANCH  17  18
ENDBRANCH   9  16
BRANCH  15  23
HETATM   23  O7  UNL     1       3.823  23.483   4.539  1.00  0.00    -0.389 OA
ATOM     24  H7  UNL     1       4.561  23.097   4.082  1.00  0.00     0.210 HD
ENDBRANCH  15  23
ENDBRANCH   3   5
BRANCH   1  25
HETATM   25  C11 UNL     1       7.249  20.343   7.317  1.00  0.00     0.176 C 
BRANCH  25  26
HETATM   26  N2  UNL     1       7.068  18.916   7.516  1.00  0.00    -0.343 N 
HETATM   27  C10 UNL     1       7.523  18.177   8.622  1.00  0.00     0.268 C 
HETATM   28  O3  UNL     1       8.143  18.820   9.524  1.00  0.00    -0.266 OA
ATOM     29  H2  UNL     1       6.566  18.406   6.790  1.00  0.00     0.163 HD
BRANCH  27  30
HETATM   30  C5  UNL     1       7.291  16.707   8.743  1.00  0.00     0.103 C 
BRANCH  30  31
HETATM   31  N1  UNL     1       8.507  15.980   8.862  1.00  0.00    -0.293 N 
HETATM   32  C3  UNL     1       9.410  15.879   7.776  1.00  0.00     0.367 C 
HETATM   33  O2  UNL     1       9.139  16.404   6.669  1.00  0.00    -0.238 OA
HETATM   34  C4  UNL     1       8.904  15.385  10.121  1.00  0.00     0.162 C 
BRANCH  32  35
HETATM   35  O1  UNL     1      10.592  15.199   7.938  1.00  0.00    -0.304 OA
BRANCH  35  36
HETATM   36  C2  UNL     1      11.857  15.785   7.855  1.00  0.00     0.176 C 
HETATM   37  C1  UNL     1      12.011  16.862   8.885  1.00  0.00     0.034 C 
ENDBRANCH  35  36
ENDBRANCH  32  35
ENDBRANCH  30  31
BRANCH  30  38
HETATM   38  C6  UNL     1       6.107  16.343   9.528  1.00  0.00     0.012 C 
BRANCH  38  39
HETATM   39  C7  UNL     1       4.887  15.755   8.959  1.00  0.00     0.002 C 
HETATM   40  C8  UNL     1       3.830  15.880  10.130  1.00  0.00     0.013 C 
HETATM   41  C9  UNL     1       4.197  16.634   7.891  1.00  0.00     0.013 C 
ENDBRANCH  38  39
ENDBRANCH  30  38
ENDBRANCH  27  30
ENDBRANCH  25  26
BRANCH  25  42
HETATM   42  C12 UNL     1       7.984  20.728   6.097  1.00  0.00     0.030 C 
HETATM   43  C13 UNL     1       8.208  19.600   5.124  1.00  0.00     0.007 C 
ENDBRANCH  25  42
ENDBRANCH   1  25
TORSDOF 14
ENDMDL
MODEL 2
REMARK VINA RESULT: -7.572034182      3.559      5.459
REMARK  14 active torsions:
REMARK  status: ('A' for Active; 'I' for Inactive)
REMARK    1  A    between atoms: C2_2  and  O1_3 
REMARK    2  A    between atoms: O1_3  and  C3_4 
REMARK       I    between atoms: C3_4  and  N1_6 
REMARK    3  A    between atoms: N1_6  and  C5_8 
REMARK    4  A    between atoms: C5_8  and  C6_9 
REMARK    5  A    between atoms: C5_8  and  C10_13 
REMARK    6  A    between atoms: C6_9  and  C7_10 
REMARK       I    between atoms: C10_13  and  N2_15 
REMARK    7  A    between atoms: N2_15  and  C11_17 
REMARK    8  A    between atoms: C11_17  and  C12_18 
REMARK    9  A    between atoms: C11_17  and  C14_20 
REMARK       I    between atoms: C14_20  and  N3_22 
REMARK   10  A    between atoms: N3_22  and  C15_24 
REMARK   11  A    between atoms: C18_28  and  C19_29 
REMARK   12  A    between atoms: C20_30  and  C21_31 
REMARK   13  A    between atoms: C21_31  and  O6_34 
REMARK   14  A    between atoms: C28_41  and  O7_42 
ROOT
HETATM    1  C14 UNL     1       3.397  16.715   9.371  1.00  0.00     0.240 C 
HETATM    2  O4  UNL     1       2.325  16.975   9.994  1.00  0.00    -0.271 OA
HETATM    3  N3  UNL     1       3.728  17.447   8.226  1.00  0.00    -0.350 N 
ATOM      4  H3  UNL     1       4.587  17.208   7.731  1.00  0.00     0.163 HD
ENDROOT
BRANCH   3   5
HETATM    5  C15 UNL     1       2.910  18.532   7.706  1.00  0.00     0.142 C 
HETATM    6  C16 UNL     1       1.673  18.731   8.513  1.00  0.00     0.203 C 
HETATM    7  O5  UNL     1       0.999  19.926   8.118  1.00  0.00    -0.347 OA
HETATM    8  C17 UNL     1       1.465  20.731   7.074  1.00  0.00     0.096 A 
HETATM    9  C18 UNL     1       0.644  21.536   6.317  1.00  0.00     0.053 A 
HETATM   10  C27 UNL     1       2.828  20.728   6.773  1.00  0.00     0.009 A 
HETATM   11  C24 UNL     1       1.114  22.328   5.287  1.00  0.00     0.042 A 
HETATM   12  C25 UNL     1       2.475  22.324   4.988  1.00  0.00     0.013 A 
HETATM   13 BR1  UNL     1       3.159  23.413   3.563  1.00  0.00    -0.051 Br
HETATM   14  C26 UNL     1       3.278  21.511   5.759  1.00  0.00     0.032 A 
HETATM   15  C28 UNL     1       3.677  19.842   7.606  1.00  0.00     0.178 C 
BRANCH   9  16
HETATM   16  C19 UNL     1      -0.773  21.529   6.643  1.00  0.00    -0.061 C 
HETATM   17  C20 UNL     1      -1.946  21.533   6.902  1.00  0.00    -0.064 C 
BRANCH  17  18
HETATM   18  C21 UNL     1      -3.376  21.561   7.201  1.00  0.00     0.114 C 
HETATM   19  C22 UNL     1      -4.232  21.709   5.978  1.00  0.00     0.060 C 
HETATM   20  C23 UNL     1      -3.815  20.258   7.890  1.00  0.00     0.060 C 
BRANCH  18  21
HETATM   21  O6  UNL     1      -3.578  22.602   8.109  1.00  0.00    -0.378 OA
ATOM     22  H6  UNL     1      -3.706  22.203   8.962  1.00  0.00     0.211 HD
ENDBRANCH  18  21
ENDBRANCH  17  18
ENDBRANCH   9  16
BRANCH  15  23
HETATM   23  O7  UNL     1       3.757  20.408   8.883  1.00  0.00    -0.389 OA
ATOM     24  H7  UNL     1       4.674  20.527   9.103  1.00  0.00     0.210 HD
ENDBRANCH  15  23
ENDBRANCH   3   5
BRANCH   1  25
HETATM   25  C11 UNL     1       4.261  15.638   9.884  1.00  0.00     0.176 C 
BRANCH  25  26
HETATM   26  N2  UNL     1       5.644  16.050   9.719  1.00  0.00    -0.343 N 
HETATM   27  C10 UNL     1       6.571  15.478   8.830  1.00  0.00     0.268 C 
HETATM   28  O3  UNL     1       6.155  14.521   8.107  1.00  0.00    -0.266 OA
ATOM     29  H2  UNL     1       5.972  16.822  10.299  1.00  0.00     0.163 HD
BRANCH  27  30
HETATM   30  C5  UNL     1       7.978  15.967   8.728  1.00  0.00     0.103 C 
BRANCH  30  31
HETATM   31  N1  UNL     1       8.176  16.798   7.591  1.00  0.00    -0.293 N 
HETATM   32  C3  UNL     1       7.501  18.036   7.461  1.00  0.00     0.367 C 
HETATM   33  O2  UNL     1       6.684  18.413   8.336  1.00  0.00    -0.238 OA
HETATM   34  C4  UNL     1       9.135  16.447   6.565  1.00  0.00     0.162 C 
BRANCH  32  35
HETATM   35  O1  UNL     1       7.745  18.829   6.367  1.00  0.00    -0.304 OA
BRANCH  35  36
HETATM   36  C2  UNL     1       6.794  19.151   5.396  1.00  0.00     0.176 C 
HETATM   37  C1  UNL     1       5.989  17.943   5.025  1.00  0.00     0.034 C 
ENDBRANCH  35  36
ENDBRANCH  32  35
ENDBRANCH  30  31
BRANCH  30  38
HETATM   38  C6  UNL     1       8.607  16.278  10.016  1.00  0.00     0.012 C 
BRANCH  38  39
HETATM   39  C7  UNL     1       9.335  17.521  10.301  1.00  0.00     0.002 C 
HETATM   40  C8  UNL     1       9.261  17.645  11.876  1.00  0.00     0.013 C 
HETATM   41  C9  UNL     1      10.867  17.416  10.120  1.00  0.00     0.013 C 
ENDBRANCH  38  39
ENDBRANCH  30  38
ENDBRANCH  27  30
ENDBRANCH  25  26
BRANCH  25  42
HETATM   42  C12 UNL     1       3.900  15.140  11.224  1.00  0.00     0.030 C 
HETATM   43  C13 UNL     1       4.906  14.193  11.828  1.00  0.00     0.007 C 
ENDBRANCH  25  42
ENDBRANCH   1  25
TORSDOF 14
ENDMDL
MODEL 3
REMARK VINA RESULT: -7.571191254      4.094      7.886
REMARK  14 active torsions:
REMARK  status: ('A' for Active; 'I' for Inactive)
REMARK    1  A    between atoms: C2_2  and  O1_3 
REMARK    2  A    between atoms: O1_3  and  C3_4 
REMARK       I    between atoms: C3_4  and  N1_6 
REMARK    3  A    between atoms: N1_6  and  C5_8 
REMARK    4  A    between atoms: C5_8  and  C6_9 
REMARK    5  A    between atoms: C5_8  and  C10_13 
REMARK    6  A    between atoms: C6_9  and  C7_10 
REMARK       I    between atoms: C10_13  and  N2_15 
REMARK    7  A    between atoms: N2_15  and  C11_17 
REMARK    8  A    between atoms: C11_17  and  C12_18 
REMARK    9  A    between atoms: C11_17  and  C14_20 
REMARK       I    between atoms: C14_20  and  N3_22 
REMARK   10  A    between atoms: N3_22  and  C15_24 
REMARK   11  A    between atoms: C18_28  and  C19_29 
REMARK   12  A    between atoms: C20_30  and  C21_31 
REMARK   13  A    between atoms: C21_31  and  O6_34 
REMARK   14  A    between atoms: C28_41  and  O7_42 
ROOT
HETATM    1  C14 UNL     1       9.808  18.759   8.262  1.00  0.00     0.240 C 
HETATM    2  O4  UNL     1       9.607  18.179   9.370  1.00  0.00    -0.271 OA
HETATM    3  N3  UNL     1       8.726  19.056   7.428  1.00  0.00    -0.350 N 
ATOM      4  H3  UNL     1       8.915  19.506   6.532  1.00  0.00     0.163 HD
ENDROOT
BRANCH   3   5
HETATM    5  C15 UNL     1       7.345  18.757   7.773  1.00  0.00     0.142 C 
HETATM    6  C16 UNL     1       6.384  19.482   6.895  1.00  0.00     0.203 C 
HETATM    7  O5  UNL     1       5.052  19.014   7.108  1.00  0.00    -0.347 OA
HETATM    8  C17 UNL     1       4.752  18.038   8.063  1.00  0.00     0.096 A 
HETATM    9  C18 UNL     1       3.524  17.935   8.677  1.00  0.00     0.053 A 
HETATM   10  C27 UNL     1       5.737  17.116   8.421  1.00  0.00     0.009 A 
HETATM   11  C24 UNL     1       3.237  16.966   9.620  1.00  0.00     0.042 A 
HETATM   12  C25 UNL     1       4.222  16.046   9.977  1.00  0.00     0.013 A 
HETATM   13 BR1  UNL     1       3.855  14.689  11.283  1.00  0.00    -0.051 Br
HETATM   14  C26 UNL     1       5.443  16.169   9.349  1.00  0.00     0.032 A 
HETATM   15  C28 UNL     1       7.047  17.266   7.743  1.00  0.00     0.178 C 
BRANCH   9  16
HETATM   16  C19 UNL     1       2.509  18.902   8.293  1.00  0.00    -0.061 C 
HETATM   17  C20 UNL     1       1.663  19.689   7.967  1.00  0.00    -0.064 C 
BRANCH  17  18
HETATM   18  C21 UNL     1       0.628  20.632   7.549  1.00  0.00     0.114 C 
HETATM   19  C22 UNL     1       0.978  21.372   6.292  1.00  0.00     0.060 C 
HETATM   20  C23 UNL     1      -0.698  19.901   7.275  1.00  0.00     0.060 C 
BRANCH  18  21
HETATM   21  O6  UNL     1       0.413  21.498   8.622  1.00  0.00    -0.378 OA
ATOM     22  H6  UNL     1       0.762  22.344   8.368  1.00  0.00     0.211 HD
ENDBRANCH  18  21
ENDBRANCH  17  18
ENDBRANCH   9  16
BRANCH  15  23
HETATM   23  O7  UNL     1       6.883  16.872   6.410  1.00  0.00    -0.389 OA
ATOM     24  H7  UNL     1       6.011  17.122   6.127  1.00  0.00     0.210 HD
ENDBRANCH  15  23
ENDBRANCH   3   5
BRANCH   1  25
HETATM   25  C11 UNL     1      11.194  19.097   7.891  1.00  0.00     0.176 C 
BRANCH  25  26
HETATM   26  N2  UNL     1      11.275  20.536   7.708  1.00  0.00    -0.343 N 
HETATM   27  C10 UNL     1      11.135  21.218   6.486  1.00  0.00     0.268 C 
HETATM   28  O3  UNL     1      10.915  20.508   5.457  1.00  0.00    -0.266 OA
ATOM     29  H2  UNL     1      11.447  21.101   8.539  1.00  0.00     0.163 HD
BRANCH  27  30
HETATM   30  C5  UNL     1      11.234  22.705   6.392  1.00  0.00     0.103 C 
BRANCH  30  31
HETATM   31  N1  UNL     1      10.475  23.225   5.308  1.00  0.00    -0.293 N 
HETATM   32  C3  UNL     1      11.077  23.499   4.057  1.00  0.00     0.367 C 
HETATM   33  O2  UNL     1      12.307  23.318   3.885  1.00  0.00    -0.238 OA
HETATM   34  C4  UNL     1       9.044  23.417   5.421  1.00  0.00     0.162 C 
BRANCH  32  35
HETATM   35  O1  UNL     1      10.305  23.966   3.021  1.00  0.00    -0.304 OA
BRANCH  35  36
HETATM   36  C2  UNL     1      10.150  23.315   1.795  1.00  0.00     0.176 C 
HETATM   37  C1  UNL     1       9.611  21.931   1.996  1.00  0.00     0.034 C 
ENDBRANCH  35  36
ENDBRANCH  32  35
ENDBRANCH  30  31
BRANCH  30  38
HETATM   38  C6  UNL     1      11.283  23.392   7.687  1.00  0.00     0.012 C 
BRANCH  38  39
HETATM   39  C7  UNL     1      12.053  24.617   7.943  1.00  0.00     0.002 C 
HETATM   40  C8  UNL     1      13.373  24.412   7.095  1.00  0.00     0.013 C 
HETATM   41  C9  UNL     1      11.491  25.878   7.250  1.00  0.00     0.013 C 
ENDBRANCH  38  39
ENDBRANCH  30  38
ENDBRANCH  27  30
ENDBRANCH  25  26
BRANCH  25  42
HETATM   42  C12 UNL     1      12.229  18.506   8.759  1.00  0.00     0.030 C 
HETATM   43  C13 UNL     1      13.644  18.823   8.345  1.00  0.00     0.007 C 
ENDBRANCH  25  42
ENDBRANCH   1  25
TORSDOF 14
ENDMDL
MODEL 4
REMARK VINA RESULT: -7.397201135      4.398      7.989
REMARK  14 active torsions:
REMARK  status: ('A' for Active; 'I' for Inactive)
REMARK    1  A    between atoms: C2_2  and  O1_3 
REMARK    2  A    between atoms: O1_3  and  C3_4 
REMARK       I    between atoms: C3_4  and  N1_6 
REMARK    3  A    between atoms: N1_6  and  C5_8 
REMARK    4  A    between atoms: C5_8  and  C6_9 
REMARK    5  A    between atoms: C5_8  and  C10_13 
REMARK    6  A    between atoms: C6_9  and  C7_10 
REMARK       I    between atoms: C10_13  and  N2_15 
REMARK    7  A    between atoms: N2_15  and  C11_17 
REMARK    8  A    between atoms: C11_17  and  C12_18 
REMARK    9  A    between atoms: C11_17  and  C14_20 
REMARK       I    between atoms: C14_20  and  N3_22 
REMARK   10  A    between atoms: N3_22  and  C15_24 
REMARK   11  A    between atoms: C18_28  and  C19_29 
REMARK   12  A    between atoms: C20_30  and  C21_31 
REMARK   13  A    between atoms: C21_31  and  O6_34 
REMARK   14  A    between atoms: C28_41  and  O7_42 
ROOT
HETATM    1  C14 UNL     1       9.489  19.597   7.687  1.00  0.00     0.240 C 
HETATM    2  O4  UNL     1       9.355  19.246   8.897  1.00  0.00    -0.271 OA
HETATM    3  N3  UNL     1       8.379  19.594   6.837  1.00  0.00    -0.350 N 
ATOM      4  H3  UNL     1       8.515  19.862   5.862  1.00  0.00     0.163 HD
ENDROOT
BRANCH   3   5
HETATM    5  C15 UNL     1       7.040  19.228   7.272  1.00  0.00     0.142 C 
HETATM    6  C16 UNL     1       5.989  19.912   6.468  1.00  0.00     0.203 C 
HETATM    7  O5  UNL     1       4.697  19.381   6.767  1.00  0.00    -0.347 OA
HETATM    8  C17 UNL     1       4.509  18.385   7.730  1.00  0.00     0.096 A 
HETATM    9  C18 UNL     1       3.333  18.220   8.426  1.00  0.00     0.053 A 
HETATM   10  C27 UNL     1       5.558  17.508   8.012  1.00  0.00     0.009 A 
HETATM   11  C24 UNL     1       3.156  17.232   9.376  1.00  0.00     0.042 A 
HETATM   12  C25 UNL     1       4.204  16.357   9.656  1.00  0.00     0.013 A 
HETATM   13 BR1  UNL     1       3.991  14.976  10.971  1.00  0.00    -0.051 Br
HETATM   14  C26 UNL     1       5.373  16.542   8.948  1.00  0.00     0.032 A 
HETATM   15  C28 UNL     1       6.811  17.725   7.248  1.00  0.00     0.178 C 
BRANCH   9  16
HETATM   16  C19 UNL     1       2.249  19.140   8.121  1.00  0.00    -0.061 C 
HETATM   17  C20 UNL     1       1.349  19.890   7.858  1.00  0.00    -0.064 C 
BRANCH  17  18
HETATM   18  C21 UNL     1       0.251  20.791   7.515  1.00  0.00     0.114 C 
HETATM   19  C22 UNL     1       0.415  21.435   6.171  1.00  0.00     0.060 C 
HETATM   20  C23 UNL     1      -1.087  20.031   7.478  1.00  0.00     0.060 C 
BRANCH  18  21
HETATM   21  O6  UNL     1       0.166  21.734   8.540  1.00  0.00    -0.378 OA
ATOM     22  H6  UNL     1      -0.752  21.960   8.632  1.00  0.00     0.211 HD
ENDBRANCH  18  21
ENDBRANCH  17  18
ENDBRANCH   9  16
BRANCH  15  23
HETATM   23  O7  UNL     1       6.574  17.332   5.925  1.00  0.00    -0.389 OA
ATOM     24  H7  UNL     1       6.321  16.417   5.923  1.00  0.00     0.210 HD
ENDBRANCH  15  23
ENDBRANCH   3   5
BRANCH   1  25
HETATM   25  C11 UNL     1      10.828  19.996   7.218  1.00  0.00     0.176 C 
BRANCH  25  26
HETATM   26  N2  UNL     1      10.728  21.328   6.646  1.00  0.00    -0.343 N 
HETATM   27  C10 UNL     1      11.540  21.844   5.621  1.00  0.00     0.268 C 
HETATM   28  O3  UNL     1      12.434  21.072   5.156  1.00  0.00    -0.266 OA
ATOM     29  H2  UNL     1      10.006  21.942   7.021  1.00  0.00     0.163 HD
BRANCH  27  30
HETATM   30  C5  UNL     1      11.366  23.230   5.093  1.00  0.00     0.103 C 
BRANCH  30  31
HETATM   31  N1  UNL     1      11.592  24.217   6.091  1.00  0.00    -0.293 N 
HETATM   32  C3  UNL     1      10.575  25.128   6.464  1.00  0.00     0.367 C 
HETATM   33  O2  UNL     1       9.457  25.107   5.895  1.00  0.00    -0.238 OA
HETATM   34  C4  UNL     1      12.842  24.272   6.820  1.00  0.00     0.162 C 
BRANCH  32  35
HETATM   35  O1  UNL     1      10.817  26.044   7.458  1.00  0.00    -0.304 OA
BRANCH  35  36
HETATM   36  C2  UNL     1      10.748  27.428   7.291  1.00  0.00     0.176 C 
HETATM   37  C1  UNL     1      11.857  27.910   6.406  1.00  0.00     0.034 C 
ENDBRANCH  35  36
ENDBRANCH  32  35
ENDBRANCH  30  31
BRANCH  30  38
HETATM   38  C6  UNL     1      11.837  23.418   3.716  1.00  0.00     0.012 C 
BRANCH  38  39
HETATM   39  C7  UNL     1      10.959  23.445   2.539  1.00  0.00     0.002 C 
HETATM   40  C8  UNL     1      11.244  22.060   1.829  1.00  0.00     0.013 C 
HETATM   41  C9  UNL     1       9.458  23.268   2.862  1.00  0.00     0.013 C 
ENDBRANCH  38  39
ENDBRANCH  30  38
ENDBRANCH  27  30
ENDBRANCH  25  26
BRANCH  25  42
HETATM   42  C12 UNL     1      11.911  19.805   8.201  1.00  0.00     0.030 C 
HETATM   43  C13 UNL     1      12.947  18.787   7.795  1.00  0.00     0.007 C 
ENDBRANCH  25  42
ENDBRANCH   1  25
TORSDOF 14
ENDMDL
MODEL 5
REMARK VINA RESULT: -7.392187053      5.191     11.413
REMARK  14 active torsions:
REMARK  status: ('A' for Active; 'I' for Inactive)
REMARK    1  A    between atoms: C2_2  and  O1_3 
REMARK    2  A    between atoms: O1_3  and  C3_4 
REMARK       I    between atoms: C3_4  and  N1_6 
REMARK    3  A    between atoms: N1_6  and  C5_8 
REMARK    4  A    between atoms: C5_8  and  C6_9 
REMARK    5  A    between atoms: C5_8  and  C10_13 
REMARK    6  A    between atoms: C6_9  and  C7_10 
REMARK       I    between atoms: C10_13  and  N2_15 
REMARK    7  A    between atoms: N2_15  and  C11_17 
REMARK    8  A    between atoms: C11_17  and  C12_18 
REMARK    9  A    between atoms: C11_17  and  C14_20 
REMARK       I    between atoms: C14_20  and  N3_22 
REMARK   10  A    between atoms: N3_22  and  C15_24 
REMARK   11  A    between atoms: C18_28  and  C19_29 
REMARK   12  A    between atoms: C20_30  and  C21_31 
REMARK   13  A    between atoms: C21_31  and  O6_34 
REMARK   14  A    between atoms: C28_41  and  O7_42 
ROOT
HETATM    1  C14 UNL     1       8.687  15.847   8.508  1.00  0.00     0.240 C 
HETATM    2  O4  UNL     1       8.707  15.155   7.447  1.00  0.00    -0.271 OA
HETATM    3  N3  UNL     1       9.813  16.591   8.873  1.00  0.00    -0.350 N 
ATOM      4  H3  UNL     1       9.779  17.126   9.741  1.00  0.00     0.163 HD
ENDROOT
BRANCH   3   5
HETATM    5  C15 UNL     1      11.030  16.642   8.077  1.00  0.00     0.142 C 
HETATM    6  C16 UNL     1      10.994  17.745   7.077  1.00  0.00     0.203 C 
HETATM    7  O5  UNL     1      12.271  17.910   6.460  1.00  0.00    -0.347 OA
HETATM    8  C17 UNL     1      13.355  17.082   6.765  1.00  0.00     0.096 A 
HETATM    9  C18 UNL     1      14.384  16.830   5.885  1.00  0.00     0.053 A 
HETATM   10  C27 UNL     1      13.411  16.474   8.020  1.00  0.00     0.009 A 
HETATM   11  C24 UNL     1      15.452  16.009   6.196  1.00  0.00     0.042 A 
HETATM   12  C25 UNL     1      15.506  15.402   7.450  1.00  0.00     0.013 A 
HETATM   13 BR1  UNL     1      16.975  14.258   7.912  1.00  0.00    -0.051 Br
HETATM   14  C26 UNL     1      14.465  15.669   8.314  1.00  0.00     0.032 A 
HETATM   15  C28 UNL     1      12.280  16.764   8.935  1.00  0.00     0.178 C 
BRANCH   9  16
HETATM   16  C19 UNL     1      14.313  17.471   4.583  1.00  0.00    -0.061 C 
HETATM   17  C20 UNL     1      14.255  17.988   3.500  1.00  0.00    -0.064 C 
BRANCH  17  18
HETATM   18  C21 UNL     1      14.197  18.593   2.172  1.00  0.00     0.114 C 
HETATM   19  C22 UNL     1      15.295  19.585   1.927  1.00  0.00     0.060 C 
HETATM   20  C23 UNL     1      14.321  17.521   1.076  1.00  0.00     0.060 C 
BRANCH  18  21
HETATM   21  O6  UNL     1      12.933  19.173   2.047  1.00  0.00    -0.378 OA
ATOM     22  H6  UNL     1      12.352  18.695   2.627  1.00  0.00     0.211 HD
ENDBRANCH  18  21
ENDBRANCH  17  18
ENDBRANCH   9  16
BRANCH  15  23
HETATM   23  O7  UNL     1      12.404  18.093   9.354  1.00  0.00    -0.389 OA
ATOM     24  H7  UNL     1      11.606  18.343   9.804  1.00  0.00     0.210 HD
ENDBRANCH  15  23
ENDBRANCH   3   5
BRANCH   1  25
HETATM   25  C11 UNL     1       7.461  15.838   9.325  1.00  0.00     0.176 C 
BRANCH  25  26
HETATM   26  N2  UNL     1       6.448  16.616   8.632  1.00  0.00    -0.343 N 
HETATM   27  C10 UNL     1       6.450  18.013   8.475  1.00  0.00     0.268 C 
HETATM   28  O3  UNL     1       7.427  18.644   8.983  1.00  0.00    -0.266 OA
ATOM     29  H2  UNL     1       5.668  16.102   8.223  1.00  0.00     0.163 HD
BRANCH  27  30
HETATM   30  C5  UNL     1       5.363  18.730   7.745  1.00  0.00     0.103 C 
BRANCH  30  31
HETATM   31  N1  UNL     1       5.873  19.595   6.739  1.00  0.00    -0.293 N 
HETATM   32  C3  UNL     1       5.808  21.002   6.880  1.00  0.00     0.367 C 
HETATM   33  O2  UNL     1       5.267  21.519   7.887  1.00  0.00    -0.238 OA
HETATM   34  C4  UNL     1       6.550  19.069   5.572  1.00  0.00     0.162 C 
BRANCH  32  35
HETATM   35  O1  UNL     1       6.345  21.807   5.905  1.00  0.00    -0.304 OA
BRANCH  35  36
HETATM   36  C2  UNL     1       5.720  22.942   5.385  1.00  0.00     0.176 C 
HETATM   37  C1  UNL     1       6.626  23.652   4.426  1.00  0.00     0.034 C 
ENDBRANCH  35  36
ENDBRANCH  32  35
ENDBRANCH  30  31
BRANCH  30  38
HETATM   38  C6  UNL     1       4.153  17.930   7.520  1.00  0.00     0.012 C 
BRANCH  38  39
HETATM   39  C7  UNL     1       2.894  18.114   8.252  1.00  0.00     0.002 C 
HETATM   40  C8  UNL     1       2.970  17.033   9.404  1.00  0.00     0.013 C 
HETATM   41  C9  UNL     1       2.837  19.401   9.106  1.00  0.00     0.013 C 
ENDBRANCH  38  39
ENDBRANCH  30  38
ENDBRANCH  27  30
ENDBRANCH  25  26
BRANCH  25  42
HETATM   42  C12 UNL     1       7.034  14.504   9.787  1.00  0.00     0.030 C 
HETATM   43  C13 UNL     1       5.726  14.033   9.205  1.00  0.00     0.007 C 
ENDBRANCH  25  42
ENDBRANCH   1  25
TORSDOF 14
ENDMDL
