MODEL 1
REMARK VINA RESULT: -8.685276504      0.000      0.000
REMARK  12 active torsions:
REMARK  status: ('A' for Active; 'I' for Inactive)
REMARK    1  A    between atoms: C2_2  and  C3_4 
REMARK    2  A    between atoms: C3_4  and  N1_5 
REMARK    3  A    between atoms: C3_4  and  C4_9 
REMARK    4  A    between atoms: C4_9  and  C5_10 
REMARK       I    between atoms: C5_10  and  N2_12 
REMARK    5  A    between atoms: N2_12  and  C6_14 
REMARK    6  A    between atoms: N4_20  and  C9_21 
REMARK    7  A    between atoms: C9_21  and  O3_22 
REMARK    8  A    between atoms: C10_24  and  N5_25 
REMARK    9  A    between atoms: C10_24  and  C25_44 
REMARK       I    between atoms: N5_25  and  C11_26 
REMARK   10  A    between atoms: C11_26  and  O5_28 
REMARK   11  A    between atoms: O5_28  and  C12_29 
REMARK   12  A    between atoms: C12_29  and  C13_30 
ROOT
HETATM    1  C9  UNL     1       2.816  21.637   6.133  1.00  0.00     0.177 C 
HETATM    2  C10 UNL     1       2.687  20.333   6.745  1.00  0.00     0.144 C 
ENDROOT
BRANCH   1   3
HETATM    3  N4  UNL     1       2.216  22.833   5.999  1.00  0.00    -0.334 N 
HETATM    4  C8  UNL     1       2.091  23.423   4.610  1.00  0.00     0.358 C 
HETATM    5  N3  UNL     1       2.760  24.706   4.661  1.00  0.00    -0.057 N 
HETATM    6  C7  UNL     1       3.584  24.914   5.834  1.00  0.00     0.261 C 
ATOM      7  H32 UNL     1       2.083  25.463   4.566  1.00  0.00     0.279 HD
ATOM      8  H31 UNL     1       3.309  24.854   3.814  1.00  0.00     0.279 HD
HETATM    9  C6  UNL     1       2.803  24.833   7.134  1.00  0.00     0.128 C 
HETATM   10  C28 UNL     1       1.705  23.763   6.961  1.00  0.00     0.153 C 
BRANCH   9  11
HETATM   11  N2  UNL     1       2.323  26.108   7.552  1.00  0.00    -0.353 N 
HETATM   12  C5  UNL     1       2.858  26.826   8.660  1.00  0.00     0.220 C 
HETATM   13  O2  UNL     1       3.787  26.307   9.311  1.00  0.00    -0.274 OA
ATOM     14  H2  UNL     1       1.554  26.529   7.030  1.00  0.00     0.163 HD
BRANCH  12  15
HETATM   15  C4  UNL     1       2.280  28.152   8.979  1.00  0.00     0.143 C 
BRANCH  15  16
HETATM   16  C3  UNL     1       1.477  28.193  10.240  1.00  0.00     0.260 C 
BRANCH  16  17
HETATM   17  C2  UNL     1       1.090  29.633  10.442  1.00  0.00     0.153 C 
HETATM   18  C1  UNL     1      -0.365  30.011  10.507  1.00  0.00     0.093 C 
HETATM   19  O1  UNL     1       1.907  30.514  10.553  1.00  0.00    -0.296 OA
ENDBRANCH  16  17
BRANCH  16  20
HETATM   20  N1  UNL     1       0.226  27.458  10.103  1.00  0.00    -0.068 N 
ATOM     21  H13 UNL     1      -0.415  27.594  10.884  1.00  0.00     0.275 HD
ATOM     22  H12 UNL     1      -0.386  27.828   9.376  1.00  0.00     0.275 HD
ATOM     23  H11 UNL     1       0.489  26.483   9.956  1.00  0.00     0.275 HD
ENDBRANCH  16  20
ENDBRANCH  15  16
ENDBRANCH  12  15
ENDBRANCH   9  11
ENDBRANCH   1   3
BRANCH   1  24
HETATM   24  O3  UNL     1       4.010  21.638   5.438  1.00  0.00    -0.344 OA
ATOM     25  H3  UNL     1       4.198  20.761   5.126  1.00  0.00     0.219 HD
ENDBRANCH   1  24
BRANCH   2  26
HETATM   26  N5  UNL     1       3.886  19.614   6.686  1.00  0.00    -0.345 NA
HETATM   27  C11 UNL     1       5.057  18.911   6.628  1.00  0.00     0.440 C 
HETATM   28  O4  UNL     1       5.978  19.114   5.762  1.00  0.00    -0.221 OA
BRANCH  27  29
HETATM   29  O5  UNL     1       5.391  17.888   7.511  1.00  0.00    -0.290 OA
BRANCH  29  30
HETATM   30  C12 UNL     1       5.833  16.610   7.308  1.00  0.00     0.220 C 
BRANCH  30  31
HETATM   31  C13 UNL     1       6.914  16.115   8.249  1.00  0.00     0.087 A 
HETATM   32  C14 UNL     1       6.360  15.148   9.310  1.00  0.00     0.048 A 
HETATM   33  C15 UNL     1       6.836  16.525   9.693  1.00  0.00     0.026 A 
HETATM   34  C16 UNL     1       8.155  16.484  10.391  1.00  0.00     0.012 C 
HETATM   35  C17 UNL     1       8.969  17.716  10.398  1.00  0.00    -0.012 C 
HETATM   36  C18 UNL     1       8.577  18.791   9.445  1.00  0.00     0.011 C 
HETATM   37  C24 UNL     1      10.409  17.340  10.090  1.00  0.00     0.026 C 
HETATM   38  C19 UNL     1       9.594  18.782   8.349  1.00  0.00     0.007 C 
HETATM   39  C20 UNL     1       8.884  18.230   7.115  1.00  0.00     0.038 C 
HETATM   40  C23 UNL     1      10.617  17.721   8.659  1.00  0.00     0.024 C 
HETATM   41  C21 UNL     1       8.944  16.771   7.192  1.00  0.00     0.124 C 
HETATM   42  C22 UNL     1      10.415  16.590   7.680  1.00  0.00     0.053 C 
HETATM   43  O6  UNL     1       8.200  16.013   7.941  1.00  0.00    -0.372 OA
HETATM   44 BR1  UNL     1      12.432  18.414   8.505  1.00  0.00    -0.085 Br
ENDBRANCH  30  31
ENDBRANCH  29  30
ENDBRANCH  27  29
ENDBRANCH   2  26
BRANCH   2  45
HETATM   45  C25 UNL     1       1.914  20.131   8.009  1.00  0.00     0.046 C 
HETATM   46  C26 UNL     1       2.195  18.678   8.515  1.00  0.00     0.017 C 
HETATM   47  C27 UNL     1       0.391  20.108   7.791  1.00  0.00     0.017 C 
ENDBRANCH   2  45
TORSDOF 12
ENDMDL
MODEL 2
REMARK VINA RESULT: -8.484884718      1.433      1.646
REMARK  12 active torsions:
REMARK  status: ('A' for Active; 'I' for Inactive)
REMARK    1  A    between atoms: C2_2  and  C3_4 
REMARK    2  A    between atoms: C3_4  and  N1_5 
REMARK    3  A    between atoms: C3_4  and  C4_9 
REMARK    4  A    between atoms: C4_9  and  C5_10 
REMARK       I    between atoms: C5_10  and  N2_12 
REMARK    5  A    between atoms: N2_12  and  C6_14 
REMARK    6  A    between atoms: N4_20  and  C9_21 
REMARK    7  A    between atoms: C9_21  and  O3_22 
REMARK    8  A    between atoms: C10_24  and  N5_25 
REMARK    9  A    between atoms: C10_24  and  C25_44 
REMARK       I    between atoms: N5_25  and  C11_26 
REMARK   10  A    between atoms: C11_26  and  O5_28 
REMARK   11  A    between atoms: O5_28  and  C12_29 
REMARK   12  A    between atoms: C12_29  and  C13_30 
ROOT
HETATM    1  C9  UNL     1       2.135  22.669   6.440  1.00  0.00     0.177 C 
HETATM    2  C10 UNL     1       2.260  21.263   6.751  1.00  0.00     0.144 C 
ENDROOT
BRANCH   1   3
HETATM    3  N4  UNL     1       1.287  23.713   6.468  1.00  0.00    -0.334 N 
HETATM    4  C8  UNL     1       1.016  24.454   5.176  1.00  0.00     0.358 C 
HETATM    5  N3  UNL     1       1.391  25.832   5.422  1.00  0.00    -0.057 N 
HETATM    6  C7  UNL     1       2.166  26.044   6.626  1.00  0.00     0.261 C 
ATOM      7  H32 UNL     1       0.563  26.429   5.424  1.00  0.00     0.279 HD
ATOM      8  H31 UNL     1       1.881  26.215   4.614  1.00  0.00     0.279 HD
HETATM    9  C6  UNL     1       1.440  25.609   7.887  1.00  0.00     0.128 C 
HETATM   10  C28 UNL     1       0.599  24.362   7.544  1.00  0.00     0.153 C 
BRANCH   9  11
HETATM   11  N2  UNL     1       0.699  26.675   8.475  1.00  0.00    -0.353 N 
HETATM   12  C5  UNL     1       1.296  27.730   9.223  1.00  0.00     0.220 C 
HETATM   13  O2  UNL     1       2.533  27.715   9.387  1.00  0.00    -0.274 OA
ATOM     14  H2  UNL     1      -0.314  26.682   8.355  1.00  0.00     0.163 HD
BRANCH  12  15
HETATM   15  C4  UNL     1       0.415  28.789   9.766  1.00  0.00     0.143 C 
BRANCH  15  16
HETATM   16  C3  UNL     1       0.955  30.177   9.629  1.00  0.00     0.260 C 
BRANCH  16  17
HETATM   17  C2  UNL     1      -0.151  31.100  10.065  1.00  0.00     0.153 C 
HETATM   18  C1  UNL     1      -1.578  30.624  10.023  1.00  0.00     0.093 C 
HETATM   19  O1  UNL     1       0.058  32.225  10.451  1.00  0.00    -0.296 OA
ENDBRANCH  16  17
BRANCH  16  20
HETATM   20  N1  UNL     1       2.061  30.415  10.547  1.00  0.00    -0.068 N 
ATOM     21  H13 UNL     1       1.991  29.885  11.416  1.00  0.00     0.275 HD
ATOM     22  H12 UNL     1       2.945  30.017  10.231  1.00  0.00     0.275 HD
ATOM     23  H11 UNL     1       2.096  31.425  10.688  1.00  0.00     0.275 HD
ENDBRANCH  16  20
ENDBRANCH  15  16
ENDBRANCH  12  15
ENDBRANCH   9  11
ENDBRANCH   1   3
BRANCH   1  24
HETATM   24  O3  UNL     1       3.354  23.078   5.933  1.00  0.00    -0.344 OA
ATOM     25  H3  UNL     1       4.026  22.971   6.596  1.00  0.00     0.219 HD
ENDBRANCH   1  24
BRANCH   2  26
HETATM   26  N5  UNL     1       3.594  20.842   6.716  1.00  0.00    -0.345 NA
HETATM   27  C11 UNL     1       4.897  20.431   6.682  1.00  0.00     0.440 C 
HETATM   28  O4  UNL     1       5.860  21.126   6.203  1.00  0.00    -0.221 OA
BRANCH  27  29
HETATM   29  O5  UNL     1       5.335  19.203   7.168  1.00  0.00    -0.290 OA
BRANCH  29  30
HETATM   30  C12 UNL     1       5.188  17.926   6.701  1.00  0.00     0.220 C 
BRANCH  30  31
HETATM   31  C13 UNL     1       5.833  16.829   7.525  1.00  0.00     0.087 A 
HETATM   32  C14 UNL     1       4.791  15.949   8.236  1.00  0.00     0.048 A 
HETATM   33  C15 UNL     1       5.677  16.883   9.018  1.00  0.00     0.026 A 
HETATM   34  C16 UNL     1       6.750  16.148   9.752  1.00  0.00     0.012 C 
HETATM   35  C17 UNL     1       7.952  16.905  10.153  1.00  0.00    -0.012 C 
HETATM   36  C18 UNL     1       8.154  18.238   9.521  1.00  0.00     0.011 C 
HETATM   37  C24 UNL     1       9.176  16.063   9.836  1.00  0.00     0.026 C 
HETATM   38  C19 UNL     1       9.261  18.076   8.528  1.00  0.00     0.007 C 
HETATM   39  C20 UNL     1       8.610  18.167   7.149  1.00  0.00     0.038 C 
HETATM   40  C23 UNL     1       9.746  16.652   8.584  1.00  0.00     0.024 C 
HETATM   41  C21 UNL     1       8.107  16.836   6.815  1.00  0.00     0.124 C 
HETATM   42  C22 UNL     1       9.300  15.965   7.316  1.00  0.00     0.053 C 
HETATM   43  O6  UNL     1       7.019  16.291   7.275  1.00  0.00    -0.372 OA
HETATM   44 BR1  UNL     1      11.687  16.565   8.738  1.00  0.00    -0.085 Br
ENDBRANCH  30  31
ENDBRANCH  29  30
ENDBRANCH  27  29
ENDBRANCH   2  26
BRANCH   2  45
HETATM   45  C25 UNL     1       1.444  20.621   7.827  1.00  0.00     0.046 C 
HETATM   46  C26 UNL     1       2.089  19.235   8.155  1.00  0.00     0.017 C 
HETATM   47  C27 UNL     1       0.034  20.218   7.360  1.00  0.00     0.017 C 
ENDBRANCH   2  45
TORSDOF 12
ENDMDL
MODEL 3
REMARK VINA RESULT: -8.412151868      4.192      6.763
REMARK  12 active torsions:
REMARK  status: ('A' for Active; 'I' for Inactive)
REMARK    1  A    between atoms: C2_2  and  C3_4 
REMARK    2  A    between atoms: C3_4  and  N1_5 
REMARK    3  A    between atoms: C3_4  and  C4_9 
REMARK    4  A    between atoms: C4_9  and  C5_10 
REMARK       I    between atoms: C5_10  and  N2_12 
REMARK    5  A    between atoms: N2_12  and  C6_14 
REMARK    6  A    between atoms: N4_20  and  C9_21 
REMARK    7  A    between atoms: C9_21  and  O3_22 
REMARK    8  A    between atoms: C10_24  and  N5_25 
REMARK    9  A    between atoms: C10_24  and  C25_44 
REMARK       I    between atoms: N5_25  and  C11_26 
REMARK   10  A    between atoms: C11_26  and  O5_28 
REMARK   11  A    between atoms: O5_28  and  C12_29 
REMARK   12  A    between atoms: C12_29  and  C13_30 
ROOT
HETATM    1  C9  UNL     1       7.580  16.801   6.932  1.00  0.00     0.177 C 
HETATM    2  C10 UNL     1       7.985  16.286   8.221  1.00  0.00     0.144 C 
ENDROOT
BRANCH   1   3
HETATM    3  N4  UNL     1       6.576  17.412   6.278  1.00  0.00    -0.334 N 
HETATM    4  C8  UNL     1       6.925  18.338   5.132  1.00  0.00     0.358 C 
HETATM    5  N3  UNL     1       6.362  19.628   5.478  1.00  0.00    -0.057 N 
HETATM    6  C7  UNL     1       5.942  19.755   6.858  1.00  0.00     0.261 C 
ATOM      7  H32 UNL     1       5.591  19.857   4.850  1.00  0.00     0.279 HD
ATOM      8  H31 UNL     1       7.013  20.375   5.236  1.00  0.00     0.279 HD
HETATM    9  C6  UNL     1       4.875  18.749   7.252  1.00  0.00     0.128 C 
HETATM   10  C28 UNL     1       5.162  17.434   6.497  1.00  0.00     0.153 C 
BRANCH   9  11
HETATM   11  N2  UNL     1       3.557  19.261   7.064  1.00  0.00    -0.353 N 
HETATM   12  C5  UNL     1       2.551  19.232   8.071  1.00  0.00     0.220 C 
HETATM   13  O2  UNL     1       2.829  18.717   9.173  1.00  0.00    -0.274 OA
ATOM     14  H2  UNL     1       3.323  19.670   6.159  1.00  0.00     0.163 HD
BRANCH  12  15
HETATM   15  C4  UNL     1       1.227  19.815   7.754  1.00  0.00     0.143 C 
BRANCH  15  16
HETATM   16  C3  UNL     1       1.221  21.305   7.619  1.00  0.00     0.260 C 
BRANCH  16  17
HETATM   17  C2  UNL     1       1.209  21.590   6.141  1.00  0.00     0.153 C 
HETATM   18  C1  UNL     1      -0.028  22.163   5.503  1.00  0.00     0.093 C 
HETATM   19  O1  UNL     1       2.161  21.373   5.432  1.00  0.00    -0.296 OA
ENDBRANCH  16  17
BRANCH  16  20
HETATM   20  N1  UNL     1      -0.006  21.886   8.149  1.00  0.00    -0.068 N 
ATOM     21  H13 UNL     1       0.146  22.503   8.946  1.00  0.00     0.275 HD
ATOM     22  H12 UNL     1      -0.425  22.582   7.533  1.00  0.00     0.275 HD
ATOM     23  H11 UNL     1      -0.623  21.100   8.354  1.00  0.00     0.275 HD
ENDBRANCH  16  20
ENDBRANCH  15  16
ENDBRANCH  12  15
ENDBRANCH   9  11
ENDBRANCH   1   3
BRANCH   1  24
HETATM   24  O3  UNL     1       8.633  16.582   6.063  1.00  0.00    -0.344 OA
ATOM     25  H3  UNL     1       9.242  15.966   6.451  1.00  0.00     0.219 HD
ENDBRANCH   1  24
BRANCH   2  26
HETATM   26  N5  UNL     1       9.356  16.004   8.257  1.00  0.00    -0.345 NA
HETATM   27  C11 UNL     1      10.694  15.728   8.293  1.00  0.00     0.440 C 
HETATM   28  O4  UNL     1      11.228  14.680   7.787  1.00  0.00    -0.221 OA
BRANCH  27  29
HETATM   29  O5  UNL     1      11.640  16.559   8.884  1.00  0.00    -0.290 OA
BRANCH  29  30
HETATM   30  C12 UNL     1      11.721  17.919   9.003  1.00  0.00     0.220 C 
BRANCH  30  31
HETATM   31  C13 UNL     1      12.235  18.672   7.792  1.00  0.00     0.087 A 
HETATM   32  C14 UNL     1      13.748  18.479   7.589  1.00  0.00     0.048 A 
HETATM   33  C15 UNL     1      13.189  19.810   8.021  1.00  0.00     0.026 A 
HETATM   34  C16 UNL     1      13.199  20.805   6.908  1.00  0.00     0.012 C 
HETATM   35  C17 UNL     1      12.278  21.955   7.004  1.00  0.00    -0.012 C 
HETATM   36  C18 UNL     1      11.192  21.868   8.018  1.00  0.00     0.011 C 
HETATM   37  C24 UNL     1      11.619  22.155   5.650  1.00  0.00     0.026 C 
HETATM   38  C19 UNL     1       9.924  21.619   7.265  1.00  0.00     0.007 C 
HETATM   39  C20 UNL     1       9.528  20.175   7.566  1.00  0.00     0.038 C 
HETATM   40  C23 UNL     1      10.243  21.587   5.794  1.00  0.00     0.024 C 
HETATM   41  C21 UNL     1      10.258  19.319   6.633  1.00  0.00     0.124 C 
HETATM   42  C22 UNL     1      10.109  20.158   5.326  1.00  0.00     0.053 C 
HETATM   43  O6  UNL     1      11.509  18.978   6.725  1.00  0.00    -0.372 OA
HETATM   44 BR1  UNL     1       9.037  22.733   4.778  1.00  0.00    -0.085 Br
ENDBRANCH  30  31
ENDBRANCH  29  30
ENDBRANCH  27  29
ENDBRANCH   2  26
BRANCH   2  45
HETATM   45  C25 UNL     1       7.443  16.846   9.497  1.00  0.00     0.046 C 
HETATM   46  C26 UNL     1       8.530  16.656  10.605  1.00  0.00     0.017 C 
HETATM   47  C27 UNL     1       6.262  16.035  10.061  1.00  0.00     0.017 C 
ENDBRANCH   2  45
TORSDOF 12
ENDMDL
MODEL 4
REMARK VINA RESULT: -8.357515638      1.639      2.037
REMARK  12 active torsions:
REMARK  status: ('A' for Active; 'I' for Inactive)
REMARK    1  A    between atoms: C2_2  and  C3_4 
REMARK    2  A    between atoms: C3_4  and  N1_5 
REMARK    3  A    between atoms: C3_4  and  C4_9 
REMARK    4  A    between atoms: C4_9  and  C5_10 
REMARK       I    between atoms: C5_10  and  N2_12 
REMARK    5  A    between atoms: N2_12  and  C6_14 
REMARK    6  A    between atoms: N4_20  and  C9_21 
REMARK    7  A    between atoms: C9_21  and  O3_22 
REMARK    8  A    between atoms: C10_24  and  N5_25 
REMARK    9  A    between atoms: C10_24  and  C25_44 
REMARK       I    between atoms: N5_25  and  C11_26 
REMARK   10  A    between atoms: C11_26  and  O5_28 
REMARK   11  A    between atoms: O5_28  and  C12_29 
REMARK   12  A    between atoms: C12_29  and  C13_30 
ROOT
HETATM    1  C9  UNL     1       2.365  22.226   6.742  1.00  0.00     0.177 C 
HETATM    2  C10 UNL     1       1.563  21.055   7.015  1.00  0.00     0.144 C 
ENDROOT
BRANCH   1   3
HETATM    3  N4  UNL     1       2.304  23.514   6.356  1.00  0.00    -0.334 N 
HETATM    4  C8  UNL     1       3.452  24.075   5.544  1.00  0.00     0.358 C 
HETATM    5  N3  UNL     1       3.961  25.201   6.300  1.00  0.00    -0.057 N 
HETATM    6  C7  UNL     1       3.490  25.276   7.667  1.00  0.00     0.261 C 
ATOM      7  H32 UNL     1       3.765  26.074   5.809  1.00  0.00     0.279 HD
ATOM      8  H31 UNL     1       4.981  25.212   6.277  1.00  0.00     0.279 HD
HETATM    9  C6  UNL     1       1.979  25.390   7.772  1.00  0.00     0.128 C 
HETATM   10  C28 UNL     1       1.361  24.554   6.632  1.00  0.00     0.153 C 
BRANCH   9  11
HETATM   11  N2  UNL     1       1.544  26.747   7.810  1.00  0.00    -0.353 N 
HETATM   12  C5  UNL     1       0.413  27.190   8.555  1.00  0.00     0.220 C 
HETATM   13  O2  UNL     1      -0.243  26.345   9.196  1.00  0.00    -0.274 OA
ATOM     14  H2  UNL     1       2.070  27.438   7.275  1.00  0.00     0.163 HD
BRANCH  12  15
HETATM   15  C4  UNL     1       0.078  28.632   8.526  1.00  0.00     0.143 C 
BRANCH  15  16
HETATM   16  C3  UNL     1      -0.668  29.120   9.727  1.00  0.00     0.260 C 
BRANCH  16  17
HETATM   17  C2  UNL     1       0.277  30.032  10.464  1.00  0.00     0.153 C 
HETATM   18  C1  UNL     1       1.739  30.031  10.110  1.00  0.00     0.093 C 
HETATM   19  O1  UNL     1      -0.091  30.773  11.342  1.00  0.00    -0.296 OA
ENDBRANCH  16  17
BRANCH  16  20
HETATM   20  N1  UNL     1      -1.809  29.946   9.351  1.00  0.00    -0.068 N 
ATOM     21  H13 UNL     1      -1.618  30.947   9.389  1.00  0.00     0.275 HD
ATOM     22  H12 UNL     1      -2.033  29.901   8.357  1.00  0.00     0.275 HD
ATOM     23  H11 UNL     1      -2.577  29.654   9.955  1.00  0.00     0.275 HD
ENDBRANCH  16  20
ENDBRANCH  15  16
ENDBRANCH  12  15
ENDBRANCH   9  11
ENDBRANCH   1   3
BRANCH   1  24
HETATM   24  O3  UNL     1       3.681  21.877   6.980  1.00  0.00    -0.344 OA
ATOM     25  H3  UNL     1       3.869  21.958   7.907  1.00  0.00     0.219 HD
ENDBRANCH   1  24
BRANCH   2  26
HETATM   26  N5  UNL     1       2.299  20.068   7.680  1.00  0.00    -0.345 NA
HETATM   27  C11 UNL     1       3.018  19.104   8.330  1.00  0.00     0.440 C 
HETATM   28  O4  UNL     1       2.564  18.390   9.291  1.00  0.00    -0.221 OA
BRANCH  27  29
HETATM   29  O5  UNL     1       4.336  18.780   8.021  1.00  0.00    -0.290 OA
BRANCH  29  30
HETATM   30  C12 UNL     1       4.878  17.871   7.154  1.00  0.00     0.220 C 
BRANCH  30  31
HETATM   31  C13 UNL     1       5.619  16.705   7.778  1.00  0.00     0.087 A 
HETATM   32  C14 UNL     1       4.663  15.697   8.437  1.00  0.00     0.048 A 
HETATM   33  C15 UNL     1       5.574  16.558   9.273  1.00  0.00     0.026 A 
HETATM   34  C16 UNL     1       6.724  15.781   9.825  1.00  0.00     0.012 C 
HETATM   35  C17 UNL     1       7.926  16.531  10.238  1.00  0.00    -0.012 C 
HETATM   36  C18 UNL     1       8.035  17.942   9.776  1.00  0.00     0.011 C 
HETATM   37  C24 UNL     1       9.151  15.791   9.726  1.00  0.00     0.026 C 
HETATM   38  C19 UNL     1       9.068  17.959   8.695  1.00  0.00     0.007 C 
HETATM   39  C20 UNL     1       8.313  18.200   7.389  1.00  0.00     0.038 C 
HETATM   40  C23 UNL     1       9.604  16.561   8.527  1.00  0.00     0.024 C 
HETATM   41  C21 UNL     1       7.831  16.903   6.918  1.00  0.00     0.124 C 
HETATM   42  C22 UNL     1       9.088  16.026   7.214  1.00  0.00     0.053 C 
HETATM   43  O6  UNL     1       6.801  16.256   7.377  1.00  0.00    -0.372 OA
HETATM   44 BR1  UNL     1      11.553  16.540   8.532  1.00  0.00    -0.085 Br
ENDBRANCH  30  31
ENDBRANCH  29  30
ENDBRANCH  27  29
ENDBRANCH   2  26
BRANCH   2  45
HETATM   45  C25 UNL     1       0.141  21.163   7.465  1.00  0.00     0.046 C 
HETATM   46  C26 UNL     1      -0.374  19.721   7.780  1.00  0.00     0.017 C 
HETATM   47  C27 UNL     1      -0.816  21.610   6.345  1.00  0.00     0.017 C 
ENDBRANCH   2  45
TORSDOF 12
ENDMDL
MODEL 5
REMARK VINA RESULT: -8.346627198      1.949      2.814
REMARK  12 active torsions:
REMARK  status: ('A' for Active; 'I' for Inactive)
REMARK    1  A    between atoms: C2_2  and  C3_4 
REMARK    2  A    between atoms: C3_4  and  N1_5 
REMARK    3  A    between atoms: C3_4  and  C4_9 
REMARK    4  A    between atoms: C4_9  and  C5_10 
REMARK       I    between atoms: C5_10  and  N2_12 
REMARK    5  A    between atoms: N2_12  and  C6_14 
REMARK    6  A    between atoms: N4_20  and  C9_21 
REMARK    7  A    between atoms: C9_21  and  O3_22 
REMARK    8  A    between atoms: C10_24  and  N5_25 
REMARK    9  A    between atoms: C10_24  and  C25_44 
REMARK       I    between atoms: N5_25  and  C11_26 
REMARK   10  A    between atoms: C11_26  and  O5_28 
REMARK   11  A    between atoms: O5_28  and  C12_29 
REMARK   12  A    between atoms: C12_29  and  C13_30 
ROOT
HETATM    1  C9  UNL     1       3.805  22.695   5.957  1.00  0.00     0.177 C 
HETATM    2  C10 UNL     1       3.893  21.296   6.308  1.00  0.00     0.144 C 
ENDROOT
BRANCH   1   3
HETATM    3  N4  UNL     1       2.984  23.761   5.953  1.00  0.00    -0.334 N 
HETATM    4  C8  UNL     1       2.527  24.311   4.619  1.00  0.00     0.358 C 
HETATM    5  N3  UNL     1       2.951  25.696   4.594  1.00  0.00    -0.057 N 
HETATM    6  C7  UNL     1       3.905  26.057   5.622  1.00  0.00     0.261 C 
ATOM      7  H32 UNL     1       2.141  26.315   4.629  1.00  0.00     0.279 HD
ATOM      8  H31 UNL     1       3.317  25.938   3.673  1.00  0.00     0.279 HD
HETATM    9  C6  UNL     1       3.375  25.840   7.029  1.00  0.00     0.128 C 
HETATM   10  C28 UNL     1       2.477  24.585   7.008  1.00  0.00     0.153 C 
BRANCH   9  11
HETATM   11  N2  UNL     1       2.746  27.006   7.553  1.00  0.00    -0.353 N 
HETATM   12  C5  UNL     1       2.841  27.407   8.916  1.00  0.00     0.220 C 
HETATM   13  O2  UNL     1       3.497  26.692   9.700  1.00  0.00    -0.274 OA
ATOM     14  H2  UNL     1       2.198  27.585   6.917  1.00  0.00     0.163 HD
BRANCH  12  15
HETATM   15  C4  UNL     1       2.155  28.653   9.329  1.00  0.00     0.143 C 
BRANCH  15  16
HETATM   16  C3  UNL     1       1.005  28.448  10.264  1.00  0.00     0.260 C 
BRANCH  16  17
HETATM   17  C2  UNL     1       0.043  29.574   9.995  1.00  0.00     0.153 C 
HETATM   18  C1  UNL     1      -0.423  30.442  11.132  1.00  0.00     0.093 C 
HETATM   19  O1  UNL     1      -0.381  29.814   8.891  1.00  0.00    -0.296 OA
ENDBRANCH  16  17
BRANCH  16  20
HETATM   20  N1  UNL     1       0.279  27.221   9.960  1.00  0.00    -0.068 N 
ATOM     21  H13 UNL     1      -0.701  27.375   9.726  1.00  0.00     0.275 HD
ATOM     22  H12 UNL     1       0.553  26.795   9.075  1.00  0.00     0.275 HD
ATOM     23  H11 UNL     1       0.414  26.609  10.765  1.00  0.00     0.275 HD
ENDBRANCH  16  20
ENDBRANCH  15  16
ENDBRANCH  12  15
ENDBRANCH   9  11
ENDBRANCH   1   3
BRANCH   1  24
HETATM   24  O3  UNL     1       5.036  23.059   5.443  1.00  0.00    -0.344 OA
ATOM     25  H3  UNL     1       4.921  23.749   4.801  1.00  0.00     0.219 HD
ENDBRANCH   1  24
BRANCH   2  26
HETATM   26  N5  UNL     1       5.216  20.840   6.289  1.00  0.00    -0.345 NA
HETATM   27  C11 UNL     1       6.508  20.395   6.271  1.00  0.00     0.440 C 
HETATM   28  O4  UNL     1       7.072  19.860   5.254  1.00  0.00    -0.221 OA
BRANCH  27  29
HETATM   29  O5  UNL     1       7.369  20.473   7.361  1.00  0.00    -0.290 OA
BRANCH  29  30
HETATM   30  C12 UNL     1       8.374  19.654   7.797  1.00  0.00     0.220 C 
BRANCH  30  31
HETATM   31  C13 UNL     1       8.069  18.804   9.015  1.00  0.00     0.087 A 
HETATM   32  C14 UNL     1       8.813  19.297  10.268  1.00  0.00     0.048 A 
HETATM   33  C15 UNL     1       9.188  17.995   9.609  1.00  0.00     0.026 A 
HETATM   34  C16 UNL     1       8.712  16.817  10.395  1.00  0.00     0.012 C 
HETATM   35  C17 UNL     1       8.563  15.531   9.686  1.00  0.00    -0.012 C 
HETATM   36  C18 UNL     1       8.577  15.574   8.197  1.00  0.00     0.011 C 
HETATM   37  C24 UNL     1       7.247  14.901  10.109  1.00  0.00     0.026 C 
HETATM   38  C19 UNL     1       7.167  15.355   7.751  1.00  0.00     0.007 C 
HETATM   39  C20 UNL     1       6.680  16.696   7.207  1.00  0.00     0.038 C 
HETATM   40  C23 UNL     1       6.308  15.149   8.971  1.00  0.00     0.024 C 
HETATM   41  C21 UNL     1       6.205  17.482   8.344  1.00  0.00     0.124 C 
HETATM   42  C22 UNL     1       5.443  16.375   9.136  1.00  0.00     0.053 C 
HETATM   43  O6  UNL     1       6.949  18.117   9.200  1.00  0.00    -0.372 OA
HETATM   44 BR1  UNL     1       5.186  13.565   8.794  1.00  0.00    -0.085 Br
ENDBRANCH  30  31
ENDBRANCH  29  30
ENDBRANCH  27  29
ENDBRANCH   2  26
BRANCH   2  45
HETATM   45  C25 UNL     1       3.058  20.705   7.399  1.00  0.00     0.046 C 
HETATM   46  C26 UNL     1       3.365  19.173   7.461  1.00  0.00     0.017 C 
HETATM   47  C27 UNL     1       1.551  20.720   7.085  1.00  0.00     0.017 C 
ENDBRANCH   2  45
TORSDOF 12
ENDMDL
