MODEL 1
REMARK VINA RESULT: -7.972206738      0.000      0.000
REMARK  14 active torsions:
REMARK  status: ('A' for Active; 'I' for Inactive)
REMARK    1  A    between atoms: C2_2  and  C3_3 
REMARK    2  A    between atoms: C3_3  and  C4_4 
REMARK    3  A    between atoms: C6_6  and  O1_7 
REMARK    4  A    between atoms: C12_14  and  O2_15 
REMARK    5  A    between atoms: C15_19  and  O3_20 
REMARK    6  A    between atoms: C20_27  and  O5_28 
REMARK    7  A    between atoms: C24_34  and  C25_35 
REMARK    8  A    between atoms: C25_35  and  C26_36 
REMARK       I    between atoms: C26_36  and  N1_38 
REMARK    9  A    between atoms: N1_38  and  C27_40 
REMARK   10  A    between atoms: C27_40  and  C28_41 
REMARK   11  A    between atoms: C28_41  and  C29_43 
REMARK   12  A    between atoms: C29_43  and  N2_44 
REMARK   13  A    between atoms: C29_43  and  C30_48 
REMARK   14  A    between atoms: C30_48  and  C31_49 
ROOT
HETATM    1  C4  UNL     1       8.770  19.348   6.782  1.00  0.00     0.010 C 
HETATM    2  C5  UNL     1       7.884  19.664   7.862  1.00  0.00     0.030 C 
HETATM    3  C6  UNL     1       6.465  19.869   7.939  1.00  0.00     0.054 C 
HETATM    4  C7  UNL     1       5.164  19.734   7.354  1.00  0.00     0.073 C 
HETATM    5  C8  UNL     1       4.232  18.857   8.247  1.00  0.00     0.010 C 
HETATM    6  C9  UNL     1       2.904  19.568   8.477  1.00  0.00     0.014 C 
HETATM    7  C10 UNL     1       4.019  17.530   7.621  1.00  0.00    -0.020 C 
HETATM    8  C11 UNL     1       4.394  16.335   7.913  1.00  0.00     0.028 C 
HETATM    9  C12 UNL     1       5.157  15.655   8.896  1.00  0.00     0.043 C 
HETATM   10  C13 UNL     1       6.663  15.564   9.081  1.00  0.00     0.067 C 
HETATM   11  C14 UNL     1       7.171  16.913   8.895  1.00  0.00     0.053 C 
HETATM   12  C15 UNL     1       8.492  17.451   9.162  1.00  0.00     0.126 C 
HETATM   13  C16 UNL     1       8.206  18.948   9.167  1.00  0.00     0.193 C 
HETATM   14  O4  UNL     1       8.248  19.496  10.242  1.00  0.00    -0.289 OA
HETATM   15  C17 UNL     1       9.631  17.388   8.256  1.00  0.00     0.031 C 
HETATM   16  C18 UNL     1       9.943  15.905   8.036  1.00  0.00     0.014 C 
HETATM   17  C19 UNL     1       9.714  18.177   7.025  1.00  0.00     0.037 C 
HETATM   18  C20 UNL     1      11.160  18.494   6.729  1.00  0.00     0.142 C 
HETATM   19  C21 UNL     1      11.719  19.640   7.470  1.00  0.00     0.115 C 
HETATM   20 CL1  UNL     1      13.130  20.269   6.603  1.00  0.00    -0.122 Cl
HETATM   21  C22 UNL     1      10.627  20.748   7.635  1.00  0.00     0.011 C 
HETATM   22  C23 UNL     1      11.384  21.962   7.936  1.00  0.00     0.012 C 
HETATM   23  C24 UNL     1       9.735  20.583   6.508  1.00  0.00     0.033 C 
ENDROOT
BRANCH  23  24
HETATM   24  C25 UNL     1       8.900  21.641   5.930  1.00  0.00     0.054 C 
BRANCH  24  25
HETATM   25  C26 UNL     1       9.420  22.855   5.299  1.00  0.00     0.241 C 
HETATM   26  O6  UNL     1       9.949  23.047   4.198  1.00  0.00    -0.269 OA
HETATM   27  N1  UNL     1       9.325  24.109   6.055  1.00  0.00    -0.330 N 
ATOM     28  H1  UNL     1       8.888  24.067   6.975  1.00  0.00     0.168 HD
BRANCH  27  29
HETATM   29  C27 UNL     1       9.786  25.360   5.620  1.00  0.00     0.143 C 
BRANCH  29  30
HETATM   30  C28 UNL     1      10.753  26.077   6.437  1.00  0.00     0.195 C 
HETATM   31  O7  UNL     1      10.528  26.621   7.495  1.00  0.00    -0.289 OA
BRANCH  30  32
HETATM   32  C29 UNL     1      12.177  26.169   5.941  1.00  0.00     0.258 C 
BRANCH  32  33
HETATM   33  N2  UNL     1      12.674  27.520   6.073  1.00  0.00    -0.068 N 
ATOM     34  H23 UNL     1      11.967  28.210   5.820  1.00  0.00     0.275 HD
ATOM     35  H22 UNL     1      12.802  27.782   7.050  1.00  0.00     0.275 HD
ATOM     36  H21 UNL     1      13.532  27.641   5.534  1.00  0.00     0.275 HD
ENDBRANCH  32  33
BRANCH  32  37
HETATM   37  C30 UNL     1      12.968  25.282   6.897  1.00  0.00     0.045 C 
BRANCH  37  38
HETATM   38  C31 UNL     1      13.944  24.376   6.236  1.00  0.00    -0.020 C 
HETATM   39  C32 UNL     1      14.704  23.534   7.202  1.00  0.00     0.009 C 
HETATM   40  C33 UNL     1      13.292  23.588   5.111  1.00  0.00     0.009 C 
ENDBRANCH  37  38
ENDBRANCH  32  37
ENDBRANCH  30  32
ENDBRANCH  29  30
ENDBRANCH  27  29
ENDBRANCH  24  25
ENDBRANCH  23  24
BRANCH   1  41
HETATM   41  C3  UNL     1       8.280  19.078   5.378  1.00  0.00     0.042 C 
BRANCH  41  42
HETATM   42  C2  UNL     1       7.562  17.815   5.098  1.00  0.00    -0.036 C 
HETATM   43  C1  UNL     1       6.256  17.719   4.908  1.00  0.00     0.007 C 
ENDBRANCH  41  42
ENDBRANCH   1  41
BRANCH   3  44
HETATM   44  O1  UNL     1       6.189  20.458   9.072  1.00  0.00    -0.364 OA
ATOM     45  H1  UNL     1       5.343  20.149   9.377  1.00  0.00     0.217 HD
ENDBRANCH   3  44
BRANCH  18  46
HETATM   46  O5  UNL     1      11.957  17.380   7.105  1.00  0.00    -0.394 OA
ATOM     47  H5  UNL     1      12.509  17.632   7.836  1.00  0.00     0.210 HD
ENDBRANCH  18  46
BRANCH  12  48
HETATM   48  O3  UNL     1       8.964  17.121  10.453  1.00  0.00    -0.381 OA
ATOM     49  H3  UNL     1       9.912  17.098  10.501  1.00  0.00     0.211 HD
ENDBRANCH  12  48
BRANCH   9  50
HETATM   50  O2  UNL     1       4.480  14.994   9.790  1.00  0.00    -0.365 OA
ATOM     51  H2  UNL     1       4.989  14.461  10.390  1.00  0.00     0.217 HD
ENDBRANCH   9  50
TORSDOF 14
ENDMDL
MODEL 2
REMARK VINA RESULT: -7.741126903      0.970      1.607
REMARK  14 active torsions:
REMARK  status: ('A' for Active; 'I' for Inactive)
REMARK    1  A    between atoms: C2_2  and  C3_3 
REMARK    2  A    between atoms: C3_3  and  C4_4 
REMARK    3  A    between atoms: C6_6  and  O1_7 
REMARK    4  A    between atoms: C12_14  and  O2_15 
REMARK    5  A    between atoms: C15_19  and  O3_20 
REMARK    6  A    between atoms: C20_27  and  O5_28 
REMARK    7  A    between atoms: C24_34  and  C25_35 
REMARK    8  A    between atoms: C25_35  and  C26_36 
REMARK       I    between atoms: C26_36  and  N1_38 
REMARK    9  A    between atoms: N1_38  and  C27_40 
REMARK   10  A    between atoms: C27_40  and  C28_41 
REMARK   11  A    between atoms: C28_41  and  C29_43 
REMARK   12  A    between atoms: C29_43  and  N2_44 
REMARK   13  A    between atoms: C29_43  and  C30_48 
REMARK   14  A    between atoms: C30_48  and  C31_49 
ROOT
HETATM    1  C4  UNL     1       8.892  19.335   6.762  1.00  0.00     0.010 C 
HETATM    2  C5  UNL     1       7.996  19.742   7.802  1.00  0.00     0.030 C 
HETATM    3  C6  UNL     1       6.593  20.045   7.827  1.00  0.00     0.054 C 
HETATM    4  C7  UNL     1       5.305  19.980   7.203  1.00  0.00     0.073 C 
HETATM    5  C8  UNL     1       4.288  19.195   8.089  1.00  0.00     0.010 C 
HETATM    6  C9  UNL     1       3.004  19.999   8.255  1.00  0.00     0.014 C 
HETATM    7  C10 UNL     1       4.004  17.867   7.493  1.00  0.00    -0.020 C 
HETATM    8  C11 UNL     1       4.288  16.659   7.830  1.00  0.00     0.028 C 
HETATM    9  C12 UNL     1       4.971  15.958   8.856  1.00  0.00     0.043 C 
HETATM   10  C13 UNL     1       6.461  15.772   9.093  1.00  0.00     0.067 C 
HETATM   11  C14 UNL     1       7.065  17.077   8.887  1.00  0.00     0.053 C 
HETATM   12  C15 UNL     1       8.412  17.534   9.182  1.00  0.00     0.126 C 
HETATM   13  C16 UNL     1       8.228  19.045   9.137  1.00  0.00     0.193 C 
HETATM   14  O4  UNL     1       8.274  19.622  10.197  1.00  0.00    -0.289 OA
HETATM   15  C17 UNL     1       9.571  17.367   8.316  1.00  0.00     0.031 C 
HETATM   16  C18 UNL     1       9.789  15.861   8.148  1.00  0.00     0.014 C 
HETATM   17  C19 UNL     1       9.746  18.112   7.067  1.00  0.00     0.037 C 
HETATM   18  C20 UNL     1      11.219  18.322   6.811  1.00  0.00     0.142 C 
HETATM   19  C21 UNL     1      11.831  19.449   7.538  1.00  0.00     0.115 C 
HETATM   20 CL1  UNL     1      13.308  19.956   6.701  1.00  0.00    -0.122 Cl
HETATM   21  C22 UNL     1      10.812  20.632   7.636  1.00  0.00     0.011 C 
HETATM   22  C23 UNL     1      11.640  21.801   7.928  1.00  0.00     0.012 C 
HETATM   23  C24 UNL     1       9.947  20.494   6.486  1.00  0.00     0.033 C 
ENDROOT
BRANCH  23  24
HETATM   24  C25 UNL     1       9.204  21.589   5.851  1.00  0.00     0.054 C 
BRANCH  24  25
HETATM   25  C26 UNL     1       9.809  22.832   5.371  1.00  0.00     0.241 C 
HETATM   26  O6  UNL     1      10.609  23.056   4.455  1.00  0.00    -0.269 OA
HETATM   27  N1  UNL     1       9.443  24.076   6.056  1.00  0.00    -0.330 N 
ATOM     28  H1  UNL     1       8.773  24.008   6.821  1.00  0.00     0.168 HD
BRANCH  27  29
HETATM   29  C27 UNL     1       9.936  25.353   5.747  1.00  0.00     0.143 C 
BRANCH  29  30
HETATM   30  C28 UNL     1      10.803  26.022   6.704  1.00  0.00     0.195 C 
HETATM   31  O7  UNL     1      10.458  26.518   7.753  1.00  0.00    -0.289 OA
BRANCH  30  32
HETATM   32  C29 UNL     1      12.275  26.125   6.381  1.00  0.00     0.258 C 
BRANCH  32  33
HETATM   33  N2  UNL     1      12.793  24.845   5.952  1.00  0.00    -0.068 N 
ATOM     34  H23 UNL     1      13.222  24.333   6.723  1.00  0.00     0.275 HD
ATOM     35  H22 UNL     1      12.044  24.190   5.731  1.00  0.00     0.275 HD
ATOM     36  H21 UNL     1      13.437  24.962   5.170  1.00  0.00     0.275 HD
ENDBRANCH  32  33
BRANCH  32  37
HETATM   37  C30 UNL     1      12.336  27.078   5.193  1.00  0.00     0.045 C 
BRANCH  37  38
HETATM   38  C31 UNL     1      12.104  28.507   5.532  1.00  0.00    -0.020 C 
HETATM   39  C32 UNL     1      13.368  29.283   5.677  1.00  0.00     0.009 C 
HETATM   40  C33 UNL     1      11.095  29.142   4.590  1.00  0.00     0.009 C 
ENDBRANCH  37  38
ENDBRANCH  32  37
ENDBRANCH  30  32
ENDBRANCH  29  30
ENDBRANCH  27  29
ENDBRANCH  24  25
ENDBRANCH  23  24
BRANCH   1  41
HETATM   41  C3  UNL     1       8.428  19.058   5.350  1.00  0.00     0.042 C 
BRANCH  41  42
HETATM   42  C2  UNL     1       7.664  17.821   5.076  1.00  0.00    -0.036 C 
HETATM   43  C1  UNL     1       6.350  17.766   4.932  1.00  0.00     0.007 C 
ENDBRANCH  41  42
ENDBRANCH   1  41
BRANCH   3  44
HETATM   44  O1  UNL     1       6.322  20.684   8.933  1.00  0.00    -0.364 OA
ATOM     45  H1  UNL     1       6.197  21.604   8.731  1.00  0.00     0.217 HD
ENDBRANCH   3  44
BRANCH  18  46
HETATM   46  O5  UNL     1      11.926  17.168   7.244  1.00  0.00    -0.394 OA
ATOM     47  H5  UNL     1      12.780  17.161   6.829  1.00  0.00     0.210 HD
ENDBRANCH  18  46
BRANCH  12  48
HETATM   48  O3  UNL     1       8.819  17.211  10.497  1.00  0.00    -0.381 OA
ATOM     49  H3  UNL     1       9.748  17.353  10.637  1.00  0.00     0.211 HD
ENDBRANCH  12  48
BRANCH   9  50
HETATM   50  O2  UNL     1       4.224  15.371   9.745  1.00  0.00    -0.365 OA
ATOM     51  H2  UNL     1       3.715  14.629   9.440  1.00  0.00     0.217 HD
ENDBRANCH   9  50
TORSDOF 14
ENDMDL
MODEL 3
REMARK VINA RESULT: -7.631392186      1.466      1.819
REMARK  14 active torsions:
REMARK  status: ('A' for Active; 'I' for Inactive)
REMARK    1  A    between atoms: C2_2  and  C3_3 
REMARK    2  A    between atoms: C3_3  and  C4_4 
REMARK    3  A    between atoms: C6_6  and  O1_7 
REMARK    4  A    between atoms: C12_14  and  O2_15 
REMARK    5  A    between atoms: C15_19  and  O3_20 
REMARK    6  A    between atoms: C20_27  and  O5_28 
REMARK    7  A    between atoms: C24_34  and  C25_35 
REMARK    8  A    between atoms: C25_35  and  C26_36 
REMARK       I    between atoms: C26_36  and  N1_38 
REMARK    9  A    between atoms: N1_38  and  C27_40 
REMARK   10  A    between atoms: C27_40  and  C28_41 
REMARK   11  A    between atoms: C28_41  and  C29_43 
REMARK   12  A    between atoms: C29_43  and  N2_44 
REMARK   13  A    between atoms: C29_43  and  C30_48 
REMARK   14  A    between atoms: C30_48  and  C31_49 
ROOT
HETATM    1  C4  UNL     1       8.755  19.421   6.784  1.00  0.00     0.010 C 
HETATM    2  C5  UNL     1       7.861  19.710   7.865  1.00  0.00     0.030 C 
HETATM    3  C6  UNL     1       6.438  19.884   7.943  1.00  0.00     0.054 C 
HETATM    4  C7  UNL     1       5.141  19.724   7.356  1.00  0.00     0.073 C 
HETATM    5  C8  UNL     1       4.228  18.820   8.242  1.00  0.00     0.010 C 
HETATM    6  C9  UNL     1       2.884  19.499   8.476  1.00  0.00     0.014 C 
HETATM    7  C10 UNL     1       4.045  17.493   7.606  1.00  0.00    -0.020 C 
HETATM    8  C11 UNL     1       4.447  16.305   7.891  1.00  0.00     0.028 C 
HETATM    9  C12 UNL     1       5.223  15.634   8.869  1.00  0.00     0.043 C 
HETATM   10  C13 UNL     1       6.731  15.576   9.054  1.00  0.00     0.067 C 
HETATM   11  C14 UNL     1       7.209  16.937   8.878  1.00  0.00     0.053 C 
HETATM   12  C15 UNL     1       8.518  17.503   9.150  1.00  0.00     0.126 C 
HETATM   13  C16 UNL     1       8.198  18.992   9.165  1.00  0.00     0.193 C 
HETATM   14  O4  UNL     1       8.227  19.534  10.244  1.00  0.00    -0.289 OA
HETATM   15  C17 UNL     1       9.658  17.471   8.244  1.00  0.00     0.031 C 
HETATM   16  C18 UNL     1      10.004  15.997   8.015  1.00  0.00     0.014 C 
HETATM   17  C19 UNL     1       9.724  18.271   7.019  1.00  0.00     0.037 C 
HETATM   18  C20 UNL     1      11.163  18.622   6.727  1.00  0.00     0.142 C 
HETATM   19  C21 UNL     1      11.695  19.774   7.476  1.00  0.00     0.115 C 
HETATM   20 CL1  UNL     1      13.093  20.441   6.615  1.00  0.00    -0.122 Cl
HETATM   21  C22 UNL     1      10.579  20.856   7.648  1.00  0.00     0.011 C 
HETATM   22  C23 UNL     1      11.309  22.085   7.958  1.00  0.00     0.012 C 
HETATM   23  C24 UNL     1       9.692  20.679   6.519  1.00  0.00     0.033 C 
ENDROOT
BRANCH  23  24
HETATM   24  C25 UNL     1       8.834  21.723   5.948  1.00  0.00     0.054 C 
BRANCH  24  25
HETATM   25  C26 UNL     1       9.315  22.834   5.126  1.00  0.00     0.241 C 
HETATM   26  O6  UNL     1      10.429  23.081   4.649  1.00  0.00    -0.269 OA
HETATM   27  N1  UNL     1       8.353  23.881   4.765  1.00  0.00    -0.330 N 
ATOM     28  H1  UNL     1       7.395  23.768   5.095  1.00  0.00     0.168 HD
BRANCH  27  29
HETATM   29  C27 UNL     1       8.639  25.024   4.004  1.00  0.00     0.143 C 
BRANCH  29  30
HETATM   30  C28 UNL     1       8.108  26.308   4.437  1.00  0.00     0.195 C 
HETATM   31  O7  UNL     1       6.958  26.539   4.735  1.00  0.00    -0.289 OA
BRANCH  30  32
HETATM   32  C29 UNL     1       9.058  27.478   4.527  1.00  0.00     0.258 C 
BRANCH  32  33
HETATM   33  N2  UNL     1       8.656  28.379   5.583  1.00  0.00    -0.068 N 
ATOM     34  H23 UNL     1       8.395  27.875   6.431  1.00  0.00     0.275 HD
ATOM     35  H22 UNL     1       9.448  28.904   5.954  1.00  0.00     0.275 HD
ATOM     36  H21 UNL     1       7.909  28.997   5.264  1.00  0.00     0.275 HD
ENDBRANCH  32  33
BRANCH  32  37
HETATM   37  C30 UNL     1      10.392  26.854   4.924  1.00  0.00     0.045 C 
BRANCH  37  38
HETATM   38  C31 UNL     1      10.798  27.107   6.332  1.00  0.00    -0.020 C 
HETATM   39  C32 UNL     1      10.943  25.856   7.129  1.00  0.00     0.009 C 
HETATM   40  C33 UNL     1      12.006  28.026   6.402  1.00  0.00     0.009 C 
ENDBRANCH  37  38
ENDBRANCH  32  37
ENDBRANCH  30  32
ENDBRANCH  29  30
ENDBRANCH  27  29
ENDBRANCH  24  25
ENDBRANCH  23  24
BRANCH   1  41
HETATM   41  C3  UNL     1       8.271  19.151   5.378  1.00  0.00     0.042 C 
BRANCH  41  42
HETATM   42  C2  UNL     1       7.592  17.869   5.086  1.00  0.00    -0.036 C 
HETATM   43  C1  UNL     1       6.289  17.734   4.902  1.00  0.00     0.007 C 
ENDBRANCH  41  42
ENDBRANCH   1  41
BRANCH   3  44
HETATM   44  O1  UNL     1       6.148  20.457   9.079  1.00  0.00    -0.364 OA
ATOM     45  H1  UNL     1       5.303  20.886   8.997  1.00  0.00     0.217 HD
ENDBRANCH   3  44
BRANCH  18  46
HETATM   46  O5  UNL     1      11.984  17.523   7.095  1.00  0.00    -0.394 OA
ATOM     47  H5  UNL     1      12.623  17.375   6.408  1.00  0.00     0.210 HD
ENDBRANCH  18  46
BRANCH  12  48
HETATM   48  O3  UNL     1       8.996  17.174  10.439  1.00  0.00    -0.381 OA
ATOM     49  H3  UNL     1       9.249  17.939  10.941  1.00  0.00     0.211 HD
ENDBRANCH  12  48
BRANCH   9  50
HETATM   50  O2  UNL     1       4.561  14.952   9.758  1.00  0.00    -0.365 OA
ATOM     51  H2  UNL     1       4.978  14.854  10.606  1.00  0.00     0.217 HD
ENDBRANCH   9  50
TORSDOF 14
ENDMDL
MODEL 4
REMARK VINA RESULT: -7.597470204      1.219      1.684
REMARK  14 active torsions:
REMARK  status: ('A' for Active; 'I' for Inactive)
REMARK    1  A    between atoms: C2_2  and  C3_3 
REMARK    2  A    between atoms: C3_3  and  C4_4 
REMARK    3  A    between atoms: C6_6  and  O1_7 
REMARK    4  A    between atoms: C12_14  and  O2_15 
REMARK    5  A    between atoms: C15_19  and  O3_20 
REMARK    6  A    between atoms: C20_27  and  O5_28 
REMARK    7  A    between atoms: C24_34  and  C25_35 
REMARK    8  A    between atoms: C25_35  and  C26_36 
REMARK       I    between atoms: C26_36  and  N1_38 
REMARK    9  A    between atoms: N1_38  and  C27_40 
REMARK   10  A    between atoms: C27_40  and  C28_41 
REMARK   11  A    between atoms: C28_41  and  C29_43 
REMARK   12  A    between atoms: C29_43  and  N2_44 
REMARK   13  A    between atoms: C29_43  and  C30_48 
REMARK   14  A    between atoms: C30_48  and  C31_49 
ROOT
HETATM    1  C4  UNL     1       8.801  19.323   6.776  1.00  0.00     0.010 C 
HETATM    2  C5  UNL     1       7.923  19.640   7.862  1.00  0.00     0.030 C 
HETATM    3  C6  UNL     1       6.508  19.870   7.946  1.00  0.00     0.054 C 
HETATM    4  C7  UNL     1       5.204  19.766   7.362  1.00  0.00     0.073 C 
HETATM    5  C8  UNL     1       4.259  18.893   8.246  1.00  0.00     0.010 C 
HETATM    6  C9  UNL     1       2.944  19.624   8.488  1.00  0.00     0.014 C 
HETATM    7  C10 UNL     1       4.020  17.579   7.601  1.00  0.00    -0.020 C 
HETATM    8  C11 UNL     1       4.375  16.374   7.876  1.00  0.00     0.028 C 
HETATM    9  C12 UNL     1       5.127  15.666   8.848  1.00  0.00     0.043 C 
HETATM   10  C13 UNL     1       6.632  15.546   9.027  1.00  0.00     0.067 C 
HETATM   11  C14 UNL     1       7.163  16.888   8.859  1.00  0.00     0.053 C 
HETATM   12  C15 UNL     1       8.495  17.399   9.130  1.00  0.00     0.126 C 
HETATM   13  C16 UNL     1       8.236  18.900   9.156  1.00  0.00     0.193 C 
HETATM   14  O4  UNL     1       8.290  19.433  10.239  1.00  0.00    -0.289 OA
HETATM   15  C17 UNL     1       9.630  17.328   8.220  1.00  0.00     0.031 C 
HETATM   16  C18 UNL     1       9.916  15.843   7.979  1.00  0.00     0.014 C 
HETATM   17  C19 UNL     1       9.725  18.133   7.000  1.00  0.00     0.037 C 
HETATM   18  C20 UNL     1      11.176  18.427   6.705  1.00  0.00     0.142 C 
HETATM   19  C21 UNL     1      11.756  19.553   7.460  1.00  0.00     0.115 C 
HETATM   20 CL1  UNL     1      13.177  20.169   6.598  1.00  0.00    -0.122 Cl
HETATM   21  C22 UNL     1      10.685  20.678   7.643  1.00  0.00     0.011 C 
HETATM   22  C23 UNL     1      11.464  21.873   7.959  1.00  0.00     0.012 C 
HETATM   23  C24 UNL     1       9.788  20.544   6.516  1.00  0.00     0.033 C 
ENDROOT
BRANCH  23  24
HETATM   24  C25 UNL     1       8.970  21.625   5.955  1.00  0.00     0.054 C 
BRANCH  24  25
HETATM   25  C26 UNL     1       9.502  22.760   5.200  1.00  0.00     0.241 C 
HETATM   26  O6  UNL     1       9.073  23.907   5.028  1.00  0.00    -0.269 OA
HETATM   27  N1  UNL     1      10.775  22.572   4.495  1.00  0.00    -0.330 N 
ATOM     28  H1  UNL     1      11.227  21.662   4.583  1.00  0.00     0.168 HD
BRANCH  27  29
HETATM   29  C27 UNL     1      11.423  23.537   3.710  1.00  0.00     0.143 C 
BRANCH  29  30
HETATM   30  C28 UNL     1      12.388  24.424   4.341  1.00  0.00     0.195 C 
HETATM   31  O7  UNL     1      13.400  24.085   4.914  1.00  0.00    -0.289 OA
BRANCH  30  32
HETATM   32  C29 UNL     1      12.126  25.911   4.298  1.00  0.00     0.258 C 
BRANCH  32  33
HETATM   33  N2  UNL     1      10.747  26.174   3.953  1.00  0.00    -0.068 N 
ATOM     34  H23 UNL     1      10.549  25.941   2.979  1.00  0.00     0.275 HD
ATOM     35  H22 UNL     1      10.113  25.513   4.400  1.00  0.00     0.275 HD
ATOM     36  H21 UNL     1      10.501  27.140   4.169  1.00  0.00     0.275 HD
ENDBRANCH  32  33
BRANCH  32  37
HETATM   37  C30 UNL     1      12.348  26.377   5.733  1.00  0.00     0.045 C 
BRANCH  37  38
HETATM   38  C31 UNL     1      11.122  26.399   6.573  1.00  0.00    -0.020 C 
HETATM   39  C32 UNL     1      11.102  25.323   7.603  1.00  0.00     0.009 C 
HETATM   40  C33 UNL     1      10.858  27.789   7.128  1.00  0.00     0.009 C 
ENDBRANCH  37  38
ENDBRANCH  32  37
ENDBRANCH  30  32
ENDBRANCH  29  30
ENDBRANCH  27  29
ENDBRANCH  24  25
ENDBRANCH  23  24
BRANCH   1  41
HETATM   41  C3  UNL     1       8.303  19.082   5.370  1.00  0.00     0.042 C 
BRANCH  41  42
HETATM   42  C2  UNL     1       7.569  17.832   5.072  1.00  0.00    -0.036 C 
HETATM   43  C1  UNL     1       6.259  17.751   4.904  1.00  0.00     0.007 C 
ENDBRANCH  41  42
ENDBRANCH   1  41
BRANCH   3  44
HETATM   44  O1  UNL     1       6.245  20.447   9.087  1.00  0.00    -0.364 OA
ATOM     45  H1  UNL     1       6.186  19.779   9.760  1.00  0.00     0.217 HD
ENDBRANCH   3  44
BRANCH  18  46
HETATM   46  O5  UNL     1      11.953  17.294   7.063  1.00  0.00    -0.394 OA
ATOM     47  H5  UNL     1      11.587  16.527   6.639  1.00  0.00     0.210 HD
ENDBRANCH  18  46
BRANCH  12  48
HETATM   48  O3  UNL     1       8.964  17.043  10.415  1.00  0.00    -0.381 OA
ATOM     49  H3  UNL     1       8.646  17.625  11.094  1.00  0.00     0.211 HD
ENDBRANCH  12  48
BRANCH   9  50
HETATM   50  O2  UNL     1       4.441  15.005   9.734  1.00  0.00    -0.365 OA
ATOM     51  H2  UNL     1       3.501  14.978   9.601  1.00  0.00     0.217 HD
ENDBRANCH   9  50
TORSDOF 14
ENDMDL
MODEL 5
REMARK VINA RESULT: -7.544418072      1.191      2.309
REMARK  14 active torsions:
REMARK  status: ('A' for Active; 'I' for Inactive)
REMARK    1  A    between atoms: C2_2  and  C3_3 
REMARK    2  A    between atoms: C3_3  and  C4_4 
REMARK    3  A    between atoms: C6_6  and  O1_7 
REMARK    4  A    between atoms: C12_14  and  O2_15 
REMARK    5  A    between atoms: C15_19  and  O3_20 
REMARK    6  A    between atoms: C20_27  and  O5_28 
REMARK    7  A    between atoms: C24_34  and  C25_35 
REMARK    8  A    between atoms: C25_35  and  C26_36 
REMARK       I    between atoms: C26_36  and  N1_38 
REMARK    9  A    between atoms: N1_38  and  C27_40 
REMARK   10  A    between atoms: C27_40  and  C28_41 
REMARK   11  A    between atoms: C28_41  and  C29_43 
REMARK   12  A    between atoms: C29_43  and  N2_44 
REMARK   13  A    between atoms: C29_43  and  C30_48 
REMARK   14  A    between atoms: C30_48  and  C31_49 
ROOT
HETATM    1  C4  UNL     1       8.764  19.498   6.750  1.00  0.00     0.010 C 
HETATM    2  C5  UNL     1       7.863  19.826   7.813  1.00  0.00     0.030 C 
HETATM    3  C6  UNL     1       6.446  20.055   7.865  1.00  0.00     0.054 C 
HETATM    4  C7  UNL     1       5.154  19.942   7.255  1.00  0.00     0.073 C 
HETATM    5  C8  UNL     1       4.192  19.079   8.129  1.00  0.00     0.010 C 
HETATM    6  C9  UNL     1       2.871  19.810   8.335  1.00  0.00     0.014 C 
HETATM    7  C10 UNL     1       3.969  17.756   7.497  1.00  0.00    -0.020 C 
HETATM    8  C11 UNL     1       4.319  16.555   7.794  1.00  0.00     0.028 C 
HETATM    9  C12 UNL     1       5.052  15.861   8.790  1.00  0.00     0.043 C 
HETATM   10  C13 UNL     1       6.553  15.746   9.002  1.00  0.00     0.067 C 
HETATM   11  C14 UNL     1       7.086  17.086   8.828  1.00  0.00     0.053 C 
HETATM   12  C15 UNL     1       8.411  17.603   9.120  1.00  0.00     0.126 C 
HETATM   13  C16 UNL     1       8.149  19.103   9.123  1.00  0.00     0.193 C 
HETATM   14  O4  UNL     1       8.180  19.650  10.199  1.00  0.00    -0.289 OA
HETATM   15  C17 UNL     1       9.565  17.522   8.235  1.00  0.00     0.031 C 
HETATM   16  C18 UNL     1       9.857  16.035   8.019  1.00  0.00     0.014 C 
HETATM   17  C19 UNL     1       9.684  18.312   7.007  1.00  0.00     0.037 C 
HETATM   18  C20 UNL     1      11.140  18.605   6.740  1.00  0.00     0.142 C 
HETATM   19  C21 UNL     1      11.703  19.741   7.492  1.00  0.00     0.115 C 
HETATM   20 CL1  UNL     1      13.141  20.349   6.653  1.00  0.00    -0.122 Cl
HETATM   21  C22 UNL     1      10.626  20.866   7.639  1.00  0.00     0.011 C 
HETATM   22  C23 UNL     1      11.397  22.067   7.956  1.00  0.00     0.012 C 
HETATM   23  C24 UNL     1       9.753  20.717   6.496  1.00  0.00     0.033 C 
ENDROOT
BRANCH  23  24
HETATM   24  C25 UNL     1       8.946  21.790   5.904  1.00  0.00     0.054 C 
BRANCH  24  25
HETATM   25  C26 UNL     1       9.498  22.976   5.248  1.00  0.00     0.241 C 
HETATM   26  O6  UNL     1       9.956  23.149   4.113  1.00  0.00    -0.269 OA
HETATM   27  N1  UNL     1       9.543  24.223   6.021  1.00  0.00    -0.330 N 
ATOM     28  H1  UNL     1       9.172  24.197   6.970  1.00  0.00     0.168 HD
BRANCH  27  29
HETATM   29  C27 UNL     1      10.053  25.447   5.564  1.00  0.00     0.143 C 
BRANCH  29  30
HETATM   30  C28 UNL     1      10.299  26.509   6.528  1.00  0.00     0.195 C 
HETATM   31  O7  UNL     1      10.469  26.365   7.718  1.00  0.00    -0.289 OA
BRANCH  30  32
HETATM   32  C29 UNL     1      10.349  27.932   6.025  1.00  0.00     0.258 C 
BRANCH  32  33
HETATM   33  N2  UNL     1      11.713  28.333   5.767  1.00  0.00    -0.068 N 
ATOM     34  H23 UNL     1      11.796  29.344   5.655  1.00  0.00     0.275 HD
ATOM     35  H22 UNL     1      12.302  28.223   6.592  1.00  0.00     0.275 HD
ATOM     36  H21 UNL     1      12.090  27.831   4.963  1.00  0.00     0.275 HD
ENDBRANCH  32  33
BRANCH  32  37
HETATM   37  C30 UNL     1       9.614  27.887   4.689  1.00  0.00     0.045 C 
BRANCH  37  38
HETATM   38  C31 UNL     1       8.321  28.621   4.669  1.00  0.00    -0.020 C 
HETATM   39  C32 UNL     1       7.145  27.725   4.483  1.00  0.00     0.009 C 
HETATM   40  C33 UNL     1       8.200  29.560   5.857  1.00  0.00     0.009 C 
ENDBRANCH  37  38
ENDBRANCH  32  37
ENDBRANCH  30  32
ENDBRANCH  29  30
ENDBRANCH  27  29
ENDBRANCH  24  25
ENDBRANCH  23  24
BRANCH   1  41
HETATM   41  C3  UNL     1       8.295  19.238   5.336  1.00  0.00     0.042 C 
BRANCH  41  42
HETATM   42  C2  UNL     1       7.628  17.955   5.025  1.00  0.00    -0.036 C 
HETATM   43  C1  UNL     1       6.321  17.798   4.899  1.00  0.00     0.007 C 
ENDBRANCH  41  42
ENDBRANCH   1  41
BRANCH   3  44
HETATM   44  O1  UNL     1       6.158  20.646   8.993  1.00  0.00    -0.364 OA
ATOM     45  H1  UNL     1       5.213  20.669   9.092  1.00  0.00     0.217 HD
ENDBRANCH   3  44
BRANCH  18  46
HETATM   46  O5  UNL     1      11.911  17.478   7.128  1.00  0.00    -0.394 OA
ATOM     47  H5  UNL     1      12.793  17.580   6.790  1.00  0.00     0.210 HD
ENDBRANCH  18  46
BRANCH  12  48
HETATM   48  O3  UNL     1       8.853  17.263  10.419  1.00  0.00    -0.381 OA
ATOM     49  H3  UNL     1       9.279  17.987  10.862  1.00  0.00     0.211 HD
ENDBRANCH  12  48
BRANCH   9  50
HETATM   50  O2  UNL     1       4.348  15.209   9.670  1.00  0.00    -0.365 OA
ATOM     51  H2  UNL     1       4.433  15.499  10.570  1.00  0.00     0.217 HD
ENDBRANCH   9  50
TORSDOF 14
ENDMDL
