MODEL 1
REMARK VINA RESULT: -8.470286486      0.000      0.000
REMARK  10 active torsions:
REMARK  status: ('A' for Active; 'I' for Inactive)
REMARK       I    between atoms: C2_2  and  N1_4 
REMARK    1  A    between atoms: N1_4  and  C3_6 
REMARK    2  A    between atoms: C3_6  and  C4_7 
REMARK    3  A    between atoms: C19_30  and  C20_31 
REMARK    4  A    between atoms: C20_31  and  C21_32 
REMARK    5  A    between atoms: C21_32  and  C22_33 
REMARK    6  A    between atoms: C22_33  and  C23_34 
REMARK    7  A    between atoms: C23_34  and  C24_35 
REMARK    8  A    between atoms: C24_35  and  C25_36 
REMARK    9  A    between atoms: C25_36  and  O5_37 
REMARK   10  A    between atoms: N4_39  and  O6_41 
ROOT
HETATM    1  C4  UNL     1       7.768  16.466   8.510  1.00  0.00     0.231 C 
HETATM    2  O2  UNL     1       6.660  17.213   8.150  1.00  0.00    -0.375 OA
HETATM    3  C5  UNL     1       6.235  16.868   6.898  1.00  0.00     0.169 C 
HETATM    4  C6  UNL     1       4.852  17.455   6.708  1.00  0.00     0.028 C 
HETATM    5  C7  UNL     1       4.975  18.796   6.054  1.00  0.00     0.027 C 
HETATM    6  C8  UNL     1       5.343  19.842   7.039  1.00  0.00     0.087 C 
HETATM    7  C9  UNL     1       4.178  20.086   7.973  1.00  0.00     0.025 C 
HETATM    8  C10 UNL     1       2.925  20.468   7.210  1.00  0.00     0.004 C 
HETATM    9  C11 UNL     1       3.246  21.544   6.195  1.00  0.00     0.020 C 
HETATM   10  C12 UNL     1       4.593  22.130   6.553  1.00  0.00     0.126 C 
HETATM   11  N2  UNL     1       5.639  21.137   6.384  1.00  0.00    -0.345 N 
HETATM   12  C13 UNL     1       6.787  21.434   5.667  1.00  0.00     0.259 C 
HETATM   13  O3  UNL     1       6.622  22.008   4.535  1.00  0.00    -0.270 OA
HETATM   14  C14 UNL     1       8.205  21.183   6.024  1.00  0.00     0.165 C 
HETATM   15  C15 UNL     1       9.120  22.244   5.450  1.00  0.00     0.073 C 
HETATM   16  C16 UNL     1       9.411  21.976   4.037  1.00  0.00     0.095 C 
HETATM   17 CL1  UNL     1      10.938  22.864   3.646  1.00  0.00    -0.124 Cl
HETATM   18  C17 UNL     1       9.744  20.519   3.837  1.00  0.00     0.097 C 
HETATM   19  S1  UNL     1       8.748  19.732   5.133  1.00  0.00    -0.127 SA
HETATM   20  N3  UNL     1       8.420  21.175   7.438  1.00  0.00    -0.333 N 
ATOM     21  H3  UNL     1       7.826  21.811   7.969  1.00  0.00     0.164 HD
HETATM   22  C18 UNL     1       9.324  20.427   8.208  1.00  0.00     0.242 C 
HETATM   23  O4  UNL     1      10.138  21.067   8.973  1.00  0.00    -0.271 OA
HETATM   24  C19 UNL     1       9.475  18.960   8.264  1.00  0.00     0.178 C 
HETATM   25  N5  UNL     1       9.024  18.424   9.550  1.00  0.00    -0.341 N 
HETATM   26  C26 UNL     1       9.083  19.201  10.775  1.00  0.00     0.153 C 
HETATM   27  C27 UNL     1       8.508  17.104   9.596  1.00  0.00     0.251 C 
HETATM   28  O7  UNL     1       8.705  16.421  10.664  1.00  0.00    -0.270 OA
ENDROOT
BRANCH  24  29
HETATM   29  C20 UNL     1      10.824  18.417   7.984  1.00  0.00     0.035 C 
BRANCH  29  30
HETATM   30  C21 UNL     1      10.936  17.258   7.062  1.00  0.00     0.002 C 
BRANCH  30  31
HETATM   31  C22 UNL     1      11.603  16.116   7.865  1.00  0.00     0.001 C 
BRANCH  31  32
HETATM   32  C23 UNL     1      12.783  16.705   8.627  1.00  0.00     0.008 C 
BRANCH  32  33
HETATM   33  C24 UNL     1      14.049  16.168   7.994  1.00  0.00     0.086 C 
BRANCH  33  34
HETATM   34  C25 UNL     1      15.018  15.830   9.047  1.00  0.00     0.135 C 
HETATM   35  N4  UNL     1      15.360  16.669   9.931  1.00  0.00    -0.251 N 
ATOM     36  H4  UNL     1      14.926  17.590   9.872  1.00  0.00     0.196 HD
BRANCH  34  37
HETATM   37  O5  UNL     1      15.563  14.547   9.053  1.00  0.00    -0.348 OA
ATOM     38  H5  UNL     1      16.330  14.388   9.590  1.00  0.00     0.219 HD
ENDBRANCH  34  37
BRANCH  35  39
HETATM   39  O6  UNL     1      16.237  16.483  10.947  1.00  0.00    -0.288 OA
ATOM     40  H6  UNL     1      16.780  17.140  11.369  1.00  0.00     0.244 HD
ENDBRANCH  35  39
ENDBRANCH  33  34
ENDBRANCH  32  33
ENDBRANCH  31  32
ENDBRANCH  30  31
ENDBRANCH  29  30
ENDBRANCH  24  29
BRANCH   1  41
HETATM   41  C3  UNL     1       7.247  15.103   8.910  1.00  0.00     0.164 C 
BRANCH  41  42
HETATM   42  N1  UNL     1       6.275  15.268   9.949  1.00  0.00    -0.358 N 
HETATM   43  C2  UNL     1       5.076  14.515  10.021  1.00  0.00     0.213 C 
HETATM   44  C1  UNL     1       4.032  14.631  11.040  1.00  0.00     0.117 C 
HETATM   45  O1  UNL     1       4.903  13.649   9.086  1.00  0.00    -0.274 OA
ATOM     46  H1  UNL     1       6.454  15.963  10.674  1.00  0.00     0.162 HD
ENDBRANCH  41  42
ENDBRANCH   1  41
TORSDOF 10
ENDMDL
MODEL 2
REMARK VINA RESULT: -8.353548957      2.480      7.168
REMARK  10 active torsions:
REMARK  status: ('A' for Active; 'I' for Inactive)
REMARK       I    between atoms: C2_2  and  N1_4 
REMARK    1  A    between atoms: N1_4  and  C3_6 
REMARK    2  A    between atoms: C3_6  and  C4_7 
REMARK    3  A    between atoms: C19_30  and  C20_31 
REMARK    4  A    between atoms: C20_31  and  C21_32 
REMARK    5  A    between atoms: C21_32  and  C22_33 
REMARK    6  A    between atoms: C22_33  and  C23_34 
REMARK    7  A    between atoms: C23_34  and  C24_35 
REMARK    8  A    between atoms: C24_35  and  C25_36 
REMARK    9  A    between atoms: C25_36  and  O5_37 
REMARK   10  A    between atoms: N4_39  and  O6_41 
ROOT
HETATM    1  C4  UNL     1       7.125  17.829   8.648  1.00  0.00     0.231 C 
HETATM    2  O2  UNL     1       8.413  17.324   8.654  1.00  0.00    -0.375 OA
HETATM    3  C5  UNL     1       9.082  17.726   9.776  1.00  0.00     0.169 C 
HETATM    4  C6  UNL     1      10.332  16.879   9.890  1.00  0.00     0.028 C 
HETATM    5  C7  UNL     1      11.469  17.594   9.227  1.00  0.00     0.027 C 
HETATM    6  C8  UNL     1      11.424  17.424   7.755  1.00  0.00     0.087 C 
HETATM    7  C9  UNL     1      11.745  15.989   7.402  1.00  0.00     0.025 C 
HETATM    8  C10 UNL     1      13.089  15.567   7.961  1.00  0.00     0.004 C 
HETATM    9  C11 UNL     1      14.133  16.615   7.643  1.00  0.00     0.020 C 
HETATM   10  C12 UNL     1      13.571  17.515   6.565  1.00  0.00     0.126 C 
HETATM   11  N2  UNL     1      12.435  18.263   7.071  1.00  0.00    -0.345 N 
HETATM   12  C13 UNL     1      12.359  19.637   6.898  1.00  0.00     0.259 C 
HETATM   13  O3  UNL     1      13.412  20.308   7.179  1.00  0.00    -0.270 OA
HETATM   14  C14 UNL     1      11.219  20.459   6.424  1.00  0.00     0.165 C 
HETATM   15  C15 UNL     1      11.691  21.685   5.671  1.00  0.00     0.073 C 
HETATM   16  C16 UNL     1      12.093  22.748   6.600  1.00  0.00     0.095 C 
HETATM   17 CL1  UNL     1      12.016  24.300   5.674  1.00  0.00    -0.124 Cl
HETATM   18  C17 UNL     1      11.072  22.898   7.699  1.00  0.00     0.097 C 
HETATM   19  S1  UNL     1      10.445  21.202   7.854  1.00  0.00    -0.127 SA
HETATM   20  N3  UNL     1      10.355  19.739   5.539  1.00  0.00    -0.333 N 
ATOM     21  H3  UNL     1      10.821  19.054   4.946  1.00  0.00     0.164 HD
HETATM   22  C18 UNL     1       8.966  19.833   5.363  1.00  0.00     0.242 C 
HETATM   23  O4  UNL     1       8.524  20.078   4.179  1.00  0.00    -0.271 OA
HETATM   24  C19 UNL     1       7.907  19.681   6.379  1.00  0.00     0.178 C 
HETATM   25  N5  UNL     1       7.143  18.449   6.177  1.00  0.00    -0.341 N 
HETATM   26  C26 UNL     1       6.971  17.852   4.866  1.00  0.00     0.153 C 
HETATM   27  C27 UNL     1       6.555  17.818   7.303  1.00  0.00     0.251 C 
HETATM   28  O7  UNL     1       5.448  17.193   7.131  1.00  0.00    -0.270 OA
ENDROOT
BRANCH  24  29
HETATM   29  C20 UNL     1       6.949  20.803   6.516  1.00  0.00     0.035 C 
BRANCH  29  30
HETATM   30  C21 UNL     1       5.831  20.655   7.482  1.00  0.00     0.002 C 
BRANCH  30  31
HETATM   31  C22 UNL     1       4.542  21.069   6.733  1.00  0.00     0.001 C 
BRANCH  31  32
HETATM   32  C23 UNL     1       3.453  20.062   7.080  1.00  0.00     0.008 C 
BRANCH  32  33
HETATM   33  C24 UNL     1       3.593  19.727   8.550  1.00  0.00     0.086 C 
BRANCH  33  34
HETATM   34  C25 UNL     1       2.517  18.807   8.948  1.00  0.00     0.135 C 
HETATM   35  N4  UNL     1       2.763  17.710   9.532  1.00  0.00    -0.251 N 
ATOM     36  H4  UNL     1       3.746  17.504   9.709  1.00  0.00     0.196 HD
BRANCH  34  37
HETATM   37  O5  UNL     1       1.202  19.169   8.667  1.00  0.00    -0.348 OA
ATOM     38  H5  UNL     1       0.604  18.494   8.368  1.00  0.00     0.219 HD
ENDBRANCH  34  37
BRANCH  35  39
HETATM   39  O6  UNL     1       1.869  16.781   9.947  1.00  0.00    -0.288 OA
ATOM     40  H6  UNL     1       1.897  15.843   9.793  1.00  0.00     0.244 HD
ENDBRANCH  35  39
ENDBRANCH  33  34
ENDBRANCH  32  33
ENDBRANCH  31  32
ENDBRANCH  30  31
ENDBRANCH  29  30
ENDBRANCH  24  29
BRANCH   1  41
HETATM   41  C3  UNL     1       6.329  16.966   9.603  1.00  0.00     0.164 C 
BRANCH  41  42
HETATM   42  N1  UNL     1       6.353  15.614   9.130  1.00  0.00    -0.358 N 
HETATM   43  C2  UNL     1       5.288  14.700   9.331  1.00  0.00     0.213 C 
HETATM   44  C1  UNL     1       5.240  13.305   8.890  1.00  0.00     0.117 C 
HETATM   45  O1  UNL     1       4.269  15.158   9.970  1.00  0.00    -0.274 OA
ATOM     46  H1  UNL     1       7.178  15.292   8.624  1.00  0.00     0.162 HD
ENDBRANCH  41  42
ENDBRANCH   1  41
TORSDOF 10
ENDMDL
MODEL 3
REMARK VINA RESULT: -8.308767617      1.003      1.301
REMARK  10 active torsions:
REMARK  status: ('A' for Active; 'I' for Inactive)
REMARK       I    between atoms: C2_2  and  N1_4 
REMARK    1  A    between atoms: N1_4  and  C3_6 
REMARK    2  A    between atoms: C3_6  and  C4_7 
REMARK    3  A    between atoms: C19_30  and  C20_31 
REMARK    4  A    between atoms: C20_31  and  C21_32 
REMARK    5  A    between atoms: C21_32  and  C22_33 
REMARK    6  A    between atoms: C22_33  and  C23_34 
REMARK    7  A    between atoms: C23_34  and  C24_35 
REMARK    8  A    between atoms: C24_35  and  C25_36 
REMARK    9  A    between atoms: C25_36  and  O5_37 
REMARK   10  A    between atoms: N4_39  and  O6_41 
ROOT
HETATM    1  C4  UNL     1       7.653  16.387   8.254  1.00  0.00     0.231 C 
HETATM    2  O2  UNL     1       6.555  17.189   8.004  1.00  0.00    -0.375 OA
HETATM    3  C5  UNL     1       6.048  16.935   6.760  1.00  0.00     0.169 C 
HETATM    4  C6  UNL     1       4.678  17.577   6.686  1.00  0.00     0.028 C 
HETATM    5  C7  UNL     1       4.812  18.950   6.107  1.00  0.00     0.027 C 
HETATM    6  C8  UNL     1       5.271  19.921   7.129  1.00  0.00     0.087 C 
HETATM    7  C9  UNL     1       4.169  20.145   8.141  1.00  0.00     0.025 C 
HETATM    8  C10 UNL     1       2.890  20.613   7.477  1.00  0.00     0.004 C 
HETATM    9  C11 UNL     1       3.191  21.738   6.511  1.00  0.00     0.020 C 
HETATM   10  C12 UNL     1       4.576  22.258   6.824  1.00  0.00     0.126 C 
HETATM   11  N2  UNL     1       5.575  21.244   6.536  1.00  0.00    -0.345 N 
HETATM   12  C13 UNL     1       6.691  21.548   5.772  1.00  0.00     0.259 C 
HETATM   13  O3  UNL     1       6.483  22.195   4.687  1.00  0.00    -0.270 OA
HETATM   14  C14 UNL     1       8.116  21.230   6.030  1.00  0.00     0.165 C 
HETATM   15  C15 UNL     1       9.035  22.295   5.467  1.00  0.00     0.073 C 
HETATM   16  C16 UNL     1       9.237  22.105   4.027  1.00  0.00     0.095 C 
HETATM   17 CL1  UNL     1      10.770  22.965   3.601  1.00  0.00    -0.124 Cl
HETATM   18  C17 UNL     1       9.507  20.653   3.722  1.00  0.00     0.097 C 
HETATM   19  S1  UNL     1       8.557  19.820   5.024  1.00  0.00    -0.127 SA
HETATM   20  N3  UNL     1       8.411  21.129   7.427  1.00  0.00    -0.333 N 
ATOM     21  H3  UNL     1       7.870  21.750   8.027  1.00  0.00     0.164 HD
HETATM   22  C18 UNL     1       9.330  20.307   8.097  1.00  0.00     0.242 C 
HETATM   23  O4  UNL     1      10.207  20.872   8.850  1.00  0.00    -0.271 OA
HETATM   24  C19 UNL     1       9.431  18.835   8.057  1.00  0.00     0.178 C 
HETATM   25  N5  UNL     1       9.034  18.236   9.333  1.00  0.00    -0.341 N 
HETATM   26  C26 UNL     1       9.190  18.934  10.596  1.00  0.00     0.153 C 
HETATM   27  C27 UNL     1       8.476  16.933   9.331  1.00  0.00     0.251 C 
HETATM   28  O7  UNL     1       8.707  16.180  10.344  1.00  0.00    -0.270 OA
ENDROOT
BRANCH  24  29
HETATM   29  C20 UNL     1      10.742  18.268   7.668  1.00  0.00     0.035 C 
BRANCH  29  30
HETATM   30  C21 UNL     1      11.664  19.116   6.870  1.00  0.00     0.002 C 
BRANCH  30  31
HETATM   31  C22 UNL     1      13.048  19.034   7.557  1.00  0.00     0.001 C 
BRANCH  31  32
HETATM   32  C23 UNL     1      13.018  17.866   8.534  1.00  0.00     0.008 C 
BRANCH  32  33
HETATM   33  C24 UNL     1      14.220  16.993   8.239  1.00  0.00     0.086 C 
BRANCH  33  34
HETATM   34  C25 UNL     1      13.807  15.582   8.215  1.00  0.00     0.135 C 
HETATM   35  N4  UNL     1      12.666  15.230   7.794  1.00  0.00    -0.251 N 
ATOM     36  H4  UNL     1      12.053  15.978   7.473  1.00  0.00     0.196 HD
BRANCH  34  37
HETATM   37  O5  UNL     1      14.709  14.623   8.672  1.00  0.00    -0.348 OA
ATOM     38  H5  UNL     1      15.625  14.721   8.440  1.00  0.00     0.219 HD
ENDBRANCH  34  37
BRANCH  35  39
HETATM   39  O6  UNL     1      12.168  13.972   7.721  1.00  0.00    -0.288 OA
ATOM     40  H6  UNL     1      11.262  13.702   7.826  1.00  0.00     0.244 HD
ENDBRANCH  35  39
ENDBRANCH  33  34
ENDBRANCH  32  33
ENDBRANCH  31  32
ENDBRANCH  30  31
ENDBRANCH  29  30
ENDBRANCH  24  29
BRANCH   1  41
HETATM   41  C3  UNL     1       7.108  15.019   8.602  1.00  0.00     0.164 C 
BRANCH  41  42
HETATM   42  N1  UNL     1       6.186  15.154   9.690  1.00  0.00    -0.358 N 
HETATM   43  C2  UNL     1       5.077  14.292   9.883  1.00  0.00     0.213 C 
HETATM   44  C1  UNL     1       4.088  14.370  10.958  1.00  0.00     0.117 C 
HETATM   45  O1  UNL     1       4.940  13.353   9.013  1.00  0.00    -0.274 OA
ATOM     46  H1  UNL     1       6.334  15.909  10.360  1.00  0.00     0.162 HD
ENDBRANCH  41  42
ENDBRANCH   1  41
TORSDOF 10
ENDMDL
MODEL 4
REMARK VINA RESULT: -8.076236061      2.681      7.506
REMARK  10 active torsions:
REMARK  status: ('A' for Active; 'I' for Inactive)
REMARK       I    between atoms: C2_2  and  N1_4 
REMARK    1  A    between atoms: N1_4  and  C3_6 
REMARK    2  A    between atoms: C3_6  and  C4_7 
REMARK    3  A    between atoms: C19_30  and  C20_31 
REMARK    4  A    between atoms: C20_31  and  C21_32 
REMARK    5  A    between atoms: C21_32  and  C22_33 
REMARK    6  A    between atoms: C22_33  and  C23_34 
REMARK    7  A    between atoms: C23_34  and  C24_35 
REMARK    8  A    between atoms: C24_35  and  C25_36 
REMARK    9  A    between atoms: C25_36  and  O5_37 
REMARK   10  A    between atoms: N4_39  and  O6_41 
ROOT
HETATM    1  C4  UNL     1       7.456  17.426   8.574  1.00  0.00     0.231 C 
HETATM    2  O2  UNL     1       8.782  17.034   8.616  1.00  0.00    -0.375 OA
HETATM    3  C5  UNL     1       9.374  17.466   9.770  1.00  0.00     0.169 C 
HETATM    4  C6  UNL     1      10.689  16.727   9.912  1.00  0.00     0.028 C 
HETATM    5  C7  UNL     1      11.781  17.553   9.307  1.00  0.00     0.027 C 
HETATM    6  C8  UNL     1      11.802  17.416   7.831  1.00  0.00     0.087 C 
HETATM    7  C9  UNL     1      12.259  16.023   7.460  1.00  0.00     0.025 C 
HETATM    8  C10 UNL     1      13.615  15.705   8.059  1.00  0.00     0.004 C 
HETATM    9  C11 UNL     1      14.574  16.847   7.802  1.00  0.00     0.020 C 
HETATM   10  C12 UNL     1      13.974  17.720   6.723  1.00  0.00     0.126 C 
HETATM   11  N2  UNL     1      12.759  18.356   7.203  1.00  0.00    -0.345 N 
HETATM   12  C13 UNL     1      12.570  19.721   7.056  1.00  0.00     0.259 C 
HETATM   13  O3  UNL     1      13.551  20.474   7.391  1.00  0.00    -0.270 OA
HETATM   14  C14 UNL     1      11.380  20.453   6.558  1.00  0.00     0.165 C 
HETATM   15  C15 UNL     1      11.770  21.733   5.849  1.00  0.00     0.073 C 
HETATM   16  C16 UNL     1      12.045  22.804   6.814  1.00  0.00     0.095 C 
HETATM   17 CL1  UNL     1      11.865  24.365   5.919  1.00  0.00    -0.124 Cl
HETATM   18  C17 UNL     1      10.977  22.839   7.878  1.00  0.00     0.097 C 
HETATM   19  S1  UNL     1      10.496  21.092   7.974  1.00  0.00    -0.127 SA
HETATM   20  N3  UNL     1      10.614  19.683   5.627  1.00  0.00    -0.333 N 
ATOM     21  H3  UNL     1      11.158  19.055   5.037  1.00  0.00     0.164 HD
HETATM   22  C18 UNL     1       9.229  19.661   5.401  1.00  0.00     0.242 C 
HETATM   23  O4  UNL     1       8.809  19.896   4.207  1.00  0.00    -0.271 OA
HETATM   24  C19 UNL     1       8.153  19.394   6.374  1.00  0.00     0.178 C 
HETATM   25  N5  UNL     1       7.506  18.106   6.119  1.00  0.00    -0.341 N 
HETATM   26  C26 UNL     1       7.433  17.528   4.789  1.00  0.00     0.153 C 
HETATM   27  C27 UNL     1       6.937  17.399   7.208  1.00  0.00     0.251 C 
HETATM   28  O7  UNL     1       5.895  16.685   6.982  1.00  0.00    -0.270 OA
ENDROOT
BRANCH  24  29
HETATM   29  C20 UNL     1       7.097  20.425   6.499  1.00  0.00     0.035 C 
BRANCH  29  30
HETATM   30  C21 UNL     1       6.470  20.629   7.831  1.00  0.00     0.002 C 
BRANCH  30  31
HETATM   31  C22 UNL     1       5.000  21.033   7.570  1.00  0.00     0.001 C 
BRANCH  31  32
HETATM   32  C23 UNL     1       4.356  19.944   6.722  1.00  0.00     0.008 C 
BRANCH  32  33
HETATM   33  C24 UNL     1       3.186  19.387   7.506  1.00  0.00     0.086 C 
BRANCH  33  34
HETATM   34  C25 UNL     1       2.043  20.306   7.401  1.00  0.00     0.135 C 
HETATM   35  N4  UNL     1       1.269  20.518   8.380  1.00  0.00    -0.251 N 
ATOM     36  H4  UNL     1       1.483  20.017   9.242  1.00  0.00     0.196 HD
BRANCH  34  37
HETATM   37  O5  UNL     1       1.823  20.948   6.184  1.00  0.00    -0.348 OA
ATOM     38  H5  UNL     1       1.038  20.730   5.696  1.00  0.00     0.219 HD
ENDBRANCH  34  37
BRANCH  35  39
HETATM   39  O6  UNL     1       0.188  21.334   8.412  1.00  0.00    -0.288 OA
ATOM     40  H6  UNL     1      -0.630  21.191   8.875  1.00  0.00     0.244 HD
ENDBRANCH  35  39
ENDBRANCH  33  34
ENDBRANCH  32  33
ENDBRANCH  31  32
ENDBRANCH  30  31
ENDBRANCH  29  30
ENDBRANCH  24  29
BRANCH   1  41
HETATM   41  C3  UNL     1       6.705  16.475   9.479  1.00  0.00     0.164 C 
BRANCH  41  42
HETATM   42  N1  UNL     1       5.367  16.959   9.648  1.00  0.00    -0.358 N 
HETATM   43  C2  UNL     1       4.285  16.135  10.045  1.00  0.00     0.213 C 
HETATM   44  C1  UNL     1       2.893  16.550  10.228  1.00  0.00     0.117 C 
HETATM   45  O1  UNL     1       4.571  14.899  10.258  1.00  0.00    -0.274 OA
ATOM     46  H1  UNL     1       5.184  17.948   9.473  1.00  0.00     0.162 HD
ENDBRANCH  41  42
ENDBRANCH   1  41
TORSDOF 10
ENDMDL
MODEL 5
REMARK VINA RESULT: -7.926308572      2.626      7.172
REMARK  10 active torsions:
REMARK  status: ('A' for Active; 'I' for Inactive)
REMARK       I    between atoms: C2_2  and  N1_4 
REMARK    1  A    between atoms: N1_4  and  C3_6 
REMARK    2  A    between atoms: C3_6  and  C4_7 
REMARK    3  A    between atoms: C19_30  and  C20_31 
REMARK    4  A    between atoms: C20_31  and  C21_32 
REMARK    5  A    between atoms: C21_32  and  C22_33 
REMARK    6  A    between atoms: C22_33  and  C23_34 
REMARK    7  A    between atoms: C23_34  and  C24_35 
REMARK    8  A    between atoms: C24_35  and  C25_36 
REMARK    9  A    between atoms: C25_36  and  O5_37 
REMARK   10  A    between atoms: N4_39  and  O6_41 
ROOT
HETATM    1  C4  UNL     1       8.261  17.342   8.610  1.00  0.00     0.231 C 
HETATM    2  O2  UNL     1       9.616  17.110   8.458  1.00  0.00    -0.375 OA
HETATM    3  C5  UNL     1      10.310  17.591   9.532  1.00  0.00     0.169 C 
HETATM    4  C6  UNL     1      11.708  17.012   9.469  1.00  0.00     0.028 C 
HETATM    5  C7  UNL     1      12.602  17.971   8.747  1.00  0.00     0.027 C 
HETATM    6  C8  UNL     1      12.432  17.860   7.278  1.00  0.00     0.087 C 
HETATM    7  C9  UNL     1      12.991  16.537   6.804  1.00  0.00     0.025 C 
HETATM    8  C10 UNL     1      14.444  16.373   7.201  1.00  0.00     0.004 C 
HETATM    9  C11 UNL     1      15.219  17.626   6.851  1.00  0.00     0.020 C 
HETATM   10  C12 UNL     1      14.377  18.438   5.893  1.00  0.00     0.126 C 
HETATM   11  N2  UNL     1      13.176  18.916   6.555  1.00  0.00    -0.345 N 
HETATM   12  C13 UNL     1      12.812  20.252   6.478  1.00  0.00     0.259 C 
HETATM   13  O3  UNL     1      13.735  21.111   6.698  1.00  0.00    -0.270 OA
HETATM   14  C14 UNL     1      11.487  20.844   6.172  1.00  0.00     0.165 C 
HETATM   15  C15 UNL     1      11.623  22.172   5.457  1.00  0.00     0.073 C 
HETATM   16  C16 UNL     1      11.904  23.253   6.408  1.00  0.00     0.095 C 
HETATM   17 CL1  UNL     1      11.422  24.796   5.596  1.00  0.00    -0.124 Cl
HETATM   18  C17 UNL     1      10.999  23.145   7.609  1.00  0.00     0.097 C 
HETATM   19  S1  UNL     1      10.741  21.352   7.715  1.00  0.00    -0.127 SA
HETATM   20  N3  UNL     1      10.692  20.003   5.331  1.00  0.00    -0.333 N 
ATOM     21  H3  UNL     1      11.217  19.453   4.652  1.00  0.00     0.164 HD
HETATM   22  C18 UNL     1       9.302  19.819   5.296  1.00  0.00     0.242 C 
HETATM   23  O4  UNL     1       8.694  20.020   4.179  1.00  0.00    -0.271 OA
HETATM   24  C19 UNL     1       8.410  19.411   6.399  1.00  0.00     0.178 C 
HETATM   25  N5  UNL     1       7.887  18.059   6.194  1.00  0.00    -0.341 N 
HETATM   26  C26 UNL     1       7.696  17.497   4.869  1.00  0.00     0.153 C 
HETATM   27  C27 UNL     1       7.562  17.273   7.329  1.00  0.00     0.251 C 
HETATM   28  O7  UNL     1       6.589  16.444   7.225  1.00  0.00    -0.270 OA
ENDROOT
BRANCH  24  29
HETATM   29  C20 UNL     1       7.270  20.307   6.700  1.00  0.00     0.035 C 
BRANCH  29  30
HETATM   30  C21 UNL     1       6.794  20.388   8.105  1.00  0.00     0.002 C 
BRANCH  30  31
HETATM   31  C22 UNL     1       5.303  20.798   8.045  1.00  0.00     0.001 C 
BRANCH  31  32
HETATM   32  C23 UNL     1       4.698  20.185   6.789  1.00  0.00     0.008 C 
BRANCH  32  33
HETATM   33  C24 UNL     1       3.214  20.015   7.033  1.00  0.00     0.086 C 
BRANCH  33  34
HETATM   34  C25 UNL     1       2.995  18.920   7.989  1.00  0.00     0.135 C 
HETATM   35  N4  UNL     1       2.027  18.933   8.805  1.00  0.00    -0.251 N 
ATOM     36  H4  UNL     1       1.409  19.743   8.760  1.00  0.00     0.196 HD
BRANCH  34  37
HETATM   37  O5  UNL     1       3.888  17.851   7.982  1.00  0.00    -0.348 OA
ATOM     38  H5  UNL     1       3.581  17.007   8.290  1.00  0.00     0.219 HD
ENDBRANCH  34  37
BRANCH  35  39
HETATM   39  O6  UNL     1       1.718  17.993   9.731  1.00  0.00    -0.288 OA
ATOM     40  H6  UNL     1       0.943  17.442   9.758  1.00  0.00     0.244 HD
ENDBRANCH  35  39
ENDBRANCH  33  34
ENDBRANCH  32  33
ENDBRANCH  31  32
ENDBRANCH  30  31
ENDBRANCH  29  30
ENDBRANCH  24  29
BRANCH   1  41
HETATM   41  C3  UNL     1       7.759  16.295   9.580  1.00  0.00     0.164 C 
BRANCH  41  42
HETATM   42  N1  UNL     1       6.359  16.504   9.801  1.00  0.00    -0.358 N 
HETATM   43  C2  UNL     1       5.491  15.501  10.299  1.00  0.00     0.213 C 
HETATM   44  C1  UNL     1       4.053  15.633  10.540  1.00  0.00     0.117 C 
HETATM   45  O1  UNL     1       6.037  14.365  10.556  1.00  0.00    -0.274 OA
ATOM     46  H1  UNL     1       5.968  17.422   9.588  1.00  0.00     0.162 HD
ENDBRANCH  41  42
ENDBRANCH   1  41
TORSDOF 10
ENDMDL
