MODEL 1
REMARK VINA RESULT: -7.052054292      0.000      0.000
REMARK  13 active torsions:
REMARK  status: ('A' for Active; 'I' for Inactive)
REMARK    1  A    between atoms: O1_2  and  C2_3 
REMARK    2  A    between atoms: C2_3  and  C3_5 
REMARK    3  A    between atoms: C3_5  and  C4_6 
REMARK    4  A    between atoms: C3_5  and  N1_11 
REMARK    5  A    between atoms: C4_6  and  C5_7 
REMARK    6  A    between atoms: C5_7  and  C6_8 
REMARK       I    between atoms: N1_11  and  C7_13 
REMARK    7  A    between atoms: C7_13  and  C8_15 
REMARK    8  A    between atoms: N3_23  and  C13_24 
REMARK    9  A    between atoms: C13_24  and  O7_25 
REMARK   10  A    between atoms: C14_27  and  N4_28 
REMARK   11  A    between atoms: C14_27  and  C24_42 
REMARK       I    between atoms: N4_28  and  C15_30 
REMARK   12  A    between atoms: C15_30  and  C16_32 
REMARK   13  A    between atoms: C18_34  and  C19_35 
ROOT
HETATM    1  C8  UNL     1       9.587  21.292   4.193  1.00  0.00     0.173 C 
HETATM    2  C9  UNL     1       9.539  21.403   2.667  1.00  0.00     0.274 C 
HETATM    3  O6  UNL     1      10.223  20.641   1.921  1.00  0.00    -0.266 OA
HETATM    4  N2  UNL     1       8.703  22.400   2.143  1.00  0.00    -0.354 N 
ATOM      5  H2  UNL     1       8.695  22.611   1.145  1.00  0.00     0.162 HD
HETATM    6  C10 UNL     1       7.858  23.114   3.061  1.00  0.00     0.148 C 
HETATM    7  C11 UNL     1       7.318  22.296   4.160  1.00  0.00     0.106 C 
HETATM    8  C12 UNL     1       6.750  23.215   5.211  1.00  0.00     0.034 C 
HETATM    9  N3  UNL     1       8.323  21.376   4.778  1.00  0.00    -0.311 N 
ENDROOT
BRANCH   9  10
HETATM   10  C13 UNL     1       7.847  20.745   5.927  1.00  0.00     0.167 C 
HETATM   11  C14 UNL     1       6.813  19.820   6.277  1.00  0.00     0.071 C 
BRANCH  10  12
HETATM   12  O7  UNL     1       8.590  21.137   6.975  1.00  0.00    -0.344 OA
ATOM     13  H7  UNL     1       8.623  20.430   7.609  1.00  0.00     0.219 HD
ENDBRANCH  10  12
BRANCH  11  14
HETATM   14  N4  UNL     1       5.432  20.132   6.146  1.00  0.00    -0.322 N 
HETATM   15  C15 UNL     1       4.563  20.760   7.054  1.00  0.00     0.258 C 
HETATM   16  O8  UNL     1       5.005  21.162   8.153  1.00  0.00    -0.267 OA
ATOM     17  H4  UNL     1       5.008  19.857   5.260  1.00  0.00     0.169 HD
BRANCH  15  18
HETATM   18  C16 UNL     1       3.105  20.943   6.716  1.00  0.00     0.062 A 
HETATM   19  C17 UNL     1       2.682  21.740   5.691  1.00  0.00     0.034 A 
HETATM   20  C18 UNL     1       1.343  21.838   5.494  1.00  0.00    -0.007 A 
HETATM   21  S1  UNL     1       0.682  20.844   6.705  1.00  0.00    -0.081 SA
HETATM   22  C23 UNL     1       2.131  20.322   7.444  1.00  0.00     0.090 A 
HETATM   23 CL1  UNL     1       2.331  19.220   8.826  1.00  0.00    -0.075 Cl
BRANCH  20  24
HETATM   24  C19 UNL     1       0.696  22.673   4.407  1.00  0.00    -0.018 C 
HETATM   25  C20 UNL     1       0.998  24.122   4.808  1.00  0.00     0.020 C 
HETATM   26  C21 UNL     1       1.362  22.429   3.084  1.00  0.00     0.020 C 
HETATM   27  C22 UNL     1      -0.762  22.453   4.417  1.00  0.00     0.020 C 
ENDBRANCH  20  24
ENDBRANCH  15  18
ENDBRANCH  11  14
BRANCH  11  28
HETATM   28  C24 UNL     1       7.090  18.380   6.515  1.00  0.00    -0.004 C 
HETATM   29  C25 UNL     1       7.124  18.037   8.036  1.00  0.00     0.021 C 
HETATM   30  C26 UNL     1       5.821  17.633   6.040  1.00  0.00     0.021 C 
HETATM   31  C27 UNL     1       8.208  17.703   5.835  1.00  0.00     0.021 C 
ENDBRANCH  11  28
ENDBRANCH   9  10
BRANCH   1  32
HETATM   32  C7  UNL     1      10.778  22.000   4.579  1.00  0.00     0.274 C 
HETATM   33  N1  UNL     1      11.395  21.898   5.884  1.00  0.00    -0.342 N 
ATOM     34  H1  UNL     1      10.977  21.262   6.563  1.00  0.00     0.163 HD
HETATM   35  O5  UNL     1      11.422  22.789   3.831  1.00  0.00    -0.266 OA
BRANCH  33  36
HETATM   36  C3  UNL     1      12.560  22.637   6.286  1.00  0.00     0.185 C 
BRANCH  36  37
HETATM   37  C2  UNL     1      13.682  21.716   6.583  1.00  0.00     0.281 C 
HETATM   38  O2  UNL     1      14.860  22.088   6.764  1.00  0.00    -0.263 OA
BRANCH  37  39
HETATM   39  O1  UNL     1      13.424  20.345   6.668  1.00  0.00    -0.325 OA
HETATM   40  C1  UNL     1      13.319  19.607   7.838  1.00  0.00     0.213 C 
ENDBRANCH  37  39
ENDBRANCH  36  37
BRANCH  36  41
HETATM   41  C4  UNL     1      12.277  23.514   7.491  1.00  0.00     0.046 C 
BRANCH  41  42
HETATM   42  C5  UNL     1      12.135  24.975   7.065  1.00  0.00     0.116 C 
BRANCH  42  43
HETATM   43  C6  UNL     1      10.736  25.422   7.014  1.00  0.00     0.172 C 
HETATM   44  O3  UNL     1       9.858  24.791   6.403  1.00  0.00    -0.648 OA
HETATM   45  O4  UNL     1      10.411  26.597   7.683  1.00  0.00    -0.648 OA
ENDBRANCH  42  43
ENDBRANCH  41  42
ENDBRANCH  36  41
ENDBRANCH  33  36
ENDBRANCH   1  32
TORSDOF 13
ENDMDL
MODEL 2
REMARK VINA RESULT: -6.754290296      3.374      5.779
REMARK  13 active torsions:
REMARK  status: ('A' for Active; 'I' for Inactive)
REMARK    1  A    between atoms: O1_2  and  C2_3 
REMARK    2  A    between atoms: C2_3  and  C3_5 
REMARK    3  A    between atoms: C3_5  and  C4_6 
REMARK    4  A    between atoms: C3_5  and  N1_11 
REMARK    5  A    between atoms: C4_6  and  C5_7 
REMARK    6  A    between atoms: C5_7  and  C6_8 
REMARK       I    between atoms: N1_11  and  C7_13 
REMARK    7  A    between atoms: C7_13  and  C8_15 
REMARK    8  A    between atoms: N3_23  and  C13_24 
REMARK    9  A    between atoms: C13_24  and  O7_25 
REMARK   10  A    between atoms: C14_27  and  N4_28 
REMARK   11  A    between atoms: C14_27  and  C24_42 
REMARK       I    between atoms: N4_28  and  C15_30 
REMARK   12  A    between atoms: C15_30  and  C16_32 
REMARK   13  A    between atoms: C18_34  and  C19_35 
ROOT
HETATM    1  C8  UNL     1      10.042  17.187   8.531  1.00  0.00     0.173 C 
HETATM    2  C9  UNL     1       9.961  17.039  10.052  1.00  0.00     0.274 C 
HETATM    3  O6  UNL     1      10.753  17.657  10.825  1.00  0.00    -0.266 OA
HETATM    4  N2  UNL     1       8.968  16.178  10.541  1.00  0.00    -0.354 N 
ATOM      5  H2  UNL     1       8.916  15.941  11.531  1.00  0.00     0.162 HD
HETATM    6  C10 UNL     1       8.027  15.640   9.597  1.00  0.00     0.148 C 
HETATM    7  C11 UNL     1       7.638  16.567   8.521  1.00  0.00     0.106 C 
HETATM    8  C12 UNL     1       6.939  15.785   7.440  1.00  0.00     0.034 C 
HETATM    9  N3  UNL     1       8.787  17.329   7.937  1.00  0.00    -0.311 N 
ENDROOT
BRANCH   9  10
HETATM   10  C13 UNL     1       8.432  18.063   6.806  1.00  0.00     0.167 C 
HETATM   11  C14 UNL     1       7.809  19.317   6.509  1.00  0.00     0.071 C 
BRANCH  10  12
HETATM   12  O7  UNL     1       8.791  17.372   5.712  1.00  0.00    -0.344 OA
ATOM     13  H7  UNL     1       8.047  17.323   5.122  1.00  0.00     0.219 HD
ENDBRANCH  10  12
BRANCH  11  14
HETATM   14  N4  UNL     1       6.455  19.595   6.840  1.00  0.00    -0.322 N 
HETATM   15  C15 UNL     1       5.274  18.993   6.374  1.00  0.00     0.258 C 
HETATM   16  O8  UNL     1       5.345  18.040   5.566  1.00  0.00    -0.267 OA
ATOM     17  H4  UNL     1       6.320  20.346   7.518  1.00  0.00     0.169 HD
BRANCH  15  18
HETATM   18  C16 UNL     1       3.928  19.493   6.833  1.00  0.00     0.062 A 
HETATM   19  C17 UNL     1       3.281  20.530   6.225  1.00  0.00     0.034 A 
HETATM   20  C18 UNL     1       2.081  20.901   6.740  1.00  0.00    -0.007 A 
HETATM   21  S1  UNL     1       1.852  19.831   8.042  1.00  0.00    -0.081 SA
HETATM   22  C23 UNL     1       3.297  18.930   7.907  1.00  0.00     0.090 A 
HETATM   23 CL1  UNL     1       3.850  17.572   8.912  1.00  0.00    -0.075 Cl
BRANCH  20  24
HETATM   24  C19 UNL     1       1.226  22.027   6.193  1.00  0.00    -0.018 C 
HETATM   25  C20 UNL     1       1.659  22.159   4.728  1.00  0.00     0.020 C 
HETATM   26  C21 UNL     1      -0.225  21.640   6.196  1.00  0.00     0.020 C 
HETATM   27  C22 UNL     1       1.536  23.276   6.913  1.00  0.00     0.020 C 
ENDBRANCH  20  24
ENDBRANCH  15  18
ENDBRANCH  11  14
BRANCH  11  28
HETATM   28  C24 UNL     1       8.595  20.513   6.111  1.00  0.00    -0.004 C 
HETATM   29  C25 UNL     1       9.177  20.375   4.671  1.00  0.00     0.021 C 
HETATM   30  C26 UNL     1       7.558  21.647   5.937  1.00  0.00     0.021 C 
HETATM   31  C27 UNL     1       9.625  21.072   7.004  1.00  0.00     0.021 C 
ENDBRANCH  11  28
ENDBRANCH   9  10
BRANCH   1  32
HETATM   32  C7  UNL     1      11.105  16.305   8.129  1.00  0.00     0.274 C 
HETATM   33  N1  UNL     1      12.444  16.746   7.800  1.00  0.00    -0.342 N 
ATOM     34  H1  UNL     1      12.655  17.740   7.889  1.00  0.00     0.163 HD
HETATM   35  O5  UNL     1      10.997  15.051   8.014  1.00  0.00    -0.266 OA
BRANCH  33  36
HETATM   36  C3  UNL     1      13.495  15.872   7.357  1.00  0.00     0.185 C 
BRANCH  36  37
HETATM   37  C2  UNL     1      14.454  15.616   8.456  1.00  0.00     0.281 C 
HETATM   38  O2  UNL     1      14.798  16.475   9.296  1.00  0.00    -0.263 OA
BRANCH  37  39
HETATM   39  O1  UNL     1      15.020  14.344   8.575  1.00  0.00    -0.325 OA
HETATM   40  C1  UNL     1      16.327  14.065   8.949  1.00  0.00     0.213 C 
ENDBRANCH  37  39
ENDBRANCH  36  37
BRANCH  36  41
HETATM   41  C4  UNL     1      14.225  16.442   6.155  1.00  0.00     0.046 C 
BRANCH  41  42
HETATM   42  C5  UNL     1      13.728  17.856   5.853  1.00  0.00     0.116 C 
BRANCH  42  43
HETATM   43  C6  UNL     1      14.563  18.898   6.467  1.00  0.00     0.172 C 
HETATM   44  O3  UNL     1      15.591  19.334   5.922  1.00  0.00    -0.648 OA
HETATM   45  O4  UNL     1      14.165  19.399   7.703  1.00  0.00    -0.648 OA
ENDBRANCH  42  43
ENDBRANCH  41  42
ENDBRANCH  36  41
ENDBRANCH  33  36
ENDBRANCH   1  32
TORSDOF 13
ENDMDL
MODEL 3
REMARK VINA RESULT: -6.751275506      2.426      4.582
REMARK  13 active torsions:
REMARK  status: ('A' for Active; 'I' for Inactive)
REMARK    1  A    between atoms: O1_2  and  C2_3 
REMARK    2  A    between atoms: C2_3  and  C3_5 
REMARK    3  A    between atoms: C3_5  and  C4_6 
REMARK    4  A    between atoms: C3_5  and  N1_11 
REMARK    5  A    between atoms: C4_6  and  C5_7 
REMARK    6  A    between atoms: C5_7  and  C6_8 
REMARK       I    between atoms: N1_11  and  C7_13 
REMARK    7  A    between atoms: C7_13  and  C8_15 
REMARK    8  A    between atoms: N3_23  and  C13_24 
REMARK    9  A    between atoms: C13_24  and  O7_25 
REMARK   10  A    between atoms: C14_27  and  N4_28 
REMARK   11  A    between atoms: C14_27  and  C24_42 
REMARK       I    between atoms: N4_28  and  C15_30 
REMARK   12  A    between atoms: C15_30  and  C16_32 
REMARK   13  A    between atoms: C18_34  and  C19_35 
ROOT
HETATM    1  C8  UNL     1       9.404  19.609   7.853  1.00  0.00     0.173 C 
HETATM    2  C9  UNL     1      10.597  20.552   8.024  1.00  0.00     0.274 C 
HETATM    3  O6  UNL     1      10.452  21.811   8.065  1.00  0.00    -0.266 OA
HETATM    4  N2  UNL     1      11.858  19.947   8.125  1.00  0.00    -0.354 N 
ATOM      5  H2  UNL     1      12.712  20.504   8.133  1.00  0.00     0.162 HD
HETATM    6  C10 UNL     1      11.905  18.513   8.216  1.00  0.00     0.148 C 
HETATM    7  C11 UNL     1      10.810  17.911   8.994  1.00  0.00     0.106 C 
HETATM    8  C12 UNL     1      10.785  16.428   8.725  1.00  0.00     0.034 C 
HETATM    9  N3  UNL     1       9.467  18.504   8.702  1.00  0.00    -0.311 N 
ENDROOT
BRANCH   9  10
HETATM   10  C13 UNL     1       8.422  17.805   9.308  1.00  0.00     0.167 C 
HETATM   11  C14 UNL     1       7.118  17.334   8.954  1.00  0.00     0.071 C 
BRANCH  10  12
HETATM   12  O7  UNL     1       8.773  17.509  10.570  1.00  0.00    -0.344 OA
ATOM     13  H7  UNL     1       8.163  16.867  10.915  1.00  0.00     0.219 HD
ENDBRANCH  10  12
BRANCH  11  14
HETATM   14  N4  UNL     1       6.047  18.213   8.633  1.00  0.00    -0.322 N 
HETATM   15  C15 UNL     1       5.579  18.637   7.378  1.00  0.00     0.258 C 
HETATM   16  O8  UNL     1       6.114  18.194   6.338  1.00  0.00    -0.267 OA
ATOM     17  H4  UNL     1       5.544  18.593   9.435  1.00  0.00     0.169 HD
BRANCH  15  18
HETATM   18  C16 UNL     1       4.445  19.626   7.280  1.00  0.00     0.062 A 
HETATM   19  C17 UNL     1       4.600  20.873   6.746  1.00  0.00     0.034 A 
HETATM   20  C18 UNL     1       3.509  21.680   6.728  1.00  0.00    -0.007 A 
HETATM   21  S1  UNL     1       2.290  20.729   7.435  1.00  0.00    -0.081 SA
HETATM   22  C23 UNL     1       3.198  19.315   7.745  1.00  0.00     0.090 A 
HETATM   23 CL1  UNL     1       2.654  17.792   8.483  1.00  0.00    -0.075 Cl
BRANCH  20  24
HETATM   24  C19 UNL     1       3.497  23.092   6.175  1.00  0.00    -0.018 C 
HETATM   25  C20 UNL     1       2.076  23.598   6.452  1.00  0.00     0.020 C 
HETATM   26  C21 UNL     1       4.441  23.971   6.943  1.00  0.00     0.020 C 
HETATM   27  C22 UNL     1       3.731  23.053   4.719  1.00  0.00     0.020 C 
ENDBRANCH  20  24
ENDBRANCH  15  18
ENDBRANCH  11  14
BRANCH  11  28
HETATM   28  C24 UNL     1       6.861  15.913   8.605  1.00  0.00    -0.004 C 
HETATM   29  C25 UNL     1       7.736  15.440   7.404  1.00  0.00     0.021 C 
HETATM   30  C26 UNL     1       7.443  15.090   9.778  1.00  0.00     0.021 C 
HETATM   31  C27 UNL     1       5.485  15.414   8.434  1.00  0.00     0.021 C 
ENDBRANCH  11  28
ENDBRANCH   9  10
BRANCH   1  32
HETATM   32  C7  UNL     1       9.128  19.613   6.441  1.00  0.00     0.274 C 
HETATM   33  N1  UNL     1       8.956  20.814   5.651  1.00  0.00    -0.342 N 
ATOM     34  H1  UNL     1       9.067  21.713   6.119  1.00  0.00     0.163 HD
HETATM   35  O5  UNL     1       9.003  18.577   5.728  1.00  0.00    -0.266 OA
BRANCH  33  36
HETATM   36  C3  UNL     1       8.638  20.819   4.251  1.00  0.00     0.185 C 
BRANCH  36  37
HETATM   37  C2  UNL     1       9.871  20.938   3.439  1.00  0.00     0.281 C 
HETATM   38  O2  UNL     1       9.951  20.607   2.237  1.00  0.00    -0.263 OA
BRANCH  37  39
HETATM   39  O1  UNL     1      11.026  21.449   4.038  1.00  0.00    -0.325 OA
HETATM   40  C1  UNL     1      12.179  20.733   4.327  1.00  0.00     0.213 C 
ENDBRANCH  37  39
ENDBRANCH  36  37
BRANCH  36  41
HETATM   41  C4  UNL     1       7.677  21.941   3.901  1.00  0.00     0.046 C 
BRANCH  41  42
HETATM   42  C5  UNL     1       7.398  22.804   5.130  1.00  0.00     0.116 C 
BRANCH  42  43
HETATM   43  C6  UNL     1       8.162  24.060   5.131  1.00  0.00     0.172 C 
HETATM   44  O3  UNL     1       7.660  25.144   4.792  1.00  0.00    -0.648 OA
HETATM   45  O4  UNL     1       9.493  24.005   5.532  1.00  0.00    -0.648 OA
ENDBRANCH  42  43
ENDBRANCH  41  42
ENDBRANCH  36  41
ENDBRANCH  33  36
ENDBRANCH   1  32
TORSDOF 13
ENDMDL
MODEL 4
REMARK VINA RESULT: -6.741552480      1.538      1.939
REMARK  13 active torsions:
REMARK  status: ('A' for Active; 'I' for Inactive)
REMARK    1  A    between atoms: O1_2  and  C2_3 
REMARK    2  A    between atoms: C2_3  and  C3_5 
REMARK    3  A    between atoms: C3_5  and  C4_6 
REMARK    4  A    between atoms: C3_5  and  N1_11 
REMARK    5  A    between atoms: C4_6  and  C5_7 
REMARK    6  A    between atoms: C5_7  and  C6_8 
REMARK       I    between atoms: N1_11  and  C7_13 
REMARK    7  A    between atoms: C7_13  and  C8_15 
REMARK    8  A    between atoms: N3_23  and  C13_24 
REMARK    9  A    between atoms: C13_24  and  O7_25 
REMARK   10  A    between atoms: C14_27  and  N4_28 
REMARK   11  A    between atoms: C14_27  and  C24_42 
REMARK       I    between atoms: N4_28  and  C15_30 
REMARK   12  A    between atoms: C15_30  and  C16_32 
REMARK   13  A    between atoms: C18_34  and  C19_35 
ROOT
HETATM    1  C8  UNL     1       9.297  21.295   4.298  1.00  0.00     0.173 C 
HETATM    2  C9  UNL     1       9.356  21.448   2.777  1.00  0.00     0.274 C 
HETATM    3  O6  UNL     1       9.982  20.623   2.046  1.00  0.00    -0.266 OA
HETATM    4  N2  UNL     1       8.685  22.555   2.237  1.00  0.00    -0.354 N 
ATOM      5  H2  UNL     1       8.764  22.790   1.248  1.00  0.00     0.162 HD
HETATM    6  C10 UNL     1       7.883  23.349   3.128  1.00  0.00     0.148 C 
HETATM    7  C11 UNL     1       7.178  22.582   4.168  1.00  0.00     0.106 C 
HETATM    8  C12 UNL     1       6.669  23.540   5.213  1.00  0.00     0.034 C 
HETATM    9  N3  UNL     1       8.021  21.526   4.813  1.00  0.00    -0.311 N 
ENDROOT
BRANCH   9  10
HETATM   10  C13 UNL     1       7.401  20.934   5.913  1.00  0.00     0.167 C 
HETATM   11  C14 UNL     1       6.280  20.080   6.165  1.00  0.00     0.071 C 
BRANCH  10  12
HETATM   12  O7  UNL     1       8.068  21.282   7.025  1.00  0.00    -0.344 OA
ATOM     13  H7  UNL     1       7.779  22.145   7.299  1.00  0.00     0.219 HD
ENDBRANCH  10  12
BRANCH  11  14
HETATM   14  N4  UNL     1       4.940  20.481   5.908  1.00  0.00    -0.322 N 
HETATM   15  C15 UNL     1       4.119  21.375   6.616  1.00  0.00     0.258 C 
HETATM   16  O8  UNL     1       4.574  21.971   7.617  1.00  0.00    -0.267 OA
ATOM     17  H4  UNL     1       4.511  20.055   5.087  1.00  0.00     0.169 HD
BRANCH  15  18
HETATM   18  C16 UNL     1       2.695  21.611   6.181  1.00  0.00     0.062 A 
HETATM   19  C17 UNL     1       1.628  21.028   6.803  1.00  0.00     0.034 A 
HETATM   20  C18 UNL     1       0.395  21.305   6.309  1.00  0.00    -0.007 A 
HETATM   21  S1  UNL     1       0.705  22.356   5.009  1.00  0.00    -0.081 SA
HETATM   22  C23 UNL     1       2.409  22.420   5.117  1.00  0.00     0.090 A 
HETATM   23 CL1  UNL     1       3.546  23.333   4.100  1.00  0.00    -0.075 Cl
BRANCH  20  24
HETATM   24  C19 UNL     1      -0.898  20.748   6.873  1.00  0.00    -0.018 C 
HETATM   25  C20 UNL     1      -0.466  19.974   8.125  1.00  0.00     0.020 C 
HETATM   26  C21 UNL     1      -1.802  21.858   7.324  1.00  0.00     0.020 C 
HETATM   27  C22 UNL     1      -1.498  19.815   5.901  1.00  0.00     0.020 C 
ENDBRANCH  20  24
ENDBRANCH  15  18
ENDBRANCH  11  14
BRANCH  11  28
HETATM   28  C24 UNL     1       6.439  18.626   6.427  1.00  0.00    -0.004 C 
HETATM   29  C25 UNL     1       6.549  18.318   7.952  1.00  0.00     0.021 C 
HETATM   30  C26 UNL     1       5.076  17.992   6.063  1.00  0.00     0.021 C 
HETATM   31  C27 UNL     1       7.439  17.831   5.693  1.00  0.00     0.021 C 
ENDBRANCH  11  28
ENDBRANCH   9  10
BRANCH   1  32
HETATM   32  C7  UNL     1      10.542  21.836   4.773  1.00  0.00     0.274 C 
HETATM   33  N1  UNL     1      11.014  21.712   6.136  1.00  0.00    -0.342 N 
ATOM     34  H1  UNL     1      10.441  21.182   6.793  1.00  0.00     0.163 HD
HETATM   35  O5  UNL     1      11.366  22.479   4.063  1.00  0.00    -0.266 OA
BRANCH  33  36
HETATM   36  C3  UNL     1      12.237  22.288   6.622  1.00  0.00     0.185 C 
BRANCH  36  37
HETATM   37  C2  UNL     1      13.143  21.230   7.128  1.00  0.00     0.281 C 
HETATM   38  O2  UNL     1      14.362  21.171   6.863  1.00  0.00    -0.263 OA
BRANCH  37  39
HETATM   39  O1  UNL     1      12.619  20.230   7.950  1.00  0.00    -0.325 OA
HETATM   40  C1  UNL     1      13.271  19.066   8.334  1.00  0.00     0.213 C 
ENDBRANCH  37  39
ENDBRANCH  36  37
BRANCH  36  41
HETATM   41  C4  UNL     1      11.977  23.311   7.712  1.00  0.00     0.046 C 
BRANCH  41  42
HETATM   42  C5  UNL     1      12.016  24.725   7.134  1.00  0.00     0.116 C 
BRANCH  42  43
HETATM   43  C6  UNL     1      10.680  25.323   6.997  1.00  0.00     0.172 C 
HETATM   44  O3  UNL     1       9.791  24.811   6.297  1.00  0.00    -0.648 OA
HETATM   45  O4  UNL     1      10.429  26.504   7.687  1.00  0.00    -0.648 OA
ENDBRANCH  42  43
ENDBRANCH  41  42
ENDBRANCH  36  41
ENDBRANCH  33  36
ENDBRANCH   1  32
TORSDOF 13
ENDMDL
MODEL 5
REMARK VINA RESULT: -6.732099817      2.188      4.084
REMARK  13 active torsions:
REMARK  status: ('A' for Active; 'I' for Inactive)
REMARK    1  A    between atoms: O1_2  and  C2_3 
REMARK    2  A    between atoms: C2_3  and  C3_5 
REMARK    3  A    between atoms: C3_5  and  C4_6 
REMARK    4  A    between atoms: C3_5  and  N1_11 
REMARK    5  A    between atoms: C4_6  and  C5_7 
REMARK    6  A    between atoms: C5_7  and  C6_8 
REMARK       I    between atoms: N1_11  and  C7_13 
REMARK    7  A    between atoms: C7_13  and  C8_15 
REMARK    8  A    between atoms: N3_23  and  C13_24 
REMARK    9  A    between atoms: C13_24  and  O7_25 
REMARK   10  A    between atoms: C14_27  and  N4_28 
REMARK   11  A    between atoms: C14_27  and  C24_42 
REMARK       I    between atoms: N4_28  and  C15_30 
REMARK   12  A    between atoms: C15_30  and  C16_32 
REMARK   13  A    between atoms: C18_34  and  C19_35 
ROOT
HETATM    1  C8  UNL     1       8.877  20.322   7.089  1.00  0.00     0.173 C 
HETATM    2  C9  UNL     1      10.225  21.046   7.059  1.00  0.00     0.274 C 
HETATM    3  O6  UNL     1      10.309  22.305   7.183  1.00  0.00    -0.266 OA
HETATM    4  N2  UNL     1      11.359  20.241   6.879  1.00  0.00    -0.354 N 
ATOM      5  H2  UNL     1      12.282  20.652   6.741  1.00  0.00     0.162 HD
HETATM    6  C10 UNL     1      11.175  18.815   6.896  1.00  0.00     0.148 C 
HETATM    7  C11 UNL     1      10.161  18.338   7.850  1.00  0.00     0.106 C 
HETATM    8  C12 UNL     1       9.831  16.904   7.527  1.00  0.00     0.034 C 
HETATM    9  N3  UNL     1       8.909  19.159   7.860  1.00  0.00    -0.311 N 
ENDROOT
BRANCH   9  10
HETATM   10  C13 UNL     1       7.894  18.592   8.630  1.00  0.00     0.167 C 
HETATM   11  C14 UNL     1       6.631  17.954   8.415  1.00  0.00     0.071 C 
BRANCH  10  12
HETATM   12  O7  UNL     1       8.229  18.690   9.927  1.00  0.00    -0.344 OA
ATOM     13  H7  UNL     1       7.485  19.027  10.412  1.00  0.00     0.219 HD
ENDBRANCH  10  12
BRANCH  11  14
HETATM   14  N4  UNL     1       5.517  18.633   7.850  1.00  0.00    -0.322 N 
HETATM   15  C15 UNL     1       5.139  19.982   7.958  1.00  0.00     0.258 C 
HETATM   16  O8  UNL     1       5.856  20.774   8.608  1.00  0.00    -0.267 OA
ATOM     17  H4  UNL     1       4.900  18.054   7.281  1.00  0.00     0.169 HD
BRANCH  15  18
HETATM   18  C16 UNL     1       3.873  20.475   7.304  1.00  0.00     0.062 A 
HETATM   19  C17 UNL     1       3.868  21.452   6.350  1.00  0.00     0.034 A 
HETATM   20  C18 UNL     1       2.663  21.823   5.848  1.00  0.00    -0.007 A 
HETATM   21  S1  UNL     1       1.556  20.835   6.679  1.00  0.00    -0.081 SA
HETATM   22  C23 UNL     1       2.655  19.967   7.658  1.00  0.00     0.090 A 
HETATM   23 CL1  UNL     1       2.304  18.692   8.847  1.00  0.00    -0.075 Cl
BRANCH  20  24
HETATM   24  C19 UNL     1       2.469  22.887   4.786  1.00  0.00    -0.018 C 
HETATM   25  C20 UNL     1       1.571  23.935   5.454  1.00  0.00     0.020 C 
HETATM   26  C21 UNL     1       3.773  23.558   4.463  1.00  0.00     0.020 C 
HETATM   27  C22 UNL     1       1.768  22.305   3.626  1.00  0.00     0.020 C 
ENDBRANCH  20  24
ENDBRANCH  15  18
ENDBRANCH  11  14
BRANCH  11  28
HETATM   28  C24 UNL     1       6.471  16.478   8.482  1.00  0.00    -0.004 C 
HETATM   29  C25 UNL     1       6.674  15.936   9.931  1.00  0.00     0.021 C 
HETATM   30  C26 UNL     1       4.966  16.216   8.243  1.00  0.00     0.021 C 
HETATM   31  C27 UNL     1       7.169  15.599   7.528  1.00  0.00     0.021 C 
ENDBRANCH  11  28
ENDBRANCH   9  10
BRANCH   1  32
HETATM   32  C7  UNL     1       8.343  20.478   5.763  1.00  0.00     0.274 C 
HETATM   33  N1  UNL     1       8.764  21.506   4.834  1.00  0.00    -0.342 N 
ATOM     34  H1  UNL     1       9.507  22.141   5.129  1.00  0.00     0.163 HD
HETATM   35  O5  UNL     1       7.450  19.743   5.254  1.00  0.00    -0.266 OA
BRANCH  33  36
HETATM   36  C3  UNL     1       8.202  21.691   3.526  1.00  0.00     0.185 C 
BRANCH  36  37
HETATM   37  C2  UNL     1       9.272  21.727   2.502  1.00  0.00     0.281 C 
HETATM   38  O2  UNL     1       9.502  22.711   1.767  1.00  0.00    -0.263 OA
BRANCH  37  39
HETATM   39  O1  UNL     1      10.082  20.601   2.333  1.00  0.00    -0.325 OA
HETATM   40  C1  UNL     1      11.334  20.580   1.734  1.00  0.00     0.213 C 
ENDBRANCH  37  39
ENDBRANCH  36  37
BRANCH  36  41
HETATM   41  C4  UNL     1       7.369  22.957   3.449  1.00  0.00     0.046 C 
BRANCH  41  42
HETATM   42  C5  UNL     1       7.460  23.733   4.763  1.00  0.00     0.116 C 
BRANCH  42  43
HETATM   43  C6  UNL     1       8.405  24.856   4.699  1.00  0.00     0.172 C 
HETATM   44  O3  UNL     1       8.031  26.041   4.701  1.00  0.00    -0.648 OA
HETATM   45  O4  UNL     1       9.762  24.555   4.637  1.00  0.00    -0.648 OA
ENDBRANCH  42  43
ENDBRANCH  41  42
ENDBRANCH  36  41
ENDBRANCH  33  36
ENDBRANCH   1  32
TORSDOF 13
ENDMDL
