MODEL 1
REMARK VINA RESULT: -8.479747723      0.000      0.000
REMARK  6 active torsions:
REMARK  status: ('A' for Active; 'I' for Inactive)
REMARK    1  A    between atoms: N1_4  and  C4_5 
REMARK    2  A    between atoms: C5_8  and  N3_9 
REMARK    3  A    between atoms: N5_16  and  C8_17 
REMARK    4  A    between atoms: C8_17  and  C9_18 
REMARK    5  A    between atoms: C9_18  and  C10_19 
REMARK    6  A    between atoms: C10_19  and  N6_20 
ROOT
HETATM    1  C4  UNL     1      15.688   2.786  38.172  1.00  0.00     0.683 A 
HETATM    2  N2  UNL     1      16.073   2.973  36.906  1.00  0.00    -0.176 N 
ATOM      3  H2  UNL     1      15.365   3.232  36.218  1.00  0.00     0.186 HD
HETATM    4  C5  UNL     1      17.347   2.837  36.492  1.00  0.00     0.124 A 
HETATM    5  C6  UNL     1      18.320   2.484  37.422  1.00  0.00     0.030 A 
HETATM    6  C7  UNL     1      17.902   2.296  38.720  1.00  0.00     0.129 A 
HETATM    7  N4  UNL     1      16.599   2.448  39.086  1.00  0.00    -0.176 N 
ATOM      8  H4  UNL     1      16.320   2.302  40.057  1.00  0.00     0.186 HD
HETATM    9  N5  UNL     1      18.902   1.924  39.694  1.00  0.00    -0.366 N 
HETATM   10  C11 UNL     1      20.210   2.518  39.506  1.00  0.00     0.124 C 
HETATM   11  C12 UNL     1      20.720   2.371  38.120  1.00  0.00     0.025 C 
HETATM   12  C13 UNL     1      19.721   2.328  37.029  1.00  0.00     0.048 C 
ENDROOT
BRANCH   1  13
HETATM   13  N1  UNL     1      14.343   2.945  38.538  1.00  0.00    -0.214 N 
HETATM   14  C3  UNL     1      13.725   2.405  39.735  1.00  0.00     0.173 C 
HETATM   15  C2  UNL     1      12.656   3.415  40.133  1.00  0.00     0.200 C 
HETATM   16  C1  UNL     1      12.276   3.331  41.571  1.00  0.00     0.041 C 
HETATM   17  N7  UNL     1      11.544   3.273  39.238  1.00  0.00    -0.068 N 
HETATM   18  C15 UNL     1      12.009   3.151  37.872  1.00  0.00     0.253 C 
ATOM     19  H72 UNL     1      10.939   2.496  39.504  1.00  0.00     0.277 HD
ATOM     20  H71 UNL     1      10.871   4.031  39.344  1.00  0.00     0.277 HD
HETATM   21  C14 UNL     1      13.400   3.708  37.691  1.00  0.00     0.168 C 
ENDBRANCH   1  13
BRANCH   4  22
HETATM   22  N3  UNL     1      17.683   3.017  35.269  1.00  0.00    -0.385 N 
ATOM     23  H32 UNL     1      16.973   2.949  34.540  1.00  0.00     0.157 HD
ATOM     24  H31 UNL     1      18.644   3.233  35.002  1.00  0.00     0.157 HD
ENDBRANCH   4  22
BRANCH   9  25
HETATM   25  C8  UNL     1      18.527   1.047  40.746  1.00  0.00     0.126 C 
BRANCH  25  26
HETATM   26  C9  UNL     1      19.180  -0.296  40.821  1.00  0.00     0.047 C 
BRANCH  26  27
HETATM   27  C10 UNL     1      18.673  -1.250  41.832  1.00  0.00     0.231 C 
BRANCH  27  28
HETATM   28  N6  UNL     1      17.854  -0.588  42.850  1.00  0.00    -0.079 N 
ATOM     29  H63 UNL     1      18.224  -0.752  43.787  1.00  0.00     0.274 HD
ATOM     30  H62 UNL     1      17.963   0.425  42.810  1.00  0.00     0.274 HD
ATOM     31  H61 UNL     1      16.873  -0.858  42.787  1.00  0.00     0.274 HD
ENDBRANCH  27  28
ENDBRANCH  26  27
ENDBRANCH  25  26
ENDBRANCH   9  25
TORSDOF 6
ENDMDL
MODEL 2
REMARK VINA RESULT: -8.178068405      0.957      1.097
REMARK  6 active torsions:
REMARK  status: ('A' for Active; 'I' for Inactive)
REMARK    1  A    between atoms: N1_4  and  C4_5 
REMARK    2  A    between atoms: C5_8  and  N3_9 
REMARK    3  A    between atoms: N5_16  and  C8_17 
REMARK    4  A    between atoms: C8_17  and  C9_18 
REMARK    5  A    between atoms: C9_18  and  C10_19 
REMARK    6  A    between atoms: C10_19  and  N6_20 
ROOT
HETATM    1  C4  UNL     1      15.750   2.793  38.242  1.00  0.00     0.683 A 
HETATM    2  N2  UNL     1      16.113   3.026  36.978  1.00  0.00    -0.176 N 
ATOM      3  H2  UNL     1      15.398   3.331  36.316  1.00  0.00     0.186 HD
HETATM    4  C5  UNL     1      17.376   2.879  36.531  1.00  0.00     0.124 A 
HETATM    5  C6  UNL     1      18.358   2.465  37.424  1.00  0.00     0.030 A 
HETATM    6  C7  UNL     1      17.962   2.230  38.722  1.00  0.00     0.129 A 
HETATM    7  N4  UNL     1      16.670   2.395  39.121  1.00  0.00    -0.176 N 
ATOM      8  H4  UNL     1      16.408   2.214  40.091  1.00  0.00     0.186 HD
HETATM    9  N5  UNL     1      18.973   1.793  39.658  1.00  0.00    -0.366 N 
HETATM   10  C11 UNL     1      20.290   2.364  39.468  1.00  0.00     0.124 C 
HETATM   11  C12 UNL     1      20.769   2.266  38.065  1.00  0.00     0.025 C 
HETATM   12  C13 UNL     1      19.747   2.293  36.995  1.00  0.00     0.048 C 
ENDROOT
BRANCH   1  13
HETATM   13  N1  UNL     1      14.416   2.967  38.643  1.00  0.00    -0.214 N 
HETATM   14  C3  UNL     1      13.825   2.436  39.857  1.00  0.00     0.173 C 
HETATM   15  C2  UNL     1      12.777   3.457  40.281  1.00  0.00     0.200 C 
HETATM   16  C1  UNL     1      12.435   3.380  41.729  1.00  0.00     0.041 C 
HETATM   17  N7  UNL     1      11.640   3.324  39.416  1.00  0.00    -0.068 N 
HETATM   18  C15 UNL     1      12.068   3.195  38.039  1.00  0.00     0.253 C 
ATOM     19  H72 UNL     1      11.035   2.554  39.700  1.00  0.00     0.277 HD
ATOM     20  H71 UNL     1      10.978   4.090  39.538  1.00  0.00     0.277 HD
HETATM   21  C14 UNL     1      13.459   3.737  37.820  1.00  0.00     0.168 C 
ENDBRANCH   1  13
BRANCH   4  22
HETATM   22  N3  UNL     1      17.691   3.105  35.310  1.00  0.00    -0.385 N 
ATOM     23  H32 UNL     1      17.224   2.582  34.568  1.00  0.00     0.157 HD
ATOM     24  H31 UNL     1      18.395   3.798  35.056  1.00  0.00     0.157 HD
ENDBRANCH   4  22
BRANCH   9  25
HETATM   25  C8  UNL     1      18.599   0.880  40.678  1.00  0.00     0.126 C 
BRANCH  25  26
HETATM   26  C9  UNL     1      19.544  -0.223  41.029  1.00  0.00     0.047 C 
BRANCH  26  27
HETATM   27  C10 UNL     1      19.589  -1.400  40.132  1.00  0.00     0.231 C 
BRANCH  27  28
HETATM   28  N6  UNL     1      20.625  -1.269  39.105  1.00  0.00    -0.079 N 
ATOM     29  H63 UNL     1      21.243  -0.481  39.301  1.00  0.00     0.274 HD
ATOM     30  H62 UNL     1      21.305  -2.026  39.168  1.00  0.00     0.274 HD
ATOM     31  H61 UNL     1      20.229  -1.204  38.168  1.00  0.00     0.274 HD
ENDBRANCH  27  28
ENDBRANCH  26  27
ENDBRANCH  25  26
ENDBRANCH   9  25
TORSDOF 6
ENDMDL
MODEL 3
REMARK VINA RESULT: -8.087222702      0.838      1.468
REMARK  6 active torsions:
REMARK  status: ('A' for Active; 'I' for Inactive)
REMARK    1  A    between atoms: N1_4  and  C4_5 
REMARK    2  A    between atoms: C5_8  and  N3_9 
REMARK    3  A    between atoms: N5_16  and  C8_17 
REMARK    4  A    between atoms: C8_17  and  C9_18 
REMARK    5  A    between atoms: C9_18  and  C10_19 
REMARK    6  A    between atoms: C10_19  and  N6_20 
ROOT
HETATM    1  C4  UNL     1      15.807   2.678  38.602  1.00  0.00     0.683 A 
HETATM    2  N2  UNL     1      16.046   2.991  37.325  1.00  0.00    -0.176 N 
ATOM      3  H2  UNL     1      15.263   3.293  36.746  1.00  0.00     0.186 HD
HETATM    4  C5  UNL     1      17.269   2.927  36.764  1.00  0.00     0.124 A 
HETATM    5  C6  UNL     1      18.344   2.517  37.546  1.00  0.00     0.030 A 
HETATM    6  C7  UNL     1      18.076   2.200  38.858  1.00  0.00     0.129 A 
HETATM    7  N4  UNL     1      16.819   2.282  39.376  1.00  0.00    -0.176 N 
ATOM      8  H4  UNL     1      16.652   2.040  40.353  1.00  0.00     0.186 HD
HETATM    9  N5  UNL     1      19.184   1.766  39.678  1.00  0.00    -0.366 N 
HETATM   10  C11 UNL     1      20.453   2.410  39.406  1.00  0.00     0.124 C 
HETATM   11  C12 UNL     1      20.809   2.405  37.964  1.00  0.00     0.025 C 
HETATM   12  C13 UNL     1      19.696   2.435  36.989  1.00  0.00     0.048 C 
ENDROOT
BRANCH   1  13
HETATM   13  N1  UNL     1      14.508   2.766  39.126  1.00  0.00    -0.214 N 
HETATM   14  C3  UNL     1      13.294   2.924  38.347  1.00  0.00     0.173 C 
HETATM   15  C2  UNL     1      12.213   2.181  39.122  1.00  0.00     0.200 C 
HETATM   16  C1  UNL     1      11.056   1.777  38.274  1.00  0.00     0.041 C 
HETATM   17  N7  UNL     1      11.842   2.977  40.256  1.00  0.00    -0.068 N 
HETATM   18  C15 UNL     1      13.022   3.507  40.907  1.00  0.00     0.253 C 
ATOM     19  H72 UNL     1      11.184   3.714  40.003  1.00  0.00     0.277 HD
ATOM     20  H71 UNL     1      11.249   2.461  40.905  1.00  0.00     0.277 HD
HETATM   21  C14 UNL     1      14.260   2.707  40.582  1.00  0.00     0.168 C 
ENDBRANCH   1  13
BRANCH   4  22
HETATM   22  N3  UNL     1      17.464   3.229  35.535  1.00  0.00    -0.385 N 
ATOM     23  H32 UNL     1      16.751   2.998  34.843  1.00  0.00     0.157 HD
ATOM     24  H31 UNL     1      18.315   3.699  35.225  1.00  0.00     0.157 HD
ENDBRANCH   4  22
BRANCH   9  25
HETATM   25  C8  UNL     1      18.942   0.786  40.676  1.00  0.00     0.126 C 
BRANCH  25  26
HETATM   26  C9  UNL     1      19.808  -0.432  40.703  1.00  0.00     0.047 C 
BRANCH  26  27
HETATM   27  C10 UNL     1      19.190  -1.704  41.139  1.00  0.00     0.231 C 
BRANCH  27  28
HETATM   28  N6  UNL     1      17.783  -1.532  41.510  1.00  0.00    -0.079 N 
ATOM     29  H63 UNL     1      17.500  -2.215  42.213  1.00  0.00     0.274 HD
ATOM     30  H62 UNL     1      17.645  -0.678  42.050  1.00  0.00     0.274 HD
ATOM     31  H61 UNL     1      17.168  -1.560  40.698  1.00  0.00     0.274 HD
ENDBRANCH  27  28
ENDBRANCH  26  27
ENDBRANCH  25  26
ENDBRANCH   9  25
TORSDOF 6
ENDMDL
MODEL 4
REMARK VINA RESULT: -6.828380151      3.908      8.328
REMARK  6 active torsions:
REMARK  status: ('A' for Active; 'I' for Inactive)
REMARK    1  A    between atoms: N1_4  and  C4_5 
REMARK    2  A    between atoms: C5_8  and  N3_9 
REMARK    3  A    between atoms: N5_16  and  C8_17 
REMARK    4  A    between atoms: C8_17  and  C9_18 
REMARK    5  A    between atoms: C9_18  and  C10_19 
REMARK    6  A    between atoms: C10_19  and  N6_20 
ROOT
HETATM    1  C4  UNL     1      20.365  -1.921  40.979  1.00  0.00     0.683 A 
HETATM    2  N2  UNL     1      19.293  -1.582  41.702  1.00  0.00    -0.176 N 
ATOM      3  H2  UNL     1      18.997  -2.209  42.451  1.00  0.00     0.186 HD
HETATM    4  C5  UNL     1      18.585  -0.456  41.492  1.00  0.00     0.124 A 
HETATM    5  C6  UNL     1      18.981   0.405  40.474  1.00  0.00     0.030 A 
HETATM    6  C7  UNL     1      20.087   0.036  39.741  1.00  0.00     0.129 A 
HETATM    7  N4  UNL     1      20.768  -1.116  39.996  1.00  0.00    -0.176 N 
ATOM      8  H4  UNL     1      21.585  -1.361  39.436  1.00  0.00     0.186 HD
HETATM    9  N5  UNL     1      20.505   0.919  38.677  1.00  0.00    -0.366 N 
HETATM   10  C11 UNL     1      20.330   2.334  38.933  1.00  0.00     0.124 C 
HETATM   11  C12 UNL     1      18.968   2.673  39.417  1.00  0.00     0.025 C 
HETATM   12  C13 UNL     1      18.252   1.645  40.205  1.00  0.00     0.048 C 
ENDROOT
BRANCH   1  13
HETATM   13  N1  UNL     1      21.059  -3.110  41.250  1.00  0.00    -0.214 N 
HETATM   14  C3  UNL     1      22.016  -3.749  40.365  1.00  0.00     0.173 C 
HETATM   15  C2  UNL     1      23.040  -4.409  41.279  1.00  0.00     0.200 C 
HETATM   16  C1  UNL     1      24.348  -4.658  40.611  1.00  0.00     0.041 C 
HETATM   17  N7  UNL     1      22.450  -5.590  41.840  1.00  0.00    -0.068 N 
HETATM   18  C15 UNL     1      21.097  -5.317  42.279  1.00  0.00     0.253 C 
ATOM     19  H72 UNL     1      22.487  -6.377  41.194  1.00  0.00     0.277 HD
ATOM     20  H71 UNL     1      23.021  -5.981  42.589  1.00  0.00     0.277 HD
HETATM   21  C14 UNL     1      20.861  -3.846  42.518  1.00  0.00     0.168 C 
ENDBRANCH   1  13
BRANCH   4  22
HETATM   22  N3  UNL     1      17.559  -0.162  42.200  1.00  0.00    -0.385 N 
ATOM     23  H32 UNL     1      17.169  -0.862  42.832  1.00  0.00     0.157 HD
ATOM     24  H31 UNL     1      17.118   0.757  42.153  1.00  0.00     0.157 HD
ENDBRANCH   4  22
BRANCH   9  25
HETATM   25  C8  UNL     1      21.061   0.346  37.503  1.00  0.00     0.126 C 
BRANCH  25  26
HETATM   26  C9  UNL     1      21.000   1.128  36.231  1.00  0.00     0.047 C 
BRANCH  26  27
HETATM   27  C10 UNL     1      19.716   1.137  35.493  1.00  0.00     0.231 C 
BRANCH  27  28
HETATM   28  N6  UNL     1      19.060   2.445  35.549  1.00  0.00    -0.079 N 
ATOM     29  H63 UNL     1      18.525   2.554  36.411  1.00  0.00     0.274 HD
ATOM     30  H62 UNL     1      19.739   3.194  35.686  1.00  0.00     0.274 HD
ATOM     31  H61 UNL     1      18.479   2.617  34.729  1.00  0.00     0.274 HD
ENDBRANCH  27  28
ENDBRANCH  26  27
ENDBRANCH  25  26
ENDBRANCH   9  25
TORSDOF 6
ENDMDL
MODEL 5
REMARK VINA RESULT: -6.564633520      1.968      4.598
REMARK  6 active torsions:
REMARK  status: ('A' for Active; 'I' for Inactive)
REMARK    1  A    between atoms: N1_4  and  C4_5 
REMARK    2  A    between atoms: C5_8  and  N3_9 
REMARK    3  A    between atoms: N5_16  and  C8_17 
REMARK    4  A    between atoms: C8_17  and  C9_18 
REMARK    5  A    between atoms: C9_18  and  C10_19 
REMARK    6  A    between atoms: C10_19  and  N6_20 
ROOT
HETATM    1  C4  UNL     1      17.646   1.795  39.519  1.00  0.00     0.683 A 
HETATM    2  N2  UNL     1      17.596   1.273  40.749  1.00  0.00    -0.176 N 
ATOM      3  H2  UNL     1      16.819   1.537  41.355  1.00  0.00     0.186 HD
HETATM    4  C5  UNL     1      18.519   0.418  41.228  1.00  0.00     0.124 A 
HETATM    5  C6  UNL     1      19.582   0.051  40.408  1.00  0.00     0.030 A 
HETATM    6  C7  UNL     1      19.614   0.600  39.146  1.00  0.00     0.129 A 
HETATM    7  N4  UNL     1      18.653   1.462  38.711  1.00  0.00    -0.176 N 
ATOM      8  H4  UNL     1      18.704   1.851  37.769  1.00  0.00     0.186 HD
HETATM    9  N5  UNL     1      20.717   0.232  38.287  1.00  0.00    -0.366 N 
HETATM   10  C11 UNL     1      21.184  -1.133  38.421  1.00  0.00     0.124 C 
HETATM   11  C12 UNL     1      21.438  -1.524  39.831  1.00  0.00     0.025 C 
HETATM   12  C13 UNL     1      20.611  -0.880  40.874  1.00  0.00     0.048 C 
ENDROOT
BRANCH   1  13
HETATM   13  N1  UNL     1      16.650   2.682  39.081  1.00  0.00    -0.214 N 
HETATM   14  C3  UNL     1      16.109   2.745  37.736  1.00  0.00     0.173 C 
HETATM   15  C2  UNL     1      14.652   3.157  37.901  1.00  0.00     0.200 C 
HETATM   16  C1  UNL     1      13.801   2.781  36.738  1.00  0.00     0.041 C 
HETATM   17  N7  UNL     1      14.611   4.557  38.212  1.00  0.00    -0.068 N 
HETATM   18  C15 UNL     1      15.615   4.882  39.204  1.00  0.00     0.253 C 
ATOM     19  H72 UNL     1      14.702   5.134  37.376  1.00  0.00     0.277 HD
ATOM     20  H71 UNL     1      13.680   4.855  38.501  1.00  0.00     0.277 HD
HETATM   21  C14 UNL     1      16.046   3.673  39.997  1.00  0.00     0.168 C 
ENDBRANCH   1  13
BRANCH   4  22
HETATM   22  N3  UNL     1      18.446  -0.060  42.413  1.00  0.00    -0.385 N 
ATOM     23  H32 UNL     1      17.531  -0.205  42.840  1.00  0.00     0.157 HD
ATOM     24  H31 UNL     1      19.281  -0.306  42.947  1.00  0.00     0.157 HD
ENDBRANCH   4  22
BRANCH   9  25
HETATM   25  C8  UNL     1      21.226   1.204  37.387  1.00  0.00     0.126 C 
BRANCH  25  26
HETATM   26  C9  UNL     1      20.945   1.040  35.928  1.00  0.00     0.047 C 
BRANCH  26  27
HETATM   27  C10 UNL     1      19.539   1.158  35.483  1.00  0.00     0.231 C 
BRANCH  27  28
HETATM   28  N6  UNL     1      19.063   2.543  35.526  1.00  0.00    -0.079 N 
ATOM     29  H63 UNL     1      18.350   2.667  36.246  1.00  0.00     0.274 HD
ATOM     30  H62 UNL     1      19.778   3.168  35.899  1.00  0.00     0.274 HD
ATOM     31  H61 UNL     1      18.730   2.861  34.617  1.00  0.00     0.274 HD
ENDBRANCH  27  28
ENDBRANCH  26  27
ENDBRANCH  25  26
ENDBRANCH   9  25
TORSDOF 6
ENDMDL
