MODEL 1
REMARK VINA RESULT: -5.517262805      0.000      0.000
REMARK  5 active torsions:
REMARK  status: ('A' for Active; 'I' for Inactive)
REMARK    1  A    between atoms: S1_2  and  C2_3 
REMARK    2  A    between atoms: C2_3  and  C3_4 
REMARK    3  A    between atoms: N3_17  and  C10_18 
REMARK    4  A    between atoms: C10_18  and  C11_19 
REMARK    5  A    between atoms: C11_19  and  N4_20 
ROOT
HETATM    1  C3  UNL     1      15.660   3.168  39.052  1.00  0.00     0.046 C 
HETATM    2  C4  UNL     1      15.713   3.918  37.724  1.00  0.00     0.239 C 
HETATM    3  N1  UNL     1      15.833   3.012  36.599  1.00  0.00    -0.075 N 
ATOM      4  H11 UNL     1      15.088   3.171  35.921  1.00  0.00     0.277 HD
ATOM      5  H12 UNL     1      15.606   2.056  36.874  1.00  0.00     0.277 HD
HETATM    6  C5  UNL     1      17.134   3.073  35.963  1.00  0.00     0.233 C 
HETATM    7  C6  UNL     1      17.438   1.658  35.477  1.00  0.00     0.055 C 
HETATM    8  C7  UNL     1      18.870   1.504  35.031  1.00  0.00     0.234 C 
HETATM    9  N2  UNL     1      19.739   2.119  36.006  1.00  0.00    -0.074 N 
ATOM     10  H21 UNL     1      19.211   2.513  36.784  1.00  0.00     0.277 HD
ATOM     11  H22 UNL     1      20.154   2.980  35.648  1.00  0.00     0.277 HD
HETATM   12  C8  UNL     1      20.764   1.178  36.470  1.00  0.00     0.252 C 
HETATM   13  C9  UNL     1      21.155   1.526  37.882  1.00  0.00     0.149 C 
HETATM   14  N3  UNL     1      20.264   0.983  38.846  1.00  0.00    -0.389 N 
HETATM   15  C12 UNL     1      19.886   1.847  39.897  1.00  0.00     0.149 C 
HETATM   16  C13 UNL     1      18.577   1.495  40.563  1.00  0.00     0.252 C 
HETATM   17  N5  UNL     1      17.449   1.591  39.631  1.00  0.00    -0.073 N 
ATOM     18  H51 UNL     1      16.680   0.959  39.859  1.00  0.00     0.277 HD
ATOM     19  H52 UNL     1      17.654   1.211  38.706  1.00  0.00     0.277 HD
HETATM   20  C14 UNL     1      17.058   2.990  39.607  1.00  0.00     0.239 C 
ENDROOT
BRANCH  14  21
HETATM   21  C10 UNL     1      20.325  -0.395  39.097  1.00  0.00     0.085 C 
BRANCH  21  22
HETATM   22  C11 UNL     1      21.066  -0.832  40.328  1.00  0.00     0.274 C 
BRANCH  22  23
HETATM   23  N4  UNL     1      21.559  -2.174  40.289  1.00  0.00    -0.075 N 
ATOM     24  H43 UNL     1      21.049  -2.718  39.594  1.00  0.00     0.274 HD
ATOM     25  H42 UNL     1      22.493  -2.194  39.878  1.00  0.00     0.274 HD
ATOM     26  H41 UNL     1      21.558  -2.658  41.187  1.00  0.00     0.274 HD
ENDBRANCH  22  23
ENDBRANCH  21  22
ENDBRANCH  14  21
BRANCH   1  27
HETATM   27  C2  UNL     1      14.857   3.929  40.062  1.00  0.00     0.081 C 
BRANCH  27  28
HETATM   28  S1  UNL     1      13.461   3.016  40.710  1.00  0.00    -0.173 SA
HETATM   29  C1  UNL     1      12.040   3.295  39.613  1.00  0.00     0.089 C 
ENDBRANCH  27  28
ENDBRANCH   1  27
TORSDOF 5
ENDMDL
MODEL 2
REMARK VINA RESULT: -4.723259573      5.000      8.311
REMARK  5 active torsions:
REMARK  status: ('A' for Active; 'I' for Inactive)
REMARK    1  A    between atoms: S1_2  and  C2_3 
REMARK    2  A    between atoms: C2_3  and  C3_4 
REMARK    3  A    between atoms: N3_17  and  C10_18 
REMARK    4  A    between atoms: C10_18  and  C11_19 
REMARK    5  A    between atoms: C11_19  and  N4_20 
ROOT
HETATM    1  C3  UNL     1      20.209  -1.424  40.805  1.00  0.00     0.046 C 
HETATM    2  C4  UNL     1      18.853  -0.767  41.041  1.00  0.00     0.239 C 
HETATM    3  N1  UNL     1      18.702  -0.321  42.412  1.00  0.00    -0.075 N 
ATOM      4  H11 UNL     1      18.466   0.671  42.450  1.00  0.00     0.277 HD
ATOM      5  H12 UNL     1      19.604  -0.295  42.889  1.00  0.00     0.277 HD
HETATM    6  C5  UNL     1      17.743  -1.109  43.159  1.00  0.00     0.233 C 
HETATM    7  C6  UNL     1      18.262  -1.164  44.594  1.00  0.00     0.055 C 
HETATM    8  C7  UNL     1      17.514  -2.169  45.433  1.00  0.00     0.234 C 
HETATM    9  N2  UNL     1      17.368  -3.396  44.686  1.00  0.00    -0.074 N 
ATOM     10  H21 UNL     1      17.805  -3.329  43.767  1.00  0.00     0.277 HD
ATOM     11  H22 UNL     1      16.403  -3.543  44.389  1.00  0.00     0.277 HD
HETATM   12  C8  UNL     1      17.880  -4.542  45.446  1.00  0.00     0.252 C 
HETATM   13  C9  UNL     1      18.380  -5.590  44.487  1.00  0.00     0.149 C 
HETATM   14  N3  UNL     1      19.704  -5.335  44.038  1.00  0.00    -0.389 N 
HETATM   15  C12 UNL     1      19.938  -5.524  42.659  1.00  0.00     0.149 C 
HETATM   16  C13 UNL     1      21.113  -4.752  42.108  1.00  0.00     0.252 C 
HETATM   17  N5  UNL     1      20.913  -3.304  42.218  1.00  0.00    -0.073 N 
ATOM     18  H51 UNL     1      21.784  -2.780  42.306  1.00  0.00     0.277 HD
ATOM     19  H52 UNL     1      20.504  -3.017  43.107  1.00  0.00     0.277 HD
HETATM   20  C14 UNL     1      20.120  -2.914  41.064  1.00  0.00     0.239 C 
ENDROOT
BRANCH  14  21
HETATM   21  C10 UNL     1      20.757  -5.558  44.936  1.00  0.00     0.085 C 
BRANCH  21  22
HETATM   22  C11 UNL     1      21.209  -4.389  45.762  1.00  0.00     0.274 C 
BRANCH  22  23
HETATM   23  N4  UNL     1      22.627  -4.252  45.888  1.00  0.00    -0.075 N 
ATOM     24  H43 UNL     1      23.050  -5.152  46.113  1.00  0.00     0.274 HD
ATOM     25  H42 UNL     1      23.047  -4.082  44.975  1.00  0.00     0.274 HD
ATOM     26  H41 UNL     1      22.932  -3.543  46.555  1.00  0.00     0.274 HD
ENDBRANCH  22  23
ENDBRANCH  21  22
ENDBRANCH  14  21
BRANCH   1  27
HETATM   27  C2  UNL     1      20.656  -1.230  39.388  1.00  0.00     0.081 C 
BRANCH  27  28
HETATM   28  S1  UNL     1      20.364   0.421  38.760  1.00  0.00    -0.173 SA
HETATM   29  C1  UNL     1      21.093   0.534  37.099  1.00  0.00     0.089 C 
ENDBRANCH  27  28
ENDBRANCH   1  27
TORSDOF 5
ENDMDL
MODEL 3
REMARK VINA RESULT: -4.436092761      3.952      6.853
REMARK  5 active torsions:
REMARK  status: ('A' for Active; 'I' for Inactive)
REMARK    1  A    between atoms: S1_2  and  C2_3 
REMARK    2  A    between atoms: C2_3  and  C3_4 
REMARK    3  A    between atoms: N3_17  and  C10_18 
REMARK    4  A    between atoms: C10_18  and  C11_19 
REMARK    5  A    between atoms: C11_19  and  N4_20 
ROOT
HETATM    1  C3  UNL     1      20.163   0.630  39.964  1.00  0.00     0.046 C 
HETATM    2  C4  UNL     1      18.681   0.843  40.257  1.00  0.00     0.239 C 
HETATM    3  N1  UNL     1      18.399   0.793  41.678  1.00  0.00    -0.075 N 
ATOM      4  H11 UNL     1      17.920   1.639  41.985  1.00  0.00     0.277 HD
ATOM      5  H12 UNL     1      19.257   0.881  42.223  1.00  0.00     0.277 HD
HETATM    6  C5  UNL     1      17.658  -0.391  42.064  1.00  0.00     0.233 C 
HETATM    7  C6  UNL     1      18.150  -0.764  43.461  1.00  0.00     0.055 C 
HETATM    8  C7  UNL     1      17.667  -2.126  43.890  1.00  0.00     0.234 C 
HETATM    9  N2  UNL     1      17.849  -3.059  42.803  1.00  0.00    -0.074 N 
ATOM     10  H21 UNL     1      18.270  -2.610  41.990  1.00  0.00     0.277 HD
ATOM     11  H22 UNL     1      16.957  -3.329  42.387  1.00  0.00     0.277 HD
HETATM   12  C8  UNL     1      18.621  -4.230  43.233  1.00  0.00     0.252 C 
HETATM   13  C9  UNL     1      19.385  -4.780  42.059  1.00  0.00     0.149 C 
HETATM   14  N3  UNL     1      20.609  -4.095  41.832  1.00  0.00    -0.389 N 
HETATM   15  C12 UNL     1      20.906  -3.785  40.487  1.00  0.00     0.149 C 
HETATM   16  C13 UNL     1      21.857  -2.627  40.302  1.00  0.00     0.252 C 
HETATM   17  N5  UNL     1      21.296  -1.374  40.816  1.00  0.00    -0.073 N 
ATOM     18  H51 UNL     1      22.005  -0.714  41.137  1.00  0.00     0.277 HD
ATOM     19  H52 UNL     1      20.813  -1.482  41.708  1.00  0.00     0.277 HD
HETATM   20  C14 UNL     1      20.449  -0.844  39.761  1.00  0.00     0.239 C 
ENDROOT
BRANCH  14  21
HETATM   21  C10 UNL     1      21.670  -4.331  42.718  1.00  0.00     0.085 C 
BRANCH  21  22
HETATM   22  C11 UNL     1      22.462  -5.590  42.515  1.00  0.00     0.274 C 
BRANCH  22  23
HETATM   23  N4  UNL     1      23.741  -5.405  41.904  1.00  0.00    -0.075 N 
ATOM     24  H43 UNL     1      23.697  -5.643  40.913  1.00  0.00     0.274 HD
ATOM     25  H42 UNL     1      23.959  -4.411  41.836  1.00  0.00     0.274 HD
ATOM     26  H41 UNL     1      24.508  -5.904  42.353  1.00  0.00     0.274 HD
ENDBRANCH  22  23
ENDBRANCH  21  22
ENDBRANCH  14  21
BRANCH   1  27
HETATM   27  C2  UNL     1      20.570   1.353  38.717  1.00  0.00     0.081 C 
BRANCH  27  28
HETATM   28  S1  UNL     1      20.741   0.288  37.289  1.00  0.00    -0.173 SA
HETATM   29  C1  UNL     1      20.033   1.146  35.852  1.00  0.00     0.089 C 
ENDBRANCH  27  28
ENDBRANCH   1  27
TORSDOF 5
ENDMDL
MODEL 4
REMARK VINA RESULT: -4.323927417      4.938      8.328
REMARK  5 active torsions:
REMARK  status: ('A' for Active; 'I' for Inactive)
REMARK    1  A    between atoms: S1_2  and  C2_3 
REMARK    2  A    between atoms: C2_3  and  C3_4 
REMARK    3  A    between atoms: N3_17  and  C10_18 
REMARK    4  A    between atoms: C10_18  and  C11_19 
REMARK    5  A    between atoms: C11_19  and  N4_20 
ROOT
HETATM    1  C3  UNL     1      20.114  -1.749  40.330  1.00  0.00     0.046 C 
HETATM    2  C4  UNL     1      21.445  -2.440  40.608  1.00  0.00     0.239 C 
HETATM    3  N1  UNL     1      21.271  -3.851  40.892  1.00  0.00    -0.075 N 
ATOM      4  H11 UNL     1      21.841  -4.422  40.267  1.00  0.00     0.277 HD
ATOM      5  H12 UNL     1      20.344  -4.169  40.607  1.00  0.00     0.277 HD
HETATM    6  C5  UNL     1      21.530  -4.184  42.278  1.00  0.00     0.233 C 
HETATM    7  C6  UNL     1      20.568  -5.315  42.632  1.00  0.00     0.055 C 
HETATM    8  C7  UNL     1      20.531  -5.590  44.113  1.00  0.00     0.234 C 
HETATM    9  N2  UNL     1      20.443  -4.337  44.826  1.00  0.00    -0.074 N 
ATOM     10  H21 UNL     1      20.413  -3.543  44.187  1.00  0.00     0.277 HD
ATOM     11  H22 UNL     1      21.315  -4.117  45.308  1.00  0.00     0.277 HD
HETATM   12  C8  UNL     1      19.301  -4.332  45.748  1.00  0.00     0.252 C 
HETATM   13  C9  UNL     1      18.802  -2.921  45.913  1.00  0.00     0.149 C 
HETATM   14  N3  UNL     1      17.923  -2.525  44.870  1.00  0.00    -0.389 N 
HETATM   15  C12 UNL     1      18.128  -1.232  44.344  1.00  0.00     0.149 C 
HETATM   16  C13 UNL     1      17.610  -1.033  42.939  1.00  0.00     0.252 C 
HETATM   17  N5  UNL     1      18.300  -1.897  41.977  1.00  0.00    -0.073 N 
ATOM     18  H51 UNL     1      17.725  -2.146  41.171  1.00  0.00     0.277 HD
ATOM     19  H52 UNL     1      18.452  -2.846  42.320  1.00  0.00     0.277 HD
HETATM   20  C14 UNL     1      19.528  -1.209  41.618  1.00  0.00     0.239 C 
ENDROOT
BRANCH  14  21
HETATM   21  C10 UNL     1      16.625  -3.055  44.867  1.00  0.00     0.085 C 
BRANCH  21  22
HETATM   22  C11 UNL     1      16.443  -4.412  44.251  1.00  0.00     0.274 C 
BRANCH  22  23
HETATM   23  N4  UNL     1      15.405  -5.204  44.835  1.00  0.00    -0.075 N 
ATOM     24  H43 UNL     1      15.601  -5.371  45.822  1.00  0.00     0.274 HD
ATOM     25  H42 UNL     1      14.547  -4.657  44.916  1.00  0.00     0.274 HD
ATOM     26  H41 UNL     1      15.218  -6.086  44.358  1.00  0.00     0.274 HD
ENDBRANCH  22  23
ENDBRANCH  21  22
ENDBRANCH  14  21
BRANCH   1  27
HETATM   27  C2  UNL     1      20.297  -0.598  39.390  1.00  0.00     0.081 C 
BRANCH  27  28
HETATM   28  S1  UNL     1      19.479   0.904  39.920  1.00  0.00    -0.173 SA
HETATM   29  C1  UNL     1      20.363   2.317  39.197  1.00  0.00     0.089 C 
ENDBRANCH  27  28
ENDBRANCH   1  27
TORSDOF 5
ENDMDL
MODEL 5
REMARK VINA RESULT: -4.318509960      4.388      7.074
REMARK  5 active torsions:
REMARK  status: ('A' for Active; 'I' for Inactive)
REMARK    1  A    between atoms: S1_2  and  C2_3 
REMARK    2  A    between atoms: C2_3  and  C3_4 
REMARK    3  A    between atoms: N3_17  and  C10_18 
REMARK    4  A    between atoms: C10_18  and  C11_19 
REMARK    5  A    between atoms: C11_19  and  N4_20 
ROOT
HETATM    1  C3  UNL     1      19.200   0.109  40.298  1.00  0.00     0.046 C 
HETATM    2  C4  UNL     1      20.712  -0.053  40.182  1.00  0.00     0.239 C 
HETATM    3  N1  UNL     1      21.078  -1.372  39.703  1.00  0.00    -0.075 N 
ATOM      4  H11 UNL     1      21.669  -1.308  38.874  1.00  0.00     0.277 HD
ATOM      5  H12 UNL     1      20.272  -1.848  39.296  1.00  0.00     0.277 HD
HETATM    6  C5  UNL     1      21.702  -2.189  40.723  1.00  0.00     0.233 C 
HETATM    7  C6  UNL     1      21.263  -3.625  40.447  1.00  0.00     0.055 C 
HETATM    8  C7  UNL     1      21.615  -4.556  41.579  1.00  0.00     0.234 C 
HETATM    9  N2  UNL     1      21.258  -3.935  42.833  1.00  0.00    -0.074 N 
ATOM     10  H21 UNL     1      20.839  -3.017  42.691  1.00  0.00     0.277 HD
ATOM     11  H22 UNL     1      22.084  -3.650  43.359  1.00  0.00     0.277 HD
HETATM   12  C8  UNL     1      20.387  -4.809  43.628  1.00  0.00     0.252 C 
HETATM   13  C9  UNL     1      19.491  -3.963  44.492  1.00  0.00     0.149 C 
HETATM   14  N3  UNL     1      18.341  -3.498  43.800  1.00  0.00    -0.389 N 
HETATM   15  C12 UNL     1      17.995  -2.146  44.010  1.00  0.00     0.149 C 
HETATM   16  C13 UNL     1      17.172  -1.526  42.906  1.00  0.00     0.252 C 
HETATM   17  N5  UNL     1      17.904  -1.489  41.637  1.00  0.00    -0.073 N 
ATOM     18  H51 UNL     1      17.297  -1.529  40.817  1.00  0.00     0.277 HD
ATOM     19  H52 UNL     1      18.428  -2.343  41.446  1.00  0.00     0.277 HD
HETATM   20  C14 UNL     1      18.736  -0.298  41.681  1.00  0.00     0.239 C 
ENDROOT
BRANCH  14  21
HETATM   21  C10 UNL     1      17.320  -4.419  43.526  1.00  0.00     0.085 C 
BRANCH  21  22
HETATM   22  C11 UNL     1      16.685  -5.103  44.702  1.00  0.00     0.274 C 
BRANCH  22  23
HETATM   23  N4  UNL     1      15.255  -5.094  44.704  1.00  0.00    -0.075 N 
ATOM     24  H43 UNL     1      14.908  -4.158  44.915  1.00  0.00     0.274 HD
ATOM     25  H42 UNL     1      14.900  -5.204  43.754  1.00  0.00     0.274 HD
ATOM     26  H41 UNL     1      14.822  -5.779  45.324  1.00  0.00     0.274 HD
ENDBRANCH  22  23
ENDBRANCH  21  22
ENDBRANCH  14  21
BRANCH   1  27
HETATM   27  C2  UNL     1      18.798   1.535  40.080  1.00  0.00     0.081 C 
BRANCH  27  28
HETATM   28  S1  UNL     1      19.245   2.171  38.467  1.00  0.00    -0.173 SA
HETATM   29  C1  UNL     1      17.730   2.742  37.642  1.00  0.00     0.089 C 
ENDBRANCH  27  28
ENDBRANCH   1  27
TORSDOF 5
ENDMDL
