MODEL 1
REMARK VINA RESULT: -8.291626957      0.000      0.000
REMARK  6 active torsions:
REMARK  status: ('A' for Active; 'I' for Inactive)
REMARK    1  A    between atoms: C2_2  and  C11_20 
REMARK    2  A    between atoms: N1_3  and  N2_5 
REMARK    3  A    between atoms: N2_5  and  C3_7 
REMARK    4  A    between atoms: C3_7  and  N3_9 
REMARK    5  A    between atoms: N3_9  and  C4_11 
REMARK    6  A    between atoms: C4_11  and  C6_13 
REMARK       I    between atoms: C6_13  and  N4_15 
ROOT
HETATM    1  N2  UNL     1      20.781   1.695  38.961  1.00  0.00    -0.276 N 
ATOM      2  H2  UNL     1      21.755   1.861  39.212  1.00  0.00     0.189 HD
ENDROOT
BRANCH   1   3
HETATM    3  N1  UNL     1      19.917   1.245  39.945  1.00  0.00    -0.299 N 
HETATM    4  C2  UNL     1      19.838   0.000  40.230  1.00  0.00     0.067 C 
HETATM    5  C1  UNL     1      20.672  -0.999  39.516  1.00  0.00     0.074 C 
ATOM      6  H1  UNL     1      19.335   1.914  40.448  1.00  0.00     0.186 HD
BRANCH   4   7
HETATM    7  C11 UNL     1      18.905  -0.442  41.286  1.00  0.00     0.144 A 
HETATM    8  N5  UNL     1      18.970  -1.578  41.991  1.00  0.00    -0.335 N 
HETATM    9  C12 UNL     1      17.942  -1.642  42.871  1.00  0.00     0.199 A 
ATOM     10  H5  UNL     1      19.690  -2.292  41.881  1.00  0.00     0.168 HD
HETATM   11  N6  UNL     1      17.234  -0.510  42.690  1.00  0.00    -0.295 N 
HETATM   12  N7  UNL     1      17.820   0.217  41.729  1.00  0.00    -0.283 N 
ATOM     13  H6  UNL     1      16.391  -0.249  43.201  1.00  0.00     0.187 HD
ATOM     14  H7  UNL     1      17.496   1.123  41.388  1.00  0.00     0.188 HD
ENDBRANCH   4   7
ENDBRANCH   1   3
BRANCH   1  15
HETATM   15  C3  UNL     1      20.376   1.938  37.621  1.00  0.00     0.187 C 
HETATM   16  S1  UNL     1      21.207   1.160  36.447  1.00  0.00    -0.040 SA
BRANCH  15  17
HETATM   17  N3  UNL     1      19.301   2.813  37.354  1.00  0.00    -0.353 N 
ATOM     18  H3  UNL     1      19.463   3.815  37.451  1.00  0.00     0.162 HD
BRANCH  17  19
HETATM   19  C4  UNL     1      17.985   2.373  36.950  1.00  0.00     0.172 C 
HETATM   20  C5  UNL     1      17.634   2.841  35.557  1.00  0.00     0.042 C 
BRANCH  19  21
HETATM   21  C6  UNL     1      17.002   2.731  37.978  1.00  0.00     0.242 C 
HETATM   22  O1  UNL     1      17.414   3.008  39.151  1.00  0.00    -0.271 OA
HETATM   23  N4  UNL     1      15.585   2.799  37.778  1.00  0.00    -0.350 N 
HETATM   24  C7  UNL     1      14.575   3.144  38.753  1.00  0.00     0.126 C 
HETATM   25  C10 UNL     1      14.938   2.508  36.518  1.00  0.00     0.126 C 
HETATM   26  C8  UNL     1      13.413   3.603  37.911  1.00  0.00     0.021 C 
HETATM   27  C9  UNL     1      13.445   2.560  36.806  1.00  0.00     0.021 C 
ENDBRANCH  19  21
ENDBRANCH  17  19
ENDBRANCH  15  17
ENDBRANCH   1  15
TORSDOF 6
ENDMDL
MODEL 2
REMARK VINA RESULT: -8.160481894      2.248      5.821
REMARK  6 active torsions:
REMARK  status: ('A' for Active; 'I' for Inactive)
REMARK    1  A    between atoms: C2_2  and  C11_20 
REMARK    2  A    between atoms: N1_3  and  N2_5 
REMARK    3  A    between atoms: N2_5  and  C3_7 
REMARK    4  A    between atoms: C3_7  and  N3_9 
REMARK    5  A    between atoms: N3_9  and  C4_11 
REMARK    6  A    between atoms: C4_11  and  C6_13 
REMARK       I    between atoms: C6_13  and  N4_15 
ROOT
HETATM    1  N2  UNL     1      17.795   3.001  36.379  1.00  0.00    -0.276 N 
ATOM      2  H2  UNL     1      17.491   3.474  35.529  1.00  0.00     0.189 HD
ENDROOT
BRANCH   1   3
HETATM    3  N1  UNL     1      17.039   3.160  37.527  1.00  0.00    -0.299 N 
HETATM    4  C2  UNL     1      15.793   2.872  37.538  1.00  0.00     0.067 C 
HETATM    5  C1  UNL     1      15.120   2.358  36.318  1.00  0.00     0.074 C 
ATOM      6  H1  UNL     1      17.481   3.511  38.376  1.00  0.00     0.186 HD
BRANCH   4   7
HETATM    7  C11 UNL     1      15.019   3.055  38.782  1.00  0.00     0.144 A 
HETATM    8  N5  UNL     1      13.904   2.405  39.137  1.00  0.00    -0.335 N 
HETATM    9  C12 UNL     1      13.475   2.837  40.347  1.00  0.00     0.199 A 
ATOM     10  H5  UNL     1      13.443   1.688  38.576  1.00  0.00     0.168 HD
HETATM   11  N6  UNL     1      14.359   3.778  40.734  1.00  0.00    -0.295 N 
HETATM   12  N7  UNL     1      15.295   3.909  39.784  1.00  0.00    -0.283 N 
ATOM     13  H6  UNL     1      14.322   4.305  41.607  1.00  0.00     0.187 HD
ATOM     14  H7  UNL     1      16.087   4.551  39.815  1.00  0.00     0.188 HD
ENDBRANCH   4   7
ENDBRANCH   1   3
BRANCH   1  15
HETATM   15  C3  UNL     1      18.975   2.211  36.327  1.00  0.00     0.187 C 
HETATM   16  S1  UNL     1      19.045   1.064  35.163  1.00  0.00    -0.040 SA
BRANCH  15  17
HETATM   17  N3  UNL     1      20.019   2.435  37.251  1.00  0.00    -0.353 N 
ATOM     18  H3  UNL     1      20.790   3.038  36.966  1.00  0.00     0.162 HD
BRANCH  17  19
HETATM   19  C4  UNL     1      20.059   1.860  38.577  1.00  0.00     0.172 C 
HETATM   20  C5  UNL     1      20.728   2.780  39.571  1.00  0.00     0.042 C 
BRANCH  19  21
HETATM   21  C6  UNL     1      20.629   0.510  38.518  1.00  0.00     0.242 C 
HETATM   22  O1  UNL     1      21.423   0.220  37.564  1.00  0.00    -0.271 OA
HETATM   23  N4  UNL     1      20.366  -0.539  39.457  1.00  0.00    -0.350 N 
HETATM   24  C7  UNL     1      20.897  -1.883  39.446  1.00  0.00     0.126 C 
HETATM   25  C10 UNL     1      19.484  -0.396  40.594  1.00  0.00     0.126 C 
HETATM   26  C8  UNL     1      20.770  -2.327  40.880  1.00  0.00     0.021 C 
HETATM   27  C9  UNL     1      19.391  -1.781  41.215  1.00  0.00     0.021 C 
ENDBRANCH  19  21
ENDBRANCH  17  19
ENDBRANCH  15  17
ENDBRANCH   1  15
TORSDOF 6
ENDMDL
MODEL 3
REMARK VINA RESULT: -8.142418850      2.334      3.043
REMARK  6 active torsions:
REMARK  status: ('A' for Active; 'I' for Inactive)
REMARK    1  A    between atoms: C2_2  and  C11_20 
REMARK    2  A    between atoms: N1_3  and  N2_5 
REMARK    3  A    between atoms: N2_5  and  C3_7 
REMARK    4  A    between atoms: C3_7  and  N3_9 
REMARK    5  A    between atoms: N3_9  and  C4_11 
REMARK    6  A    between atoms: C4_11  and  C6_13 
REMARK       I    between atoms: C6_13  and  N4_15 
ROOT
HETATM    1  N2  UNL     1      19.214   2.054  39.199  1.00  0.00    -0.276 N 
ATOM      2  H2  UNL     1      19.981   2.724  39.136  1.00  0.00     0.189 HD
ENDROOT
BRANCH   1   3
HETATM    3  N1  UNL     1      19.469   0.813  39.758  1.00  0.00    -0.299 N 
HETATM    4  C2  UNL     1      20.196  -0.045  39.148  1.00  0.00     0.067 C 
HETATM    5  C1  UNL     1      20.788   0.264  37.822  1.00  0.00     0.074 C 
ATOM      6  H1  UNL     1      19.073   0.581  40.668  1.00  0.00     0.186 HD
BRANCH   4   7
HETATM    7  C11 UNL     1      20.445  -1.358  39.777  1.00  0.00     0.144 A 
HETATM    8  N5  UNL     1      21.357  -1.637  40.716  1.00  0.00    -0.335 N 
HETATM    9  C12 UNL     1      21.296  -2.949  41.052  1.00  0.00     0.199 A 
ATOM     10  H5  UNL     1      22.005  -0.961  41.120  1.00  0.00     0.168 HD
HETATM   11  N6  UNL     1      20.317  -3.476  40.291  1.00  0.00    -0.295 N 
HETATM   12  N7  UNL     1      19.802  -2.510  39.519  1.00  0.00    -0.283 N 
ATOM     13  H6  UNL     1      20.016  -4.450  40.302  1.00  0.00     0.187 HD
ATOM     14  H7  UNL     1      19.045  -2.628  38.845  1.00  0.00     0.188 HD
ENDBRANCH   4   7
ENDBRANCH   1   3
BRANCH   1  15
HETATM   15  C3  UNL     1      17.937   2.440  38.710  1.00  0.00     0.187 C 
HETATM   16  S1  UNL     1      17.792   2.625  37.091  1.00  0.00    -0.040 SA
BRANCH  15  17
HETATM   17  N3  UNL     1      16.866   2.641  39.607  1.00  0.00    -0.353 N 
ATOM     18  H3  UNL     1      16.896   2.160  40.505  1.00  0.00     0.162 HD
BRANCH  17  19
HETATM   19  C4  UNL     1      15.729   3.489  39.327  1.00  0.00     0.172 C 
HETATM   20  C5  UNL     1      15.833   4.823  40.029  1.00  0.00     0.042 C 
BRANCH  19  21
HETATM   21  C6  UNL     1      14.485   2.759  39.590  1.00  0.00     0.242 C 
HETATM   22  O1  UNL     1      14.236   2.379  40.781  1.00  0.00    -0.271 OA
HETATM   23  N4  UNL     1      13.501   2.423  38.606  1.00  0.00    -0.350 N 
HETATM   24  C7  UNL     1      12.262   1.706  38.809  1.00  0.00     0.126 C 
HETATM   25  C10 UNL     1      13.619   2.761  37.205  1.00  0.00     0.126 C 
HETATM   26  C8  UNL     1      11.411   2.130  37.641  1.00  0.00     0.021 C 
HETATM   27  C9  UNL     1      12.439   2.087  36.522  1.00  0.00     0.021 C 
ENDBRANCH  19  21
ENDBRANCH  17  19
ENDBRANCH  15  17
ENDBRANCH   1  15
TORSDOF 6
ENDMDL
MODEL 4
REMARK VINA RESULT: -8.063739732      1.731      5.629
REMARK  6 active torsions:
REMARK  status: ('A' for Active; 'I' for Inactive)
REMARK    1  A    between atoms: C2_2  and  C11_20 
REMARK    2  A    between atoms: N1_3  and  N2_5 
REMARK    3  A    between atoms: N2_5  and  C3_7 
REMARK    4  A    between atoms: C3_7  and  N3_9 
REMARK    5  A    between atoms: N3_9  and  C4_11 
REMARK    6  A    between atoms: C4_11  and  C6_13 
REMARK       I    between atoms: C6_13  and  N4_15 
ROOT
HETATM    1  N2  UNL     1      18.155   2.906  36.755  1.00  0.00    -0.276 N 
ATOM      2  H2  UNL     1      18.136   3.595  36.003  1.00  0.00     0.189 HD
ENDROOT
BRANCH   1   3
HETATM    3  N1  UNL     1      17.226   3.020  37.775  1.00  0.00    -0.299 N 
HETATM    4  C2  UNL     1      15.988   2.775  37.567  1.00  0.00     0.067 C 
HETATM    5  C1  UNL     1      15.510   2.360  36.224  1.00  0.00     0.074 C 
ATOM      6  H1  UNL     1      17.533   3.303  38.705  1.00  0.00     0.186 HD
BRANCH   4   7
HETATM    7  C11 UNL     1      15.027   2.908  38.680  1.00  0.00     0.144 A 
HETATM    8  N5  UNL     1      13.692   2.940  38.589  1.00  0.00    -0.335 N 
HETATM    9  C12 UNL     1      13.142   3.072  39.821  1.00  0.00     0.199 A 
ATOM     10  H5  UNL     1      13.165   2.876  37.718  1.00  0.00     0.168 HD
HETATM   11  N6  UNL     1      14.179   3.120  40.681  1.00  0.00    -0.295 N 
HETATM   12  N7  UNL     1      15.321   3.021  39.988  1.00  0.00    -0.283 N 
ATOM     13  H6  UNL     1      14.105   3.217  41.693  1.00  0.00     0.187 HD
ATOM     14  H7  UNL     1      16.260   3.029  40.386  1.00  0.00     0.188 HD
ENDBRANCH   4   7
ENDBRANCH   1   3
BRANCH   1  15
HETATM   15  C3  UNL     1      19.132   1.876  36.703  1.00  0.00     0.187 C 
HETATM   16  S1  UNL     1      19.354   1.140  35.260  1.00  0.00    -0.040 SA
BRANCH  15  17
HETATM   17  N3  UNL     1      19.861   1.533  37.862  1.00  0.00    -0.353 N 
ATOM     18  H3  UNL     1      20.596   0.831  37.777  1.00  0.00     0.162 HD
BRANCH  17  19
HETATM   19  C4  UNL     1      19.627   2.118  39.164  1.00  0.00     0.172 C 
HETATM   20  C5  UNL     1      20.885   2.718  39.748  1.00  0.00     0.042 C 
BRANCH  19  21
HETATM   21  C6  UNL     1      18.956   1.146  40.034  1.00  0.00     0.242 C 
HETATM   22  O1  UNL     1      17.792   1.418  40.474  1.00  0.00    -0.271 OA
HETATM   23  N4  UNL     1      19.506  -0.111  40.445  1.00  0.00    -0.350 N 
HETATM   24  C7  UNL     1      18.891  -1.102  41.299  1.00  0.00     0.126 C 
HETATM   25  C10 UNL     1      20.815  -0.581  40.054  1.00  0.00     0.126 C 
HETATM   26  C8  UNL     1      19.606  -2.377  40.935  1.00  0.00     0.021 C 
HETATM   27  C9  UNL     1      21.035  -1.870  40.831  1.00  0.00     0.021 C 
ENDBRANCH  19  21
ENDBRANCH  17  19
ENDBRANCH  15  17
ENDBRANCH   1  15
TORSDOF 6
ENDMDL
MODEL 5
REMARK VINA RESULT: -8.045919192      2.096      2.940
REMARK  6 active torsions:
REMARK  status: ('A' for Active; 'I' for Inactive)
REMARK    1  A    between atoms: C2_2  and  C11_20 
REMARK    2  A    between atoms: N1_3  and  N2_5 
REMARK    3  A    between atoms: N2_5  and  C3_7 
REMARK    4  A    between atoms: C3_7  and  N3_9 
REMARK    5  A    between atoms: N3_9  and  C4_11 
REMARK    6  A    between atoms: C4_11  and  C6_13 
REMARK       I    between atoms: C6_13  and  N4_15 
ROOT
HETATM    1  N2  UNL     1      17.954   2.933  38.649  1.00  0.00    -0.276 N 
ATOM      2  H2  UNL     1      18.518   3.749  38.889  1.00  0.00     0.189 HD
ENDROOT
BRANCH   1   3
HETATM    3  N1  UNL     1      17.847   1.912  39.577  1.00  0.00    -0.299 N 
HETATM    4  C2  UNL     1      18.877   1.248  39.944  1.00  0.00     0.067 C 
HETATM    5  C1  UNL     1      20.219   1.553  39.386  1.00  0.00     0.074 C 
ATOM      6  H1  UNL     1      16.936   1.686  39.974  1.00  0.00     0.186 HD
BRANCH   4   7
HETATM    7  C11 UNL     1      18.723   0.165  40.937  1.00  0.00     0.144 A 
HETATM    8  N5  UNL     1      17.799   0.087  41.903  1.00  0.00    -0.335 N 
HETATM    9  C12 UNL     1      17.968  -1.049  42.621  1.00  0.00     0.199 A 
ATOM     10  H5  UNL     1      17.073   0.783  42.073  1.00  0.00     0.168 HD
HETATM   11  N6  UNL     1      19.028  -1.675  42.072  1.00  0.00    -0.295 N 
HETATM   12  N7  UNL     1      19.484  -0.938  41.050  1.00  0.00    -0.283 N 
ATOM     13  H6  UNL     1      19.418  -2.565  42.382  1.00  0.00     0.187 HD
ATOM     14  H7  UNL     1      20.278  -1.174  40.455  1.00  0.00     0.188 HD
ENDBRANCH   4   7
ENDBRANCH   1   3
BRANCH   1  15
HETATM   15  C3  UNL     1      17.316   2.902  37.380  1.00  0.00     0.187 C 
HETATM   16  S1  UNL     1      18.165   2.249  36.144  1.00  0.00    -0.040 SA
BRANCH  15  17
HETATM   17  N3  UNL     1      16.010   3.415  37.231  1.00  0.00    -0.353 N 
ATOM     18  H3  UNL     1      15.896   4.304  36.745  1.00  0.00     0.162 HD
BRANCH  17  19
HETATM   19  C4  UNL     1      14.823   2.755  37.727  1.00  0.00     0.172 C 
HETATM   20  C5  UNL     1      13.711   2.749  36.705  1.00  0.00     0.042 C 
BRANCH  19  21
HETATM   21  C6  UNL     1      14.449   3.314  39.030  1.00  0.00     0.242 C 
HETATM   22  O1  UNL     1      15.087   4.325  39.470  1.00  0.00    -0.271 OA
HETATM   23  N4  UNL     1      13.407   2.813  39.875  1.00  0.00    -0.350 N 
HETATM   24  C7  UNL     1      12.998   3.323  41.164  1.00  0.00     0.126 C 
HETATM   25  C10 UNL     1      12.586   1.669  39.545  1.00  0.00     0.126 C 
HETATM   26  C8  UNL     1      11.583   2.829  41.309  1.00  0.00     0.021 C 
HETATM   27  C9  UNL     1      11.730   1.413  40.775  1.00  0.00     0.021 C 
ENDBRANCH  19  21
ENDBRANCH  17  19
ENDBRANCH  15  17
ENDBRANCH   1  15
TORSDOF 6
ENDMDL
