MODEL 1
REMARK VINA RESULT: -7.132046549      0.000      0.000
REMARK  8 active torsions:
REMARK  status: ('A' for Active; 'I' for Inactive)
REMARK    1  A    between atoms: O1_2  and  C2_3 
REMARK    2  A    between atoms: C6_9  and  C7_10 
REMARK       I    between atoms: C7_10  and  N1_12 
REMARK    3  A    between atoms: N1_12  and  C8_14 
REMARK    4  A    between atoms: C8_14  and  C9_15 
REMARK    5  A    between atoms: C8_14  and  C12_18 
REMARK    6  A    between atoms: C12_18  and  C13_21 
REMARK    7  A    between atoms: C13_21  and  O3_22 
REMARK    8  A    between atoms: C13_21  and  C14_24 
ROOT
HETATM    1  C2  UNL     1       5.328  60.302   0.910  1.00  0.00     0.108 A 
HETATM    2  C3  UNL     1       5.719  59.329   1.785  1.00  0.00     0.063 A 
HETATM    3 BR1  UNL     1       4.567  57.864   2.171  1.00  0.00    -0.047 Br
HETATM    4  C4  UNL     1       6.945  59.423   2.379  1.00  0.00     0.032 A 
HETATM    5 BR2  UNL     1       7.456  58.032   3.596  1.00  0.00    -0.050 Br
HETATM    6  C5  UNL     1       7.782  60.496   2.093  1.00  0.00     0.039 A 
HETATM    7  C6  UNL     1       7.414  61.494   1.214  1.00  0.00     0.056 A 
HETATM    8  C15 UNL     1       6.170  61.371   0.630  1.00  0.00     0.095 A 
HETATM    9  C16 UNL     1       5.691  62.349  -0.288  1.00  0.00     0.103 C 
HETATM   10  N3  UNL     1       5.302  63.159  -1.020  1.00  0.00    -0.191 NA
ENDROOT
BRANCH   1  11
HETATM   11  O1  UNL     1       4.069  60.176   0.321  1.00  0.00    -0.353 OA
HETATM   12  C1  UNL     1       3.960  59.543  -0.925  1.00  0.00     0.210 C 
ENDBRANCH   1  11
BRANCH   7  13
HETATM   13  C7  UNL     1       8.270  62.601   0.898  1.00  0.00     0.253 C 
HETATM   14  O2  UNL     1       8.635  62.731  -0.319  1.00  0.00    -0.268 OA
HETATM   15  N1  UNL     1       8.742  63.571   1.843  1.00  0.00    -0.346 N 
ATOM     16  H1  UNL     1       8.463  63.493   2.820  1.00  0.00     0.163 HD
BRANCH  15  17
HETATM   17  C8  UNL     1       9.592  64.638   1.445  1.00  0.00     0.163 C 
BRANCH  17  18
HETATM   18  C9  UNL     1       9.052  66.005   1.847  1.00  0.00     0.006 C 
HETATM   19  C10 UNL     1       8.041  66.496   0.809  1.00  0.00     0.012 C 
HETATM   20  C11 UNL     1       8.519  66.071   3.231  1.00  0.00     0.012 C 
ENDBRANCH  17  18
BRANCH  17  21
HETATM   21  C12 UNL     1      11.003  64.582   1.883  1.00  0.00     0.297 C 
HETATM   22  F1  UNL     1      11.153  64.087   3.174  1.00  0.00    -0.201 F 
HETATM   23  F2  UNL     1      11.492  65.889   1.897  1.00  0.00    -0.201 F 
BRANCH  21  24
HETATM   24  C13 UNL     1      11.937  63.788   1.008  1.00  0.00     0.281 C 
BRANCH  24  25
HETATM   25  O3  UNL     1      11.437  62.512   0.745  1.00  0.00    -0.381 OA
ATOM     26  H3  UNL     1      10.677  62.543   0.176  1.00  0.00     0.210 HD
ENDBRANCH  24  25
BRANCH  24  27
HETATM   27  C14 UNL     1      12.075  64.563  -0.252  1.00  0.00     0.266 C 
HETATM   28  N2  UNL     1      10.973  64.853  -1.087  1.00  0.00    -0.060 NA
HETATM   29  O4  UNL     1      13.206  64.976  -0.587  1.00  0.00    -0.274 OA
ENDBRANCH  24  27
ENDBRANCH  21  24
ENDBRANCH  17  21
ENDBRANCH  15  17
ENDBRANCH   7  13
TORSDOF 8
ENDMDL
MODEL 2
REMARK VINA RESULT: -6.942443468      1.462      1.704
REMARK  8 active torsions:
REMARK  status: ('A' for Active; 'I' for Inactive)
REMARK    1  A    between atoms: O1_2  and  C2_3 
REMARK    2  A    between atoms: C6_9  and  C7_10 
REMARK       I    between atoms: C7_10  and  N1_12 
REMARK    3  A    between atoms: N1_12  and  C8_14 
REMARK    4  A    between atoms: C8_14  and  C9_15 
REMARK    5  A    between atoms: C8_14  and  C12_18 
REMARK    6  A    between atoms: C12_18  and  C13_21 
REMARK    7  A    between atoms: C13_21  and  O3_22 
REMARK    8  A    between atoms: C13_21  and  C14_24 
ROOT
HETATM    1  C2  UNL     1       5.632  60.690   0.420  1.00  0.00     0.108 A 
HETATM    2  C3  UNL     1       5.984  59.771   1.366  1.00  0.00     0.063 A 
HETATM    3 BR1  UNL     1       4.898  58.238   1.669  1.00  0.00    -0.047 Br
HETATM    4  C4  UNL     1       7.124  59.966   2.090  1.00  0.00     0.032 A 
HETATM    5 BR2  UNL     1       7.586  58.647   3.404  1.00  0.00    -0.050 Br
HETATM    6  C5  UNL     1       7.915  61.089   1.865  1.00  0.00     0.039 A 
HETATM    7  C6  UNL     1       7.584  62.034   0.916  1.00  0.00     0.056 A 
HETATM    8  C15 UNL     1       6.426  61.809   0.201  1.00  0.00     0.095 A 
HETATM    9  C16 UNL     1       5.990  62.726  -0.797  1.00  0.00     0.103 C 
HETATM   10  N3  UNL     1       5.634  63.487  -1.596  1.00  0.00    -0.191 NA
ENDROOT
BRANCH   1  11
HETATM   11  O1  UNL     1       4.460  60.460  -0.302  1.00  0.00    -0.353 OA
HETATM   12  C1  UNL     1       4.543  59.839  -1.556  1.00  0.00     0.210 C 
ENDBRANCH   1  11
BRANCH   7  13
HETATM   13  C7  UNL     1       8.393  63.190   0.661  1.00  0.00     0.253 C 
HETATM   14  O2  UNL     1       9.010  63.240  -0.455  1.00  0.00    -0.268 OA
HETATM   15  N1  UNL     1       8.559  64.294   1.563  1.00  0.00    -0.346 N 
ATOM     16  H1  UNL     1       8.074  64.282   2.461  1.00  0.00     0.163 HD
BRANCH  15  17
HETATM   17  C8  UNL     1       9.384  65.403   1.232  1.00  0.00     0.163 C 
BRANCH  17  18
HETATM   18  C9  UNL     1       8.961  66.685   1.938  1.00  0.00     0.006 C 
HETATM   19  C10 UNL     1       7.878  67.397   1.125  1.00  0.00     0.012 C 
HETATM   20  C11 UNL     1       8.576  66.505   3.360  1.00  0.00     0.012 C 
ENDBRANCH  17  18
BRANCH  17  21
HETATM   21  C12 UNL     1      10.840  65.251   1.441  1.00  0.00     0.297 C 
HETATM   22  F1  UNL     1      11.430  66.381   1.996  1.00  0.00    -0.201 F 
HETATM   23  F2  UNL     1      11.428  65.069   0.188  1.00  0.00    -0.201 F 
BRANCH  21  24
HETATM   24  C13 UNL     1      11.270  64.082   2.287  1.00  0.00     0.281 C 
BRANCH  24  25
HETATM   25  O3  UNL     1      11.554  62.959   1.509  1.00  0.00    -0.381 OA
ATOM     26  H3  UNL     1      11.652  62.178   2.042  1.00  0.00     0.210 HD
ENDBRANCH  24  25
BRANCH  24  27
HETATM   27  C14 UNL     1      12.485  64.532   3.016  1.00  0.00     0.266 C 
HETATM   28  N2  UNL     1      13.761  64.571   2.409  1.00  0.00    -0.060 NA
HETATM   29  O4  UNL     1      12.377  64.889   4.208  1.00  0.00    -0.274 OA
ENDBRANCH  24  27
ENDBRANCH  21  24
ENDBRANCH  17  21
ENDBRANCH  15  17
ENDBRANCH   7  13
TORSDOF 8
ENDMDL
MODEL 3
REMARK VINA RESULT: -6.922975229      1.394      1.616
REMARK  8 active torsions:
REMARK  status: ('A' for Active; 'I' for Inactive)
REMARK    1  A    between atoms: O1_2  and  C2_3 
REMARK    2  A    between atoms: C6_9  and  C7_10 
REMARK       I    between atoms: C7_10  and  N1_12 
REMARK    3  A    between atoms: N1_12  and  C8_14 
REMARK    4  A    between atoms: C8_14  and  C9_15 
REMARK    5  A    between atoms: C8_14  and  C12_18 
REMARK    6  A    between atoms: C12_18  and  C13_21 
REMARK    7  A    between atoms: C13_21  and  O3_22 
REMARK    8  A    between atoms: C13_21  and  C14_24 
ROOT
HETATM    1  C2  UNL     1       5.498  60.372   0.829  1.00  0.00     0.108 A 
HETATM    2  C3  UNL     1       5.832  59.402   1.731  1.00  0.00     0.063 A 
HETATM    3 BR1  UNL     1       4.662  57.934   2.040  1.00  0.00    -0.047 Br
HETATM    4  C4  UNL     1       7.014  59.500   2.406  1.00  0.00     0.032 A 
HETATM    5 BR2  UNL     1       7.447  58.113   3.657  1.00  0.00    -0.050 Br
HETATM    6  C5  UNL     1       7.866  60.577   2.176  1.00  0.00     0.039 A 
HETATM    7  C6  UNL     1       7.555  61.571   1.272  1.00  0.00     0.056 A 
HETATM    8  C15 UNL     1       6.354  61.444   0.605  1.00  0.00     0.095 A 
HETATM    9  C16 UNL     1       5.934  62.418  -0.345  1.00  0.00     0.103 C 
HETATM   10  N3  UNL     1       5.594  63.226  -1.103  1.00  0.00    -0.191 NA
ENDROOT
BRANCH   1  11
HETATM   11  O1  UNL     1       4.282  60.240   0.157  1.00  0.00    -0.353 OA
HETATM   12  C1  UNL     1       4.266  59.641  -1.110  1.00  0.00     0.210 C 
ENDBRANCH   1  11
BRANCH   7  13
HETATM   13  C7  UNL     1       8.426  62.680   1.012  1.00  0.00     0.253 C 
HETATM   14  O2  UNL     1       9.223  62.581   0.019  1.00  0.00    -0.268 OA
HETATM   15  N1  UNL     1       8.468  63.891   1.780  1.00  0.00    -0.346 N 
ATOM     16  H1  UNL     1       7.839  63.999   2.576  1.00  0.00     0.163 HD
BRANCH  15  17
HETATM   17  C8  UNL     1       9.366  64.943   1.456  1.00  0.00     0.163 C 
BRANCH  17  18
HETATM   18  C9  UNL     1       8.655  66.258   1.161  1.00  0.00     0.006 C 
HETATM   19  C10 UNL     1       7.918  66.167  -0.177  1.00  0.00     0.012 C 
HETATM   20  C11 UNL     1       7.779  66.741   2.258  1.00  0.00     0.012 C 
ENDBRANCH  17  18
BRANCH  17  21
HETATM   21  C12 UNL     1      10.444  65.239   2.424  1.00  0.00     0.297 C 
HETATM   22  F1  UNL     1       9.964  65.584   3.683  1.00  0.00    -0.201 F 
HETATM   23  F2  UNL     1      11.145  66.348   1.947  1.00  0.00    -0.201 F 
BRANCH  21  24
HETATM   24  C13 UNL     1      11.461  64.150   2.636  1.00  0.00     0.281 C 
BRANCH  24  25
HETATM   25  O3  UNL     1      11.736  63.463   1.453  1.00  0.00    -0.381 OA
ATOM     26  H3  UNL     1      10.944  63.277   0.962  1.00  0.00     0.210 HD
ENDBRANCH  24  25
BRANCH  24  27
HETATM   27  C14 UNL     1      12.685  64.826   3.142  1.00  0.00     0.266 C 
HETATM   28  N2  UNL     1      12.849  65.175   4.501  1.00  0.00    -0.060 NA
HETATM   29  O4  UNL     1      13.602  65.095   2.338  1.00  0.00    -0.274 OA
ENDBRANCH  24  27
ENDBRANCH  21  24
ENDBRANCH  17  21
ENDBRANCH  15  17
ENDBRANCH   7  13
TORSDOF 8
ENDMDL
MODEL 4
REMARK VINA RESULT: -6.831140965      4.732      6.441
REMARK  8 active torsions:
REMARK  status: ('A' for Active; 'I' for Inactive)
REMARK    1  A    between atoms: O1_2  and  C2_3 
REMARK    2  A    between atoms: C6_9  and  C7_10 
REMARK       I    between atoms: C7_10  and  N1_12 
REMARK    3  A    between atoms: N1_12  and  C8_14 
REMARK    4  A    between atoms: C8_14  and  C9_15 
REMARK    5  A    between atoms: C8_14  and  C12_18 
REMARK    6  A    between atoms: C12_18  and  C13_21 
REMARK    7  A    between atoms: C13_21  and  O3_22 
REMARK    8  A    between atoms: C13_21  and  C14_24 
ROOT
HETATM    1  C2  UNL     1       4.718  66.111   5.777  1.00  0.00     0.108 A 
HETATM    2  C3  UNL     1       3.609  65.748   6.485  1.00  0.00     0.063 A 
HETATM    3 BR1  UNL     1       2.440  67.075   7.188  1.00  0.00    -0.047 Br
HETATM    4  C4  UNL     1       3.350  64.422   6.682  1.00  0.00     0.032 A 
HETATM    5 BR2  UNL     1       1.777  63.956   7.676  1.00  0.00    -0.050 Br
HETATM    6  C5  UNL     1       4.209  63.456   6.166  1.00  0.00     0.039 A 
HETATM    7  C6  UNL     1       5.337  63.793   5.448  1.00  0.00     0.056 A 
HETATM    8  C15 UNL     1       5.571  65.141   5.266  1.00  0.00     0.095 A 
HETATM    9  C16 UNL     1       6.711  65.597   4.544  1.00  0.00     0.103 C 
HETATM   10  N3  UNL     1       7.651  65.958   3.970  1.00  0.00    -0.191 NA
ENDROOT
BRANCH   1  11
HETATM   11  O1  UNL     1       4.953  67.475   5.595  1.00  0.00    -0.353 OA
HETATM   12  C1  UNL     1       4.443  68.107   4.453  1.00  0.00     0.210 C 
ENDBRANCH   1  11
BRANCH   7  13
HETATM   13  C7  UNL     1       6.226  62.811   4.897  1.00  0.00     0.253 C 
HETATM   14  O2  UNL     1       7.058  62.260   5.694  1.00  0.00    -0.268 OA
HETATM   15  N1  UNL     1       6.248  62.401   3.523  1.00  0.00    -0.346 N 
ATOM     16  H1  UNL     1       5.592  62.822   2.865  1.00  0.00     0.163 HD
BRANCH  15  17
HETATM   17  C8  UNL     1       7.166  61.420   3.058  1.00  0.00     0.163 C 
BRANCH  17  18
HETATM   18  C9  UNL     1       6.504  60.076   2.781  1.00  0.00     0.006 C 
HETATM   19  C10 UNL     1       6.962  59.044   3.814  1.00  0.00     0.012 C 
HETATM   20  C11 UNL     1       5.027  60.134   2.656  1.00  0.00     0.012 C 
ENDBRANCH  17  18
BRANCH  17  21
HETATM   21  C12 UNL     1       7.977  61.758   1.870  1.00  0.00     0.297 C 
HETATM   22  F1  UNL     1       7.254  61.704   0.683  1.00  0.00    -0.201 F 
HETATM   23  F2  UNL     1       8.989  60.802   1.764  1.00  0.00    -0.201 F 
BRANCH  21  24
HETATM   24  C13 UNL     1       8.660  63.100   1.894  1.00  0.00     0.281 C 
BRANCH  24  25
HETATM   25  O3  UNL     1       9.197  63.383   3.150  1.00  0.00    -0.381 OA
ATOM     26  H3  UNL     1       8.784  62.868   3.833  1.00  0.00     0.210 HD
ENDBRANCH  24  25
BRANCH  24  27
HETATM   27  C14 UNL     1       9.737  63.029   0.871  1.00  0.00     0.266 C 
HETATM   28  N2  UNL     1      11.102  62.920   1.217  1.00  0.00    -0.060 NA
HETATM   29  O4  UNL     1       9.425  63.066  -0.338  1.00  0.00    -0.274 OA
ENDBRANCH  24  27
ENDBRANCH  21  24
ENDBRANCH  17  21
ENDBRANCH  15  17
ENDBRANCH   7  13
TORSDOF 8
ENDMDL
MODEL 5
REMARK VINA RESULT: -6.817018929      1.783      2.112
REMARK  8 active torsions:
REMARK  status: ('A' for Active; 'I' for Inactive)
REMARK    1  A    between atoms: O1_2  and  C2_3 
REMARK    2  A    between atoms: C6_9  and  C7_10 
REMARK       I    between atoms: C7_10  and  N1_12 
REMARK    3  A    between atoms: N1_12  and  C8_14 
REMARK    4  A    between atoms: C8_14  and  C9_15 
REMARK    5  A    between atoms: C8_14  and  C12_18 
REMARK    6  A    between atoms: C12_18  and  C13_21 
REMARK    7  A    between atoms: C13_21  and  O3_22 
REMARK    8  A    between atoms: C13_21  and  C14_24 
ROOT
HETATM    1  C2  UNL     1       5.586  60.153   1.021  1.00  0.00     0.108 A 
HETATM    2  C3  UNL     1       5.839  59.146   1.907  1.00  0.00     0.063 A 
HETATM    3 BR1  UNL     1       4.601  57.715   2.114  1.00  0.00    -0.047 Br
HETATM    4  C4  UNL     1       6.988  59.179   2.643  1.00  0.00     0.032 A 
HETATM    5 BR2  UNL     1       7.305  57.741   3.872  1.00  0.00    -0.050 Br
HETATM    6  C5  UNL     1       7.889  60.228   2.488  1.00  0.00     0.039 A 
HETATM    7  C6  UNL     1       7.661  61.260   1.600  1.00  0.00     0.056 A 
HETATM    8  C15 UNL     1       6.491  61.197   0.872  1.00  0.00     0.095 A 
HETATM    9  C16 UNL     1       6.156  62.213  -0.068  1.00  0.00     0.103 C 
HETATM   10  N3  UNL     1       5.884  63.055  -0.818  1.00  0.00    -0.191 NA
ENDROOT
BRANCH   1  11
HETATM   11  O1  UNL     1       4.402  60.087   0.285  1.00  0.00    -0.353 OA
HETATM   12  C1  UNL     1       4.438  59.576  -1.019  1.00  0.00     0.210 C 
ENDBRANCH   1  11
BRANCH   7  13
HETATM   13  C7  UNL     1       8.584  62.342   1.418  1.00  0.00     0.253 C 
HETATM   14  O2  UNL     1       9.798  62.040   1.158  1.00  0.00    -0.268 OA
HETATM   15  N1  UNL     1       8.247  63.733   1.503  1.00  0.00    -0.346 N 
ATOM     16  H1  UNL     1       7.285  64.003   1.705  1.00  0.00     0.163 HD
BRANCH  15  17
HETATM   17  C8  UNL     1       9.227  64.745   1.310  1.00  0.00     0.163 C 
BRANCH  17  18
HETATM   18  C9  UNL     1       8.988  65.568   0.051  1.00  0.00     0.006 C 
HETATM   19  C10 UNL     1       9.463  64.792  -1.180  1.00  0.00     0.012 C 
HETATM   20  C11 UNL     1       7.600  66.071  -0.099  1.00  0.00     0.012 C 
ENDBRANCH  17  18
BRANCH  17  21
HETATM   21  C12 UNL     1       9.444  65.700   2.419  1.00  0.00     0.297 C 
HETATM   22  F1  UNL     1       8.277  66.000   3.114  1.00  0.00    -0.201 F 
HETATM   23  F2  UNL     1       9.895  66.897   1.861  1.00  0.00    -0.201 F 
BRANCH  21  24
HETATM   24  C13 UNL     1      10.465  65.298   3.449  1.00  0.00     0.281 C 
BRANCH  24  25
HETATM   25  O3  UNL     1      10.643  63.914   3.487  1.00  0.00    -0.381 OA
ATOM     26  H3  UNL     1       9.830  63.460   3.678  1.00  0.00     0.210 HD
ENDBRANCH  24  25
BRANCH  24  27
HETATM   27  C14 UNL     1      11.729  65.975   3.057  1.00  0.00     0.266 C 
HETATM   28  N2  UNL     1      12.534  65.516   1.990  1.00  0.00    -0.060 NA
HETATM   29  O4  UNL     1      12.095  66.987   3.691  1.00  0.00    -0.274 OA
ENDBRANCH  24  27
ENDBRANCH  21  24
ENDBRANCH  17  21
ENDBRANCH  15  17
ENDBRANCH   7  13
TORSDOF 8
ENDMDL
