MODEL 1
REMARK VINA RESULT: -8.415066775      0.000      0.000
REMARK  7 active torsions:
REMARK  status: ('A' for Active; 'I' for Inactive)
REMARK    1  A    between atoms: N1_2  and  C2_3 
REMARK    2  A    between atoms: N1_2  and  S1_19 
REMARK    3  A    between atoms: C2_3  and  C3_4 
REMARK    4  A    between atoms: C3_4  and  C4_5 
REMARK    5  A    between atoms: C4_5  and  N2_6 
REMARK       I    between atoms: N2_6  and  C5_8 
REMARK    6  A    between atoms: C5_8  and  C6_10 
REMARK    7  A    between atoms: S1_19  and  C10_22 
ROOT
HETATM    1  C3  UNL     1      11.932  63.805   1.423  1.00  0.00     0.040 C 
ENDROOT
BRANCH   1   2
HETATM    2  C2  UNL     1      12.851  64.917   1.863  1.00  0.00     0.136 C 
BRANCH   2   3
HETATM    3  N1  UNL     1      13.455  64.711   3.133  1.00  0.00    -0.310 N 
HETATM    4  C1  UNL     1      14.855  64.500   3.123  1.00  0.00     0.163 C 
BRANCH   3   5
HETATM    5  S1  UNL     1      12.850  65.600   4.429  1.00  0.00     0.278 S 
HETATM    6  O2  UNL     1      12.699  67.041   4.086  1.00  0.00    -0.199 OA
HETATM    7  O3  UNL     1      11.432  65.090   4.687  1.00  0.00    -0.199 OA
BRANCH   5   8
HETATM    8  C10 UNL     1      13.720  65.382   5.918  1.00  0.00     0.181 A 
HETATM    9  C11 UNL     1      14.845  64.612   6.121  1.00  0.00     0.153 A 
HETATM   10  N4  UNL     1      15.221  64.702   7.415  1.00  0.00    -0.295 N 
HETATM   11  N5  UNL     1      14.344  65.506   7.978  1.00  0.00    -0.242 N 
ATOM     12  H4  UNL     1      16.016  64.244   7.861  1.00  0.00     0.187 HD
HETATM   13  N6  UNL     1      13.441  65.925   7.116  1.00  0.00    -0.273 N 
ATOM     14  H5  UNL     1      14.361  65.771   8.963  1.00  0.00     0.208 HD
ATOM     15  H6  UNL     1      12.665  66.553   7.322  1.00  0.00     0.189 HD
ENDBRANCH   5   8
ENDBRANCH   3   5
ENDBRANCH   2   3
ENDBRANCH   1   2
BRANCH   1  16
HETATM   16  C4  UNL     1      10.490  64.125   1.568  1.00  0.00     0.124 C 
BRANCH  16  17
HETATM   17  N2  UNL     1       9.649  63.079   2.066  1.00  0.00    -0.356 N 
HETATM   18  C5  UNL     1       8.787  62.326   1.245  1.00  0.00     0.270 C 
HETATM   19  O1  UNL     1       8.769  62.611  -0.011  1.00  0.00    -0.266 OA
ATOM     20  H2  UNL     1       9.674  62.869   3.063  1.00  0.00     0.162 HD
BRANCH  18  21
HETATM   21  C6  UNL     1       7.909  61.252   1.656  1.00  0.00     0.125 A 
HETATM   22  N3  UNL     1       8.277  60.219   2.466  1.00  0.00    -0.343 N 
HETATM   23  C7  UNL     1       7.271  59.382   2.677  1.00  0.00     0.099 A 
ATOM     24  H3  UNL     1       9.210  60.105   2.861  1.00  0.00     0.167 HD
HETATM   25 BR1  UNL     1       7.270  57.779   3.739  1.00  0.00    -0.030 Br
HETATM   26  C8  UNL     1       6.169  59.833   2.001  1.00  0.00     0.069 A 
HETATM   27 BR2  UNL     1       4.426  59.083   1.903  1.00  0.00    -0.046 Br
HETATM   28  C9  UNL     1       6.593  60.999   1.374  1.00  0.00     0.086 A 
HETATM   29 CL1  UNL     1       5.548  61.973   0.372  1.00  0.00    -0.080 Cl
ENDBRANCH  18  21
ENDBRANCH  16  17
ENDBRANCH   1  16
TORSDOF 7
ENDMDL
MODEL 2
REMARK VINA RESULT: -7.887373301      1.450      1.649
REMARK  7 active torsions:
REMARK  status: ('A' for Active; 'I' for Inactive)
REMARK    1  A    between atoms: N1_2  and  C2_3 
REMARK    2  A    between atoms: N1_2  and  S1_19 
REMARK    3  A    between atoms: C2_3  and  C3_4 
REMARK    4  A    between atoms: C3_4  and  C4_5 
REMARK    5  A    between atoms: C4_5  and  N2_6 
REMARK       I    between atoms: N2_6  and  C5_8 
REMARK    6  A    between atoms: C5_8  and  C6_10 
REMARK    7  A    between atoms: S1_19  and  C10_22 
ROOT
HETATM    1  C3  UNL     1      12.147  64.517   0.963  1.00  0.00     0.040 C 
ENDROOT
BRANCH   1   2
HETATM    2  C2  UNL     1      12.513  64.112   2.369  1.00  0.00     0.136 C 
BRANCH   2   3
HETATM    3  N1  UNL     1      13.145  65.134   3.127  1.00  0.00    -0.310 N 
HETATM    4  C1  UNL     1      12.279  66.070   3.743  1.00  0.00     0.163 C 
BRANCH   3   5
HETATM    5  S1  UNL     1      14.516  64.706   4.006  1.00  0.00     0.278 S 
HETATM    6  O2  UNL     1      14.913  63.294   3.757  1.00  0.00    -0.199 OA
HETATM    7  O3  UNL     1      15.666  65.556   3.466  1.00  0.00    -0.199 OA
BRANCH   5   8
HETATM    8  C10 UNL     1      14.418  65.055   5.707  1.00  0.00     0.181 A 
HETATM    9  C11 UNL     1      15.051  64.387   6.733  1.00  0.00     0.153 A 
HETATM   10  N4  UNL     1      14.721  64.960   7.910  1.00  0.00    -0.295 N 
HETATM   11  N5  UNL     1      13.909  65.949   7.602  1.00  0.00    -0.242 N 
ATOM     12  H4  UNL     1      15.035  64.685   8.841  1.00  0.00     0.187 HD
HETATM   13  N6  UNL     1      13.710  66.031   6.303  1.00  0.00    -0.273 N 
ATOM     14  H5  UNL     1      13.485  66.576   8.286  1.00  0.00     0.208 HD
ATOM     15  H6  UNL     1      13.120  66.716   5.831  1.00  0.00     0.189 HD
ENDBRANCH   5   8
ENDBRANCH   3   5
ENDBRANCH   2   3
ENDBRANCH   1   2
BRANCH   1  16
HETATM   16  C4  UNL     1      10.687  64.663   0.742  1.00  0.00     0.124 C 
BRANCH  16  17
HETATM   17  N2  UNL     1       9.843  63.699   1.381  1.00  0.00    -0.356 N 
HETATM   18  C5  UNL     1       8.931  62.887   0.680  1.00  0.00     0.270 C 
HETATM   19  O1  UNL     1       8.867  63.036  -0.598  1.00  0.00    -0.266 OA
ATOM     20  H2  UNL     1       9.905  63.597   2.394  1.00  0.00     0.162 HD
BRANCH  18  21
HETATM   21  C6  UNL     1       8.046  61.888   1.238  1.00  0.00     0.125 A 
HETATM   22  N3  UNL     1       8.455  60.822   1.985  1.00  0.00    -0.343 N 
HETATM   23  C7  UNL     1       7.431  60.071   2.365  1.00  0.00     0.099 A 
ATOM     24  H3  UNL     1       9.428  60.628   2.222  1.00  0.00     0.167 HD
HETATM   25 BR1  UNL     1       7.472  58.467   3.425  1.00  0.00    -0.030 Br
HETATM   26  C8  UNL     1       6.274  60.616   1.875  1.00  0.00     0.069 A 
HETATM   27 BR2  UNL     1       4.483  60.015   2.071  1.00  0.00    -0.046 Br
HETATM   28  C9  UNL     1       6.686  61.747   1.178  1.00  0.00     0.086 A 
HETATM   29 CL1  UNL     1       5.574  62.811   0.354  1.00  0.00    -0.080 Cl
ENDBRANCH  18  21
ENDBRANCH  16  17
ENDBRANCH   1  16
TORSDOF 7
ENDMDL
MODEL 3
REMARK VINA RESULT: -7.852290618      1.899      2.190
REMARK  7 active torsions:
REMARK  status: ('A' for Active; 'I' for Inactive)
REMARK    1  A    between atoms: N1_2  and  C2_3 
REMARK    2  A    between atoms: N1_2  and  S1_19 
REMARK    3  A    between atoms: C2_3  and  C3_4 
REMARK    4  A    between atoms: C3_4  and  C4_5 
REMARK    5  A    between atoms: C4_5  and  N2_6 
REMARK       I    between atoms: N2_6  and  C5_8 
REMARK    6  A    between atoms: C5_8  and  C6_10 
REMARK    7  A    between atoms: S1_19  and  C10_22 
ROOT
HETATM    1  C3  UNL     1      10.000  64.976   2.194  1.00  0.00     0.040 C 
ENDROOT
BRANCH   1   2
HETATM    2  C2  UNL     1      11.128  64.827   3.185  1.00  0.00     0.136 C 
BRANCH   2   3
HETATM    3  N1  UNL     1      12.254  64.117   2.689  1.00  0.00    -0.310 N 
HETATM    4  C1  UNL     1      12.144  63.633   1.362  1.00  0.00     0.163 C 
BRANCH   3   5
HETATM    5  S1  UNL     1      13.777  64.667   3.150  1.00  0.00     0.278 S 
HETATM    6  O2  UNL     1      14.854  63.736   2.717  1.00  0.00    -0.199 OA
HETATM    7  O3  UNL     1      14.026  65.966   2.383  1.00  0.00    -0.199 OA
BRANCH   5   8
HETATM    8  C10 UNL     1      13.916  65.069   4.837  1.00  0.00     0.181 A 
HETATM    9  C11 UNL     1      14.861  64.610   5.727  1.00  0.00     0.153 A 
HETATM   10  N4  UNL     1      14.632  65.153   6.943  1.00  0.00    -0.295 N 
HETATM   11  N5  UNL     1      13.574  65.920   6.788  1.00  0.00    -0.242 N 
ATOM     12  H4  UNL     1      15.166  65.000   7.799  1.00  0.00     0.187 HD
HETATM   13  N6  UNL     1      13.126  65.891   5.550  1.00  0.00    -0.273 N 
ATOM     14  H5  UNL     1      13.151  66.470   7.536  1.00  0.00     0.208 HD
ATOM     15  H6  UNL     1      12.319  66.403   5.194  1.00  0.00     0.189 HD
ENDBRANCH   5   8
ENDBRANCH   3   5
ENDBRANCH   2   3
ENDBRANCH   1   2
BRANCH   1  16
HETATM   16  C4  UNL     1       8.672  64.594   2.735  1.00  0.00     0.124 C 
BRANCH  16  17
HETATM   17  N2  UNL     1       8.264  63.237   2.534  1.00  0.00    -0.356 N 
HETATM   18  C5  UNL     1       7.287  62.600   3.324  1.00  0.00     0.270 C 
HETATM   19  O1  UNL     1       6.750  63.290   4.270  1.00  0.00    -0.266 OA
ATOM     20  H2  UNL     1       8.702  62.705   1.783  1.00  0.00     0.162 HD
BRANCH  18  21
HETATM   21  C6  UNL     1       6.810  61.240   3.192  1.00  0.00     0.125 A 
HETATM   22  N3  UNL     1       7.445  60.145   3.699  1.00  0.00    -0.343 N 
HETATM   23  C7  UNL     1       6.784  59.029   3.428  1.00  0.00     0.099 A 
ATOM     24  H3  UNL     1       8.320  60.181   4.222  1.00  0.00     0.167 HD
HETATM   25 BR1  UNL     1       7.254  57.229   3.917  1.00  0.00    -0.030 Br
HETATM   26  C8  UNL     1       5.658  59.342   2.715  1.00  0.00     0.069 A 
HETATM   27 BR2  UNL     1       4.307  58.193   2.033  1.00  0.00    -0.046 Br
HETATM   28  C9  UNL     1       5.699  60.725   2.581  1.00  0.00     0.086 A 
HETATM   29 CL1  UNL     1       4.470  61.634   1.739  1.00  0.00    -0.080 Cl
ENDBRANCH  18  21
ENDBRANCH  16  17
ENDBRANCH   1  16
TORSDOF 7
ENDMDL
MODEL 4
REMARK VINA RESULT: -7.849969523      1.717      2.045
REMARK  7 active torsions:
REMARK  status: ('A' for Active; 'I' for Inactive)
REMARK    1  A    between atoms: N1_2  and  C2_3 
REMARK    2  A    between atoms: N1_2  and  S1_19 
REMARK    3  A    between atoms: C2_3  and  C3_4 
REMARK    4  A    between atoms: C3_4  and  C4_5 
REMARK    5  A    between atoms: C4_5  and  N2_6 
REMARK       I    between atoms: N2_6  and  C5_8 
REMARK    6  A    between atoms: C5_8  and  C6_10 
REMARK    7  A    between atoms: S1_19  and  C10_22 
ROOT
HETATM    1  C3  UNL     1      10.450  63.394  -0.265  1.00  0.00     0.040 C 
ENDROOT
BRANCH   1   2
HETATM    2  C2  UNL     1      11.395  63.073   0.866  1.00  0.00     0.136 C 
BRANCH   2   3
HETATM    3  N1  UNL     1      12.268  64.136   1.221  1.00  0.00    -0.310 N 
HETATM    4  C1  UNL     1      12.749  64.924   0.147  1.00  0.00     0.163 C 
BRANCH   3   5
HETATM    5  S1  UNL     1      11.939  64.959   2.652  1.00  0.00     0.278 S 
HETATM    6  O2  UNL     1      11.371  66.310   2.393  1.00  0.00    -0.199 OA
HETATM    7  O3  UNL     1      10.832  64.180   3.362  1.00  0.00    -0.199 OA
BRANCH   5   8
HETATM    8  C10 UNL     1      13.273  65.026   3.766  1.00  0.00     0.181 A 
HETATM    9  C11 UNL     1      14.566  64.607   3.542  1.00  0.00     0.153 A 
HETATM   10  N4  UNL     1      15.305  64.826   4.652  1.00  0.00    -0.295 N 
HETATM   11  N5  UNL     1      14.477  65.363   5.522  1.00  0.00    -0.242 N 
ATOM     12  H4  UNL     1      16.295  64.619   4.786  1.00  0.00     0.187 HD
HETATM   13  N6  UNL     1      13.264  65.494   5.027  1.00  0.00    -0.273 N 
ATOM     14  H5  UNL     1      14.742  65.644   6.467  1.00  0.00     0.208 HD
ATOM     15  H6  UNL     1      12.458  65.883   5.514  1.00  0.00     0.189 HD
ENDBRANCH   5   8
ENDBRANCH   3   5
ENDBRANCH   2   3
ENDBRANCH   1   2
BRANCH   1  16
HETATM   16  C4  UNL     1       9.028  63.480   0.147  1.00  0.00     0.124 C 
BRANCH  16  17
HETATM   17  N2  UNL     1       8.353  62.240   0.384  1.00  0.00    -0.356 N 
HETATM   18  C5  UNL     1       7.999  61.788   1.670  1.00  0.00     0.270 C 
HETATM   19  O1  UNL     1       8.312  62.540   2.668  1.00  0.00    -0.266 OA
ATOM     20  H2  UNL     1       8.116  61.656  -0.417  1.00  0.00     0.162 HD
BRANCH  18  21
HETATM   21  C6  UNL     1       7.315  60.558   2.004  1.00  0.00     0.125 A 
HETATM   22  N3  UNL     1       7.815  59.594   2.830  1.00  0.00    -0.343 N 
HETATM   23  C7  UNL     1       6.975  58.576   2.956  1.00  0.00     0.099 A 
ATOM     24  H3  UNL     1       8.722  59.650   3.292  1.00  0.00     0.167 HD
HETATM   25 BR1  UNL     1       7.205  56.978   4.000  1.00  0.00    -0.030 Br
HETATM   26  C8  UNL     1       5.859  58.826   2.204  1.00  0.00     0.069 A 
HETATM   27 BR2  UNL     1       4.303  57.761   1.968  1.00  0.00    -0.046 Br
HETATM   28  C9  UNL     1       6.097  60.066   1.621  1.00  0.00     0.086 A 
HETATM   29 CL1  UNL     1       4.959  60.847   0.553  1.00  0.00    -0.080 Cl
ENDBRANCH  18  21
ENDBRANCH  16  17
ENDBRANCH   1  16
TORSDOF 7
ENDMDL
MODEL 5
REMARK VINA RESULT: -7.821864687      1.673      2.099
REMARK  7 active torsions:
REMARK  status: ('A' for Active; 'I' for Inactive)
REMARK    1  A    between atoms: N1_2  and  C2_3 
REMARK    2  A    between atoms: N1_2  and  S1_19 
REMARK    3  A    between atoms: C2_3  and  C3_4 
REMARK    4  A    between atoms: C3_4  and  C4_5 
REMARK    5  A    between atoms: C4_5  and  N2_6 
REMARK       I    between atoms: N2_6  and  C5_8 
REMARK    6  A    between atoms: C5_8  and  C6_10 
REMARK    7  A    between atoms: S1_19  and  C10_22 
ROOT
HETATM    1  C3  UNL     1       8.877  66.047   1.701  1.00  0.00     0.040 C 
ENDROOT
BRANCH   1   2
HETATM    2  C2  UNL     1       9.626  65.931   3.005  1.00  0.00     0.136 C 
BRANCH   2   3
HETATM    3  N1  UNL     1      10.969  66.394   2.954  1.00  0.00    -0.310 N 
HETATM    4  C1  UNL     1      11.213  67.651   3.559  1.00  0.00     0.163 C 
BRANCH   3   5
HETATM    5  S1  UNL     1      12.188  65.244   3.120  1.00  0.00     0.278 S 
HETATM    6  O2  UNL     1      11.672  63.861   2.932  1.00  0.00    -0.199 OA
HETATM    7  O3  UNL     1      13.169  65.475   1.971  1.00  0.00    -0.199 OA
BRANCH   5   8
HETATM    8  C10 UNL     1      13.117  65.389   4.583  1.00  0.00     0.181 A 
HETATM    9  C11 UNL     1      14.431  65.019   4.775  1.00  0.00     0.153 A 
HETATM   10  N4  UNL     1      14.790  65.292   6.048  1.00  0.00    -0.295 N 
HETATM   11  N5  UNL     1      13.720  65.813   6.609  1.00  0.00    -0.242 N 
ATOM     12  H4  UNL     1      15.699  65.128   6.483  1.00  0.00     0.187 HD
HETATM   13  N6  UNL     1      12.711  65.883   5.766  1.00  0.00    -0.273 N 
ATOM     14  H5  UNL     1      13.676  66.124   7.580  1.00  0.00     0.208 HD
ATOM     15  H6  UNL     1      11.782  66.249   5.973  1.00  0.00     0.189 HD
ENDBRANCH   5   8
ENDBRANCH   3   5
ENDBRANCH   2   3
ENDBRANCH   1   2
BRANCH   1  16
HETATM   16  C4  UNL     1       8.933  64.822   0.866  1.00  0.00     0.124 C 
BRANCH  16  17
HETATM   17  N2  UNL     1       8.083  63.739   1.259  1.00  0.00    -0.356 N 
HETATM   18  C5  UNL     1       8.492  62.392   1.242  1.00  0.00     0.270 C 
HETATM   19  O1  UNL     1       9.692  62.144   0.846  1.00  0.00    -0.266 OA
ATOM     20  H2  UNL     1       7.135  63.955   1.566  1.00  0.00     0.162 HD
BRANCH  18  21
HETATM   21  C6  UNL     1       7.707  61.238   1.624  1.00  0.00     0.125 A 
HETATM   22  N3  UNL     1       8.123  60.273   2.493  1.00  0.00    -0.343 N 
HETATM   23  C7  UNL     1       7.201  59.335   2.658  1.00  0.00     0.099 A 
ATOM     24  H3  UNL     1       9.030  60.274   2.959  1.00  0.00     0.167 HD
HETATM   25 BR1  UNL     1       7.295  57.770   3.771  1.00  0.00    -0.030 Br
HETATM   26  C8  UNL     1       6.112  59.643   1.888  1.00  0.00     0.069 A 
HETATM   27 BR2  UNL     1       4.474  58.701   1.689  1.00  0.00    -0.046 Br
HETATM   28  C9  UNL     1       6.453  60.832   1.254  1.00  0.00     0.086 A 
HETATM   29 CL1  UNL     1       5.387  61.658   0.146  1.00  0.00    -0.080 Cl
ENDBRANCH  18  21
ENDBRANCH  16  17
ENDBRANCH   1  16
TORSDOF 7
ENDMDL
