MODEL 1
REMARK VINA RESULT: -8.248737374      0.000      0.000
REMARK  6 active torsions:
REMARK  status: ('A' for Active; 'I' for Inactive)
REMARK    1  A    between atoms: C6_7  and  C7_8 
REMARK    2  A    between atoms: C9_12  and  N1_13 
REMARK       I    between atoms: N1_13  and  C10_15 
REMARK    3  A    between atoms: C10_15  and  C11_17 
REMARK    4  A    between atoms: C15_21  and  C16_22 
REMARK    5  A    between atoms: C16_22  and  O4_23 
REMARK       I    between atoms: N2_25  and  C17_26 
REMARK    6  A    between atoms: C17_26  and  C18_28 
ROOT
HETATM    1  C11 UNL     1       9.492  64.814   0.918  1.00  0.00     0.183 C 
HETATM    2  C12 UNL     1      10.893  64.286   0.824  1.00  0.00     0.016 C 
HETATM    3  C13 UNL     1      11.168  63.363  -0.311  1.00  0.00     0.012 C 
HETATM    4  C14 UNL     1      10.991  63.596   2.175  1.00  0.00     0.034 C 
HETATM    5  C15 UNL     1      10.419  64.724   3.066  1.00  0.00     0.112 C 
HETATM    6  N2  UNL     1       9.483  65.416   2.248  1.00  0.00    -0.331 N 
HETATM    7  C17 UNL     1       8.629  66.493   2.562  1.00  0.00     0.226 C 
HETATM    8  O5  UNL     1       7.852  66.999   1.682  1.00  0.00    -0.273 OA
ENDROOT
BRANCH   1   9
HETATM    9  C10 UNL     1       8.467  63.726   0.876  1.00  0.00     0.243 C 
HETATM   10  N1  UNL     1       7.452  63.647   1.833  1.00  0.00    -0.323 N 
ATOM     11  H1  UNL     1       7.447  64.364   2.557  1.00  0.00     0.165 HD
HETATM   12  O3  UNL     1       8.543  62.882  -0.043  1.00  0.00    -0.271 OA
BRANCH  10  13
HETATM   13  C9  UNL     1       6.420  62.660   1.900  1.00  0.00     0.247 C 
HETATM   14  C4  UNL     1       5.622  62.868   3.175  1.00  0.00     0.182 C 
HETATM   15  O1  UNL     1       6.423  62.752   4.297  1.00  0.00    -0.379 OA
HETATM   16  C5  UNL     1       4.421  61.978   3.188  1.00  0.00     0.071 C 
HETATM   17  C3  UNL     1       6.888  61.464   4.389  1.00  0.00     0.201 C 
HETATM   18  C2  UNL     1       7.624  60.994   3.151  1.00  0.00     0.208 C 
HETATM   19  C1  UNL     1       7.665  59.463   3.246  1.00  0.00     0.042 C 
HETATM   20  N3  UNL     1       6.933  61.318   1.942  1.00  0.00    -0.038 N 
ATOM     21  H32 UNL     1       7.525  61.136   1.132  1.00  0.00     0.281 HD
ATOM     22  H31 UNL     1       6.187  60.645   1.765  1.00  0.00     0.281 HD
HETATM   23  C6  UNL     1       3.589  62.344   1.953  1.00  0.00     0.152 C 
HETATM   24  O2  UNL     1       4.362  61.971   0.858  1.00  0.00    -0.379 OA
HETATM   25  C8  UNL     1       5.449  62.801   0.749  1.00  0.00     0.232 C 
BRANCH  23  26
HETATM   26  C7  UNL     1       2.291  61.581   2.037  1.00  0.00     0.254 C 
HETATM   27  F1  UNL     1       2.598  60.354   2.635  1.00  0.00    -0.253 F 
ENDBRANCH  23  26
ENDBRANCH  10  13
ENDBRANCH   1   9
BRANCH   5  28
HETATM   28  C16 UNL     1      11.611  65.499   3.521  1.00  0.00     0.189 C 
BRANCH  28  29
HETATM   29  O4  UNL     1      11.863  65.205   4.877  1.00  0.00    -0.399 OA
ATOM     30  H4  UNL     1      11.990  66.018   5.353  1.00  0.00     0.209 HD
ENDBRANCH  28  29
ENDBRANCH   5  28
BRANCH   7  31
HETATM   31  C18 UNL     1       8.557  67.110   3.890  1.00  0.00     0.089 C 
HETATM   32  C19 UNL     1       7.269  66.571   4.529  1.00  0.00     0.052 C 
HETATM   33  C20 UNL     1       6.212  67.540   4.129  1.00  0.00     0.175 C 
HETATM   34  F2  UNL     1       5.199  67.579   5.089  1.00  0.00    -0.249 F 
HETATM   35  C21 UNL     1       6.922  68.855   4.064  1.00  0.00     0.025 C 
HETATM   36  C22 UNL     1       6.569  69.594   5.344  1.00  0.00     0.014 C 
HETATM   37  C23 UNL     1       8.359  68.583   3.911  1.00  0.00    -0.022 C 
HETATM   38  C24 UNL     1       9.224  69.276   4.939  1.00  0.00     0.011 C 
HETATM   39  C27 UNL     1       8.845  69.231   2.614  1.00  0.00     0.011 C 
HETATM   40  C25 UNL     1       9.613  70.606   4.360  1.00  0.00     0.001 C 
HETATM   41  C26 UNL     1       8.886  70.712   3.032  1.00  0.00     0.001 C 
ENDBRANCH   7  31
TORSDOF 6
ENDMDL
MODEL 2
REMARK VINA RESULT: -8.184338221      1.521      2.618
REMARK  6 active torsions:
REMARK  status: ('A' for Active; 'I' for Inactive)
REMARK    1  A    between atoms: C6_7  and  C7_8 
REMARK    2  A    between atoms: C9_12  and  N1_13 
REMARK       I    between atoms: N1_13  and  C10_15 
REMARK    3  A    between atoms: C10_15  and  C11_17 
REMARK    4  A    between atoms: C15_21  and  C16_22 
REMARK    5  A    between atoms: C16_22  and  O4_23 
REMARK       I    between atoms: N2_25  and  C17_26 
REMARK    6  A    between atoms: C17_26  and  C18_28 
ROOT
HETATM    1  C11 UNL     1       9.100  64.334   1.436  1.00  0.00     0.183 C 
HETATM    2  C12 UNL     1      10.530  64.231   0.993  1.00  0.00     0.016 C 
HETATM    3  C13 UNL     1      10.817  63.217  -0.058  1.00  0.00     0.012 C 
HETATM    4  C14 UNL     1      11.180  63.892   2.325  1.00  0.00     0.034 C 
HETATM    5  C15 UNL     1      10.494  64.961   3.209  1.00  0.00     0.112 C 
HETATM    6  N2  UNL     1       9.211  65.167   2.630  1.00  0.00    -0.331 N 
HETATM    7  C17 UNL     1       8.147  65.987   3.056  1.00  0.00     0.226 C 
HETATM    8  O5  UNL     1       7.056  66.052   2.393  1.00  0.00    -0.273 OA
ENDROOT
BRANCH   1   9
HETATM    9  C10 UNL     1       8.525  63.009   1.824  1.00  0.00     0.243 C 
HETATM   10  N1  UNL     1       7.286  62.915   2.462  1.00  0.00    -0.323 N 
ATOM     11  H1  UNL     1       6.797  63.790   2.648  1.00  0.00     0.165 HD
HETATM   12  O3  UNL     1       9.188  61.982   1.563  1.00  0.00    -0.271 OA
BRANCH  10  13
HETATM   13  C9  UNL     1       6.634  61.714   2.882  1.00  0.00     0.247 C 
HETATM   14  C4  UNL     1       6.601  60.739   1.718  1.00  0.00     0.182 C 
HETATM   15  O1  UNL     1       5.915  61.265   0.638  1.00  0.00    -0.379 OA
HETATM   16  C5  UNL     1       6.099  59.406   2.170  1.00  0.00     0.071 C 
HETATM   17  C3  UNL     1       4.597  61.437   0.979  1.00  0.00     0.201 C 
HETATM   18  C2  UNL     1       4.396  62.292   2.215  1.00  0.00     0.208 C 
HETATM   19  C1  UNL     1       2.965  62.007   2.691  1.00  0.00     0.042 C 
HETATM   20  N3  UNL     1       5.272  61.930   3.285  1.00  0.00    -0.038 N 
ATOM     21  H32 UNL     1       5.226  62.621   4.034  1.00  0.00     0.281 HD
ATOM     22  H31 UNL     1       4.912  61.114   3.781  1.00  0.00     0.281 HD
HETATM   23  C6  UNL     1       7.057  58.922   3.265  1.00  0.00     0.152 C 
HETATM   24  O2  UNL     1       6.887  59.804   4.327  1.00  0.00    -0.379 OA
HETATM   25  C8  UNL     1       7.396  61.035   3.998  1.00  0.00     0.232 C 
BRANCH  23  26
HETATM   26  C7  UNL     1       6.670  57.507   3.614  1.00  0.00     0.254 C 
HETATM   27  F1  UNL     1       7.070  57.312   4.941  1.00  0.00    -0.253 F 
ENDBRANCH  23  26
ENDBRANCH  10  13
ENDBRANCH   1   9
BRANCH   5  28
HETATM   28  C16 UNL     1      11.426  66.127   3.198  1.00  0.00     0.189 C 
BRANCH  28  29
HETATM   29  O4  UNL     1      11.697  66.513   4.528  1.00  0.00    -0.399 OA
ATOM     30  H4  UNL     1      11.195  67.293   4.733  1.00  0.00     0.209 HD
ENDBRANCH  28  29
ENDBRANCH   5  28
BRANCH   7  31
HETATM   31  C18 UNL     1       8.194  66.814   4.266  1.00  0.00     0.089 C 
HETATM   32  C19 UNL     1       6.870  66.556   4.998  1.00  0.00     0.052 C 
HETATM   33  C20 UNL     1       5.930  67.575   4.456  1.00  0.00     0.175 C 
HETATM   34  F2  UNL     1       4.961  67.899   5.407  1.00  0.00    -0.249 F 
HETATM   35  C21 UNL     1       6.797  68.760   4.168  1.00  0.00     0.025 C 
HETATM   36  C22 UNL     1       6.581  69.735   5.313  1.00  0.00     0.014 C 
HETATM   37  C23 UNL     1       8.183  68.284   4.047  1.00  0.00    -0.022 C 
HETATM   38  C24 UNL     1       9.160  69.017   4.939  1.00  0.00     0.011 C 
HETATM   39  C27 UNL     1       8.705  68.646   2.656  1.00  0.00     0.011 C 
HETATM   40  C25 UNL     1       9.695  70.174   4.145  1.00  0.00     0.001 C 
HETATM   41  C26 UNL     1       8.945  70.157   2.826  1.00  0.00     0.001 C 
ENDBRANCH   7  31
TORSDOF 6
ENDMDL
MODEL 3
REMARK VINA RESULT: -7.843613875      2.620      8.477
REMARK  6 active torsions:
REMARK  status: ('A' for Active; 'I' for Inactive)
REMARK    1  A    between atoms: C6_7  and  C7_8 
REMARK    2  A    between atoms: C9_12  and  N1_13 
REMARK       I    between atoms: N1_13  and  C10_15 
REMARK    3  A    between atoms: C10_15  and  C11_17 
REMARK    4  A    between atoms: C15_21  and  C16_22 
REMARK    5  A    between atoms: C16_22  and  O4_23 
REMARK       I    between atoms: N2_25  and  C17_26 
REMARK    6  A    between atoms: C17_26  and  C18_28 
ROOT
HETATM    1  C11 UNL     1       7.458  62.435   1.575  1.00  0.00     0.183 C 
HETATM    2  C12 UNL     1       6.590  63.222   0.639  1.00  0.00     0.016 C 
HETATM    3  C13 UNL     1       7.237  64.383  -0.032  1.00  0.00     0.012 C 
HETATM    4  C14 UNL     1       5.495  63.642   1.606  1.00  0.00     0.034 C 
HETATM    5  C15 UNL     1       5.232  62.276   2.283  1.00  0.00     0.112 C 
HETATM    6  N2  UNL     1       6.481  61.594   2.261  1.00  0.00    -0.331 N 
HETATM    7  C17 UNL     1       6.835  60.337   2.791  1.00  0.00     0.226 C 
HETATM    8  O5  UNL     1       8.021  59.877   2.664  1.00  0.00    -0.273 OA
ENDROOT
BRANCH   1   9
HETATM    9  C10 UNL     1       8.141  63.300   2.586  1.00  0.00     0.243 C 
HETATM   10  N1  UNL     1       8.500  64.617   2.289  1.00  0.00    -0.323 N 
ATOM     11  H1  UNL     1       8.274  64.956   1.355  1.00  0.00     0.165 HD
HETATM   12  O3  UNL     1       8.385  62.810   3.710  1.00  0.00    -0.271 OA
BRANCH  10  13
HETATM   13  C9  UNL     1       9.154  65.539   3.165  1.00  0.00     0.247 C 
HETATM   14  C4  UNL     1       9.679  66.706   2.349  1.00  0.00     0.182 C 
HETATM   15  O1  UNL     1      10.582  66.286   1.389  1.00  0.00    -0.379 OA
HETATM   16  C5  UNL     1      10.200  67.779   3.250  1.00  0.00     0.071 C 
HETATM   17  C3  UNL     1      11.694  65.773   2.009  1.00  0.00     0.201 C 
HETATM   18  C2  UNL     1      11.384  64.655   2.984  1.00  0.00     0.208 C 
HETATM   19  C1  UNL     1      12.625  64.526   3.878  1.00  0.00     0.042 C 
HETATM   20  N3  UNL     1      10.282  64.961   3.842  1.00  0.00    -0.038 N 
ATOM     21  H32 UNL     1       9.999  64.134   4.368  1.00  0.00     0.281 HD
ATOM     22  H31 UNL     1      10.583  65.560   4.611  1.00  0.00     0.281 HD
HETATM   23  C6  UNL     1       9.030  68.213   4.141  1.00  0.00     0.152 C 
HETATM   24  O2  UNL     1       8.740  67.112   4.941  1.00  0.00    -0.379 OA
HETATM   25  C8  UNL     1       8.189  66.113   4.179  1.00  0.00     0.232 C 
BRANCH  23  26
HETATM   26  C7  UNL     1       9.485  69.409   4.938  1.00  0.00     0.254 C 
HETATM   27  F1  UNL     1      10.379  70.106   4.118  1.00  0.00    -0.253 F 
ENDBRANCH  23  26
ENDBRANCH  10  13
ENDBRANCH   1   9
BRANCH   5  28
HETATM   28  C16 UNL     1       4.122  61.662   1.496  1.00  0.00     0.189 C 
BRANCH  28  29
HETATM   29  O4  UNL     1       2.980  61.552   2.316  1.00  0.00    -0.399 OA
ATOM     30  H4  UNL     1       2.464  62.346   2.239  1.00  0.00     0.209 HD
ENDBRANCH  28  29
ENDBRANCH   5  28
BRANCH   7  31
HETATM   31  C18 UNL     1       5.902  59.471   3.518  1.00  0.00     0.089 C 
HETATM   32  C19 UNL     1       6.759  58.686   4.521  1.00  0.00     0.052 C 
HETATM   33  C20 UNL     1       7.174  57.459   3.788  1.00  0.00     0.175 C 
HETATM   34  F2  UNL     1       7.377  56.403   4.680  1.00  0.00    -0.249 F 
HETATM   35  C21 UNL     1       6.021  57.163   2.881  1.00  0.00     0.025 C 
HETATM   36  C22 UNL     1       5.240  56.037   3.537  1.00  0.00     0.014 C 
HETATM   37  C23 UNL     1       5.250  58.404   2.715  1.00  0.00    -0.022 C 
HETATM   38  C24 UNL     1       3.777  58.253   3.027  1.00  0.00     0.011 C 
HETATM   39  C27 UNL     1       5.214  58.763   1.229  1.00  0.00     0.011 C 
HETATM   40  C25 UNL     1       3.093  57.886   1.742  1.00  0.00     0.001 C 
HETATM   41  C26 UNL     1       4.195  57.732   0.710  1.00  0.00     0.001 C 
ENDBRANCH   7  31
TORSDOF 6
ENDMDL
MODEL 4
REMARK VINA RESULT: -7.782133155      2.204      7.198
REMARK  6 active torsions:
REMARK  status: ('A' for Active; 'I' for Inactive)
REMARK    1  A    between atoms: C6_7  and  C7_8 
REMARK    2  A    between atoms: C9_12  and  N1_13 
REMARK       I    between atoms: N1_13  and  C10_15 
REMARK    3  A    between atoms: C10_15  and  C11_17 
REMARK    4  A    between atoms: C15_21  and  C16_22 
REMARK    5  A    between atoms: C16_22  and  O4_23 
REMARK       I    between atoms: N2_25  and  C17_26 
REMARK    6  A    between atoms: C17_26  and  C18_28 
ROOT
HETATM    1  C11 UNL     1       9.552  65.063   3.380  1.00  0.00     0.183 C 
HETATM    2  C12 UNL     1      11.010  64.849   3.100  1.00  0.00     0.016 C 
HETATM    3  C13 UNL     1      11.932  65.911   3.588  1.00  0.00     0.012 C 
HETATM    4  C14 UNL     1      10.963  64.768   1.582  1.00  0.00     0.034 C 
HETATM    5  C15 UNL     1       9.774  63.791   1.428  1.00  0.00     0.112 C 
HETATM    6  N2  UNL     1       8.929  64.041   2.544  1.00  0.00    -0.331 N 
HETATM    7  C17 UNL     1       7.680  63.479   2.878  1.00  0.00     0.226 C 
HETATM    8  O5  UNL     1       7.063  63.825   3.943  1.00  0.00    -0.273 OA
ENDROOT
BRANCH   1   9
HETATM    9  C10 UNL     1       9.075  66.408   2.933  1.00  0.00     0.243 C 
HETATM   10  N1  UNL     1       7.768  66.834   3.181  1.00  0.00    -0.323 N 
ATOM     11  H1  UNL     1       7.161  66.184   3.680  1.00  0.00     0.165 HD
HETATM   12  O3  UNL     1       9.881  67.145   2.324  1.00  0.00    -0.271 OA
BRANCH  10  13
HETATM   13  C9  UNL     1       7.196  68.089   2.805  1.00  0.00     0.247 C 
HETATM   14  C4  UNL     1       8.035  69.208   3.396  1.00  0.00     0.182 C 
HETATM   15  O1  UNL     1       8.077  69.133   4.777  1.00  0.00    -0.379 OA
HETATM   16  C5  UNL     1       7.580  70.531   2.870  1.00  0.00     0.071 C 
HETATM   17  C3  UNL     1       6.819  69.345   5.280  1.00  0.00     0.201 C 
HETATM   18  C2  UNL     1       5.774  68.400   4.721  1.00  0.00     0.208 C 
HETATM   19  C1  UNL     1       4.418  69.049   5.028  1.00  0.00     0.042 C 
HETATM   20  N3  UNL     1       5.858  68.263   3.300  1.00  0.00    -0.038 N 
ATOM     21  H32 UNL     1       5.256  67.505   2.978  1.00  0.00     0.281 HD
ATOM     22  H31 UNL     1       5.406  69.051   2.837  1.00  0.00     0.281 HD
HETATM   23  C6  UNL     1       7.732  70.476   1.346  1.00  0.00     0.152 C 
HETATM   24  O2  UNL     1       6.813  69.527   0.912  1.00  0.00    -0.379 OA
HETATM   25  C8  UNL     1       7.214  68.274   1.304  1.00  0.00     0.232 C 
BRANCH  23  26
HETATM   26  C7  UNL     1       7.443  71.855   0.809  1.00  0.00     0.254 C 
HETATM   27  F1  UNL     1       8.513  72.662   1.213  1.00  0.00    -0.253 F 
ENDBRANCH  23  26
ENDBRANCH  10  13
ENDBRANCH   1   9
BRANCH   5  28
HETATM   28  C16 UNL     1      10.396  62.436   1.351  1.00  0.00     0.189 C 
BRANCH  28  29
HETATM   29  O4  UNL     1      11.561  62.506   0.559  1.00  0.00    -0.399 OA
ATOM     30  H4  UNL     1      11.389  62.101  -0.283  1.00  0.00     0.209 HD
ENDBRANCH  28  29
ENDBRANCH   5  28
BRANCH   7  31
HETATM   31  C18 UNL     1       6.995  62.477   2.055  1.00  0.00     0.089 C 
HETATM   32  C19 UNL     1       5.719  63.160   1.545  1.00  0.00     0.052 C 
HETATM   33  C20 UNL     1       4.691  62.868   2.581  1.00  0.00     0.175 C 
HETATM   34  F2  UNL     1       3.417  62.838   2.009  1.00  0.00    -0.249 F 
HETATM   35  C21 UNL     1       5.064  61.516   3.100  1.00  0.00     0.025 C 
HETATM   36  C22 UNL     1       4.116  60.529   2.439  1.00  0.00     0.014 C 
HETATM   37  C23 UNL     1       6.480  61.286   2.779  1.00  0.00    -0.022 C 
HETATM   38  C24 UNL     1       6.736  59.993   2.038  1.00  0.00     0.011 C 
HETATM   39  C27 UNL     1       7.245  61.049   4.082  1.00  0.00     0.011 C 
HETATM   40  C25 UNL     1       7.001  58.939   3.073  1.00  0.00     0.001 C 
HETATM   41  C26 UNL     1       6.801  59.614   4.417  1.00  0.00     0.001 C 
ENDBRANCH   7  31
TORSDOF 6
ENDMDL
MODEL 5
REMARK VINA RESULT: -7.752862858      2.755      7.762
REMARK  6 active torsions:
REMARK  status: ('A' for Active; 'I' for Inactive)
REMARK    1  A    between atoms: C6_7  and  C7_8 
REMARK    2  A    between atoms: C9_12  and  N1_13 
REMARK       I    between atoms: N1_13  and  C10_15 
REMARK    3  A    between atoms: C10_15  and  C11_17 
REMARK    4  A    between atoms: C15_21  and  C16_22 
REMARK    5  A    between atoms: C16_22  and  O4_23 
REMARK       I    between atoms: N2_25  and  C17_26 
REMARK    6  A    between atoms: C17_26  and  C18_28 
ROOT
HETATM    1  C11 UNL     1       7.832  63.908  -0.587  1.00  0.00     0.183 C 
HETATM    2  C12 UNL     1       6.884  64.773  -1.364  1.00  0.00     0.016 C 
HETATM    3  C13 UNL     1       7.496  65.632  -2.415  1.00  0.00     0.012 C 
HETATM    4  C14 UNL     1       6.289  65.581  -0.222  1.00  0.00     0.034 C 
HETATM    5  C15 UNL     1       5.991  64.425   0.762  1.00  0.00     0.112 C 
HETATM    6  N2  UNL     1       6.989  63.443   0.510  1.00  0.00    -0.331 N 
HETATM    7  C17 UNL     1       7.232  62.213   1.154  1.00  0.00     0.226 C 
HETATM    8  O5  UNL     1       8.184  61.447   0.778  1.00  0.00    -0.273 OA
ENDROOT
BRANCH   1   9
HETATM    9  C10 UNL     1       8.978  64.683  -0.019  1.00  0.00     0.243 C 
HETATM   10  N1  UNL     1       9.557  64.332   1.203  1.00  0.00    -0.323 N 
ATOM     11  H1  UNL     1       9.160  63.525   1.684  1.00  0.00     0.165 HD
HETATM   12  O3  UNL     1       9.406  65.661  -0.670  1.00  0.00    -0.271 OA
BRANCH  10  13
HETATM   13  C9  UNL     1      10.650  64.990   1.847  1.00  0.00     0.247 C 
HETATM   14  C4  UNL     1      10.771  64.469   3.268  1.00  0.00     0.182 C 
HETATM   15  O1  UNL     1       9.617  64.706   3.993  1.00  0.00    -0.379 OA
HETATM   16  C5  UNL     1      12.015  64.992   3.910  1.00  0.00     0.071 C 
HETATM   17  C3  UNL     1       9.445  66.060   4.138  1.00  0.00     0.201 C 
HETATM   18  C2  UNL     1       9.421  66.813   2.823  1.00  0.00     0.208 C 
HETATM   19  C1  UNL     1       9.674  68.284   3.181  1.00  0.00     0.042 C 
HETATM   20  N3  UNL     1      10.470  66.413   1.938  1.00  0.00    -0.038 N 
ATOM     21  H32 UNL     1      10.328  66.816   1.011  1.00  0.00     0.281 HD
ATOM     22  H31 UNL     1      11.346  66.869   2.193  1.00  0.00     0.281 HD
HETATM   23  C6  UNL     1      13.190  64.516   3.048  1.00  0.00     0.152 C 
HETATM   24  O2  UNL     1      13.051  65.174   1.830  1.00  0.00    -0.379 OA
HETATM   25  C8  UNL     1      11.961  64.685   1.156  1.00  0.00     0.232 C 
BRANCH  23  26
HETATM   26  C7  UNL     1      14.462  64.885   3.769  1.00  0.00     0.254 C 
HETATM   27  F1  UNL     1      14.942  63.702   4.342  1.00  0.00    -0.253 F 
ENDBRANCH  23  26
ENDBRANCH  10  13
ENDBRANCH   1   9
BRANCH   5  28
HETATM   28  C16 UNL     1       4.580  64.030   0.478  1.00  0.00     0.189 C 
BRANCH  28  29
HETATM   29  O4  UNL     1       3.820  64.147   1.661  1.00  0.00    -0.399 OA
ATOM     30  H4  UNL     1       3.723  65.066   1.880  1.00  0.00     0.209 HD
ENDBRANCH  28  29
ENDBRANCH   5  28
BRANCH   7  31
HETATM   31  C18 UNL     1       6.438  61.717   2.283  1.00  0.00     0.089 C 
HETATM   32  C19 UNL     1       7.447  61.099   3.261  1.00  0.00     0.052 C 
HETATM   33  C20 UNL     1       7.559  59.676   2.842  1.00  0.00     0.175 C 
HETATM   34  F2  UNL     1       7.887  58.870   3.935  1.00  0.00    -0.249 F 
HETATM   35  C21 UNL     1       6.197  59.333   2.329  1.00  0.00     0.025 C 
HETATM   36  C22 UNL     1       5.510  58.548   3.434  1.00  0.00     0.014 C 
HETATM   37  C23 UNL     1       5.518  60.590   1.982  1.00  0.00    -0.022 C 
HETATM   38  C24 UNL     1       4.162  60.751   2.632  1.00  0.00     0.011 C 
HETATM   39  C27 UNL     1       5.145  60.552   0.499  1.00  0.00     0.011 C 
HETATM   40  C25 UNL     1       3.151  60.170   1.686  1.00  0.00     0.001 C 
HETATM   41  C26 UNL     1       3.945  59.589   0.531  1.00  0.00     0.001 C 
ENDBRANCH   7  31
TORSDOF 6
ENDMDL
