MODEL 1
REMARK VINA RESULT: -7.727022342      0.000      0.000
REMARK  7 active torsions:
REMARK  status: ('A' for Active; 'I' for Inactive)
REMARK    1  A    between atoms: C3_3  and  C4_4 
REMARK    2  A    between atoms: C4_4  and  C5_5 
REMARK    3  A    between atoms: C5_5  and  C6_6 
REMARK       I    between atoms: C6_6  and  N1_8 
REMARK    4  A    between atoms: N1_8  and  C7_10 
REMARK    5  A    between atoms: C7_10  and  C9_12 
REMARK       I    between atoms: C9_12  and  N2_14 
REMARK    6  A    between atoms: N2_14  and  C10_16 
REMARK    7  A    between atoms: C10_16  and  C11_17 
REMARK       I    between atoms: C11_17  and  N3_19 
ROOT
HETATM    1  C1  UNL     1       7.444  56.913   4.563  1.00  0.00     0.019 C 
HETATM    2  C2  UNL     1       6.948  57.914   4.135  1.00  0.00    -0.066 C 
HETATM    3  C3  UNL     1       6.345  59.176   3.623  1.00  0.00     0.108 C 
HETATM    4  C21 UNL     1       5.192  58.990   3.036  1.00  0.00     0.189 C 
HETATM    5  F1  UNL     1       4.746  57.676   3.002  1.00  0.00    -0.196 F 
HETATM    6 BR1  UNL     1       4.128  60.281   2.217  1.00  0.00    -0.015 Br
ENDROOT
BRANCH   3   7
HETATM    7  C4  UNL     1       7.054  60.403   3.878  1.00  0.00    -0.098 C 
BRANCH   7   8
HETATM    8  C5  UNL     1       7.632  61.401   4.086  1.00  0.00     0.131 C 
BRANCH   8   9
HETATM    9  C6  UNL     1       7.864  62.560   3.140  1.00  0.00     0.249 C 
HETATM   10  O1  UNL     1       6.918  63.269   2.781  1.00  0.00    -0.268 OA
HETATM   11  N1  UNL     1       9.143  62.846   2.649  1.00  0.00    -0.344 N 
ATOM     12  H1  UNL     1       9.873  62.246   3.034  1.00  0.00     0.163 HD
BRANCH  11  13
HETATM   13  C7  UNL     1       9.624  63.800   1.726  1.00  0.00     0.172 C 
HETATM   14  C8  UNL     1       9.130  63.374   0.299  1.00  0.00     0.042 C 
BRANCH  13  15
HETATM   15  C9  UNL     1       9.125  65.184   1.865  1.00  0.00     0.241 C 
HETATM   16  O2  UNL     1       8.790  65.781   0.818  1.00  0.00    -0.271 OA
HETATM   17  N2  UNL     1       9.068  65.740   3.128  1.00  0.00    -0.341 N 
ATOM     18  H2  UNL     1       9.328  65.126   3.899  1.00  0.00     0.163 HD
BRANCH  17  19
HETATM   19  C10 UNL     1       8.677  67.112   3.496  1.00  0.00     0.116 C 
HETATM   20  C18 UNL     1       9.693  68.075   3.063  1.00  0.00     0.057 C 
HETATM   21  C19 UNL     1      10.498  67.707   4.335  1.00  0.00     0.064 C 
HETATM   22  S2  UNL     1      11.636  66.361   4.099  1.00  0.00    -0.092 SA
HETATM   23  C20 UNL     1       9.144  67.417   4.938  1.00  0.00     0.057 C 
BRANCH  19  24
HETATM   24  C11 UNL     1       7.257  67.316   3.399  1.00  0.00     0.250 C 
HETATM   25  O3  UNL     1       6.871  68.205   2.550  1.00  0.00    -0.270 OA
HETATM   26  N3  UNL     1       6.153  66.702   4.101  1.00  0.00    -0.322 N 
HETATM   27  C12 UNL     1       6.318  65.686   5.099  1.00  0.00     0.202 C 
HETATM   28  C16 UNL     1       4.772  67.119   3.884  1.00  0.00     0.213 C 
HETATM   29  S1  UNL     1       4.613  65.151   5.472  1.00  0.00    -0.137 SA
HETATM   30  C13 UNL     1       3.840  65.970   4.022  1.00  0.00     0.036 C 
HETATM   31  C14 UNL     1       2.454  66.378   4.415  1.00  0.00     0.030 C 
HETATM   32  C15 UNL     1       3.797  65.026   2.856  1.00  0.00     0.030 C 
HETATM   33  C17 UNL     1       4.440  68.174   4.864  1.00  0.00     0.086 C 
HETATM   34  N4  UNL     1       4.199  69.007   5.637  1.00  0.00    -0.195 NA
ENDBRANCH  19  24
ENDBRANCH  17  19
ENDBRANCH  13  15
ENDBRANCH  11  13
ENDBRANCH   8   9
ENDBRANCH   7   8
ENDBRANCH   3   7
TORSDOF 7
ENDMDL
MODEL 2
REMARK VINA RESULT: -7.653959827      1.579      1.783
REMARK  7 active torsions:
REMARK  status: ('A' for Active; 'I' for Inactive)
REMARK    1  A    between atoms: C3_3  and  C4_4 
REMARK    2  A    between atoms: C4_4  and  C5_5 
REMARK    3  A    between atoms: C5_5  and  C6_6 
REMARK       I    between atoms: C6_6  and  N1_8 
REMARK    4  A    between atoms: N1_8  and  C7_10 
REMARK    5  A    between atoms: C7_10  and  C9_12 
REMARK       I    between atoms: C9_12  and  N2_14 
REMARK    6  A    between atoms: N2_14  and  C10_16 
REMARK    7  A    between atoms: C10_16  and  C11_17 
REMARK       I    between atoms: C11_17  and  N3_19 
ROOT
HETATM    1  C1  UNL     1       7.190  56.942   4.510  1.00  0.00     0.019 C 
HETATM    2  C2  UNL     1       6.855  57.862   3.821  1.00  0.00    -0.066 C 
HETATM    3  C3  UNL     1       6.457  59.023   2.978  1.00  0.00     0.108 C 
HETATM    4  C21 UNL     1       5.208  58.974   2.597  1.00  0.00     0.189 C 
HETATM    5  F1  UNL     1       4.491  57.873   3.043  1.00  0.00    -0.196 F 
HETATM    6 BR1  UNL     1       4.321  60.189   1.499  1.00  0.00    -0.015 Br
ENDROOT
BRANCH   3   7
HETATM    7  C4  UNL     1       7.447  60.043   2.743  1.00  0.00    -0.098 C 
BRANCH   7   8
HETATM    8  C5  UNL     1       8.252  60.873   2.552  1.00  0.00     0.131 C 
BRANCH   8   9
HETATM    9  C6  UNL     1       8.295  62.278   3.113  1.00  0.00     0.249 C 
HETATM   10  O1  UNL     1       7.570  62.592   4.063  1.00  0.00    -0.268 OA
HETATM   11  N1  UNL     1       9.144  63.248   2.566  1.00  0.00    -0.344 N 
ATOM     12  H1  UNL     1       9.744  62.893   1.821  1.00  0.00     0.163 HD
BRANCH  11  13
HETATM   13  C7  UNL     1       9.335  64.619   2.841  1.00  0.00     0.172 C 
HETATM   14  C8  UNL     1      10.389  65.169   1.817  1.00  0.00     0.042 C 
BRANCH  13  15
HETATM   15  C9  UNL     1       8.173  65.513   2.654  1.00  0.00     0.241 C 
HETATM   16  O2  UNL     1       7.473  65.337   1.633  1.00  0.00    -0.271 OA
HETATM   17  N2  UNL     1       7.934  66.490   3.600  1.00  0.00    -0.341 N 
ATOM     18  H2  UNL     1       8.557  66.493   4.408  1.00  0.00     0.163 HD
BRANCH  17  19
HETATM   19  C10 UNL     1       6.889  67.529   3.585  1.00  0.00     0.116 C 
HETATM   20  C18 UNL     1       7.271  68.636   2.706  1.00  0.00     0.057 C 
HETATM   21  C19 UNL     1       8.135  69.184   3.870  1.00  0.00     0.064 C 
HETATM   22  S2  UNL     1       9.805  68.575   3.872  1.00  0.00    -0.092 SA
HETATM   23  C20 UNL     1       7.115  68.511   4.758  1.00  0.00     0.057 C 
BRANCH  19  24
HETATM   24  C11 UNL     1       5.567  66.970   3.677  1.00  0.00     0.250 C 
HETATM   25  O3  UNL     1       4.707  67.412   2.825  1.00  0.00    -0.270 OA
HETATM   26  N3  UNL     1       5.005  65.986   4.574  1.00  0.00    -0.322 N 
HETATM   27  C12 UNL     1       5.756  65.344   5.613  1.00  0.00     0.202 C 
HETATM   28  C16 UNL     1       3.597  65.612   4.525  1.00  0.00     0.213 C 
HETATM   29  S1  UNL     1       4.615  64.078   6.265  1.00  0.00    -0.137 SA
HETATM   30  C13 UNL     1       3.412  64.182   4.883  1.00  0.00     0.036 C 
HETATM   31  C14 UNL     1       2.053  63.882   5.436  1.00  0.00     0.030 C 
HETATM   32  C15 UNL     1       3.769  63.193   3.810  1.00  0.00     0.030 C 
HETATM   33  C17 UNL     1       2.847  66.477   5.458  1.00  0.00     0.086 C 
HETATM   34  N4  UNL     1       2.273  67.173   6.191  1.00  0.00    -0.195 NA
ENDBRANCH  19  24
ENDBRANCH  17  19
ENDBRANCH  13  15
ENDBRANCH  11  13
ENDBRANCH   8   9
ENDBRANCH   7   8
ENDBRANCH   3   7
TORSDOF 7
ENDMDL
MODEL 3
REMARK VINA RESULT: -7.650940162      2.938      4.870
REMARK  7 active torsions:
REMARK  status: ('A' for Active; 'I' for Inactive)
REMARK    1  A    between atoms: C3_3  and  C4_4 
REMARK    2  A    between atoms: C4_4  and  C5_5 
REMARK    3  A    between atoms: C5_5  and  C6_6 
REMARK       I    between atoms: C6_6  and  N1_8 
REMARK    4  A    between atoms: N1_8  and  C7_10 
REMARK    5  A    between atoms: C7_10  and  C9_12 
REMARK       I    between atoms: C9_12  and  N2_14 
REMARK    6  A    between atoms: N2_14  and  C10_16 
REMARK    7  A    between atoms: C10_16  and  C11_17 
REMARK       I    between atoms: C11_17  and  N3_19 
ROOT
HETATM    1  C1  UNL     1       7.425  57.394   4.217  1.00  0.00     0.019 C 
HETATM    2  C2  UNL     1       6.809  58.366   3.891  1.00  0.00    -0.066 C 
HETATM    3  C3  UNL     1       6.053  59.591   3.508  1.00  0.00     0.108 C 
HETATM    4  C21 UNL     1       4.947  59.328   2.863  1.00  0.00     0.189 C 
HETATM    5  F1  UNL     1       4.682  57.981   2.659  1.00  0.00    -0.196 F 
HETATM    6 BR1  UNL     1       3.737  60.557   2.162  1.00  0.00    -0.015 Br
ENDROOT
BRANCH   3   7
HETATM    7  C4  UNL     1       6.586  60.860   3.930  1.00  0.00    -0.098 C 
BRANCH   7   8
HETATM    8  C5  UNL     1       7.021  61.893   4.274  1.00  0.00     0.131 C 
BRANCH   8   9
HETATM    9  C6  UNL     1       6.919  63.229   3.570  1.00  0.00     0.249 C 
HETATM   10  O1  UNL     1       5.975  63.461   2.807  1.00  0.00    -0.268 OA
HETATM   11  N1  UNL     1       7.889  64.221   3.760  1.00  0.00    -0.344 N 
ATOM     12  H1  UNL     1       8.603  63.969   4.443  1.00  0.00     0.163 HD
BRANCH  11  13
HETATM   13  C7  UNL     1       8.074  65.501   3.194  1.00  0.00     0.172 C 
HETATM   14  C8  UNL     1       9.075  66.287   4.111  1.00  0.00     0.042 C 
BRANCH  13  15
HETATM   15  C9  UNL     1       8.707  65.563   1.860  1.00  0.00     0.241 C 
HETATM   16  O2  UNL     1       8.461  66.566   1.155  1.00  0.00    -0.271 OA
HETATM   17  N2  UNL     1       9.516  64.516   1.465  1.00  0.00    -0.341 N 
ATOM     18  H2  UNL     1       9.668  63.782   2.156  1.00  0.00     0.163 HD
BRANCH  17  19
HETATM   19  C10 UNL     1      10.186  64.330   0.166  1.00  0.00     0.116 C 
HETATM   20  C18 UNL     1      11.121  63.204   0.221  1.00  0.00     0.057 C 
HETATM   21  C19 UNL     1      12.144  64.163   0.881  1.00  0.00     0.064 C 
HETATM   22  S2  UNL     1      12.047  64.202   2.656  1.00  0.00    -0.092 SA
HETATM   23  C20 UNL     1      11.435  65.238   0.091  1.00  0.00     0.057 C 
BRANCH  19  24
HETATM   24  C11 UNL     1       9.315  64.622  -0.941  1.00  0.00     0.250 C 
HETATM   25  O3  UNL     1       9.708  65.555  -1.738  1.00  0.00    -0.270 OA
HETATM   26  N3  UNL     1       8.044  64.057  -1.332  1.00  0.00    -0.322 N 
HETATM   27  C12 UNL     1       7.390  63.005  -0.609  1.00  0.00     0.202 C 
HETATM   28  C16 UNL     1       7.293  64.562  -2.476  1.00  0.00     0.213 C 
HETATM   29  S1  UNL     1       5.966  62.565  -1.661  1.00  0.00    -0.137 SA
HETATM   30  C13 UNL     1       6.546  63.469  -3.149  1.00  0.00     0.036 C 
HETATM   31  C14 UNL     1       5.338  63.949  -3.892  1.00  0.00     0.030 C 
HETATM   32  C15 UNL     1       7.368  62.561  -4.019  1.00  0.00     0.030 C 
HETATM   33  C17 UNL     1       6.363  65.608  -2.004  1.00  0.00     0.086 C 
HETATM   34  N4  UNL     1       5.643  66.433  -1.615  1.00  0.00    -0.195 NA
ENDBRANCH  19  24
ENDBRANCH  17  19
ENDBRANCH  13  15
ENDBRANCH  11  13
ENDBRANCH   8   9
ENDBRANCH   7   8
ENDBRANCH   3   7
TORSDOF 7
ENDMDL
MODEL 4
REMARK VINA RESULT: -7.459863676      1.630      1.782
REMARK  7 active torsions:
REMARK  status: ('A' for Active; 'I' for Inactive)
REMARK    1  A    between atoms: C3_3  and  C4_4 
REMARK    2  A    between atoms: C4_4  and  C5_5 
REMARK    3  A    between atoms: C5_5  and  C6_6 
REMARK       I    between atoms: C6_6  and  N1_8 
REMARK    4  A    between atoms: N1_8  and  C7_10 
REMARK    5  A    between atoms: C7_10  and  C9_12 
REMARK       I    between atoms: C9_12  and  N2_14 
REMARK    6  A    between atoms: N2_14  and  C10_16 
REMARK    7  A    between atoms: C10_16  and  C11_17 
REMARK       I    between atoms: C11_17  and  N3_19 
ROOT
HETATM    1  C1  UNL     1       7.090  57.864   4.191  1.00  0.00     0.019 C 
HETATM    2  C2  UNL     1       6.946  58.849   3.527  1.00  0.00    -0.066 C 
HETATM    3  C3  UNL     1       6.791  60.087   2.712  1.00  0.00     0.108 C 
HETATM    4  C21 UNL     1       5.542  60.387   2.472  1.00  0.00     0.189 C 
HETATM    5  F1  UNL     1       4.605  59.519   3.013  1.00  0.00    -0.196 F 
HETATM    6 BR1  UNL     1       4.907  61.813   1.456  1.00  0.00    -0.015 Br
ENDROOT
BRANCH   3   7
HETATM    7  C4  UNL     1       7.990  60.799   2.353  1.00  0.00    -0.098 C 
BRANCH   7   8
HETATM    8  C5  UNL     1       8.966  61.378   2.061  1.00  0.00     0.131 C 
BRANCH   8   9
HETATM    9  C6  UNL     1       9.104  62.566   1.133  1.00  0.00     0.249 C 
HETATM   10  O1  UNL     1      10.095  62.675   0.403  1.00  0.00    -0.268 OA
HETATM   11  N1  UNL     1       8.122  63.563   1.087  1.00  0.00    -0.344 N 
ATOM     12  H1  UNL     1       7.315  63.371   1.681  1.00  0.00     0.163 HD
BRANCH  11  13
HETATM   13  C7  UNL     1       8.027  64.783   0.382  1.00  0.00     0.172 C 
HETATM   14  C8  UNL     1       6.702  64.747  -0.457  1.00  0.00     0.042 C 
BRANCH  13  15
HETATM   15  C9  UNL     1       7.894  66.017   1.184  1.00  0.00     0.241 C 
HETATM   16  O2  UNL     1       7.427  67.025   0.611  1.00  0.00    -0.271 OA
HETATM   17  N2  UNL     1       8.300  65.992   2.504  1.00  0.00    -0.341 N 
ATOM     18  H2  UNL     1       8.620  65.090   2.857  1.00  0.00     0.163 HD
BRANCH  17  19
HETATM   19  C10 UNL     1       8.328  67.110   3.463  1.00  0.00     0.116 C 
HETATM   20  C18 UNL     1       9.308  68.119   3.057  1.00  0.00     0.057 C 
HETATM   21  C19 UNL     1      10.403  67.229   3.696  1.00  0.00     0.064 C 
HETATM   22  S2  UNL     1      11.114  66.048   2.573  1.00  0.00    -0.092 SA
HETATM   23  C20 UNL     1       9.297  66.777   4.622  1.00  0.00     0.057 C 
BRANCH  19  24
HETATM   24  C11 UNL     1       7.025  67.398   3.998  1.00  0.00     0.250 C 
HETATM   25  O3  UNL     1       6.831  68.609   4.393  1.00  0.00    -0.270 OA
HETATM   26  N3  UNL     1       5.863  66.560   4.190  1.00  0.00    -0.322 N 
HETATM   27  C12 UNL     1       5.823  65.171   3.834  1.00  0.00     0.202 C 
HETATM   28  C16 UNL     1       4.647  67.058   4.823  1.00  0.00     0.213 C 
HETATM   29  S1  UNL     1       4.080  64.697   4.099  1.00  0.00    -0.137 SA
HETATM   30  C13 UNL     1       3.441  66.412   4.244  1.00  0.00     0.036 C 
HETATM   31  C14 UNL     1       2.276  66.386   5.184  1.00  0.00     0.030 C 
HETATM   32  C15 UNL     1       3.015  66.921   2.898  1.00  0.00     0.030 C 
HETATM   33  C17 UNL     1       4.729  66.791   6.274  1.00  0.00     0.086 C 
HETATM   34  N4  UNL     1       4.814  66.580   7.413  1.00  0.00    -0.195 NA
ENDBRANCH  19  24
ENDBRANCH  17  19
ENDBRANCH  13  15
ENDBRANCH  11  13
ENDBRANCH   8   9
ENDBRANCH   7   8
ENDBRANCH   3   7
TORSDOF 7
ENDMDL
MODEL 5
REMARK VINA RESULT: -7.438142017      3.866      6.348
REMARK  7 active torsions:
REMARK  status: ('A' for Active; 'I' for Inactive)
REMARK    1  A    between atoms: C3_3  and  C4_4 
REMARK    2  A    between atoms: C4_4  and  C5_5 
REMARK    3  A    between atoms: C5_5  and  C6_6 
REMARK       I    between atoms: C6_6  and  N1_8 
REMARK    4  A    between atoms: N1_8  and  C7_10 
REMARK    5  A    between atoms: C7_10  and  C9_12 
REMARK       I    between atoms: C9_12  and  N2_14 
REMARK    6  A    between atoms: N2_14  and  C10_16 
REMARK    7  A    between atoms: C10_16  and  C11_17 
REMARK       I    between atoms: C11_17  and  N3_19 
ROOT
HETATM    1  C1  UNL     1       7.402  56.765   4.562  1.00  0.00     0.019 C 
HETATM    2  C2  UNL     1       6.847  57.569   3.870  1.00  0.00    -0.066 C 
HETATM    3  C3  UNL     1       6.173  58.590   3.022  1.00  0.00     0.108 C 
HETATM    4  C21 UNL     1       4.944  58.268   2.714  1.00  0.00     0.189 C 
HETATM    5  F1  UNL     1       4.498  57.059   3.227  1.00  0.00    -0.196 F 
HETATM    6 BR1  UNL     1       3.769  59.231   1.637  1.00  0.00    -0.015 Br
ENDROOT
BRANCH   3   7
HETATM    7  C4  UNL     1       6.914  59.784   2.706  1.00  0.00    -0.098 C 
BRANCH   7   8
HETATM    8  C5  UNL     1       7.516  60.756   2.449  1.00  0.00     0.131 C 
BRANCH   8   9
HETATM    9  C6  UNL     1       7.060  61.950   1.637  1.00  0.00     0.249 C 
HETATM   10  O1  UNL     1       7.415  63.090   1.952  1.00  0.00    -0.268 OA
HETATM   11  N1  UNL     1       6.225  61.789   0.524  1.00  0.00    -0.344 N 
ATOM     12  H1  UNL     1       6.021  60.814   0.303  1.00  0.00     0.163 HD
BRANCH  11  13
HETATM   13  C7  UNL     1       5.609  62.708  -0.352  1.00  0.00     0.172 C 
HETATM   14  C8  UNL     1       4.531  63.500   0.468  1.00  0.00     0.042 C 
BRANCH  13  15
HETATM   15  C9  UNL     1       6.461  63.774  -0.920  1.00  0.00     0.241 C 
HETATM   16  O2  UNL     1       6.308  64.931  -0.471  1.00  0.00    -0.271 OA
HETATM   17  N2  UNL     1       7.361  63.439  -1.912  1.00  0.00    -0.341 N 
ATOM     18  H2  UNL     1       7.416  62.449  -2.152  1.00  0.00     0.163 HD
BRANCH  17  19
HETATM   19  C10 UNL     1       8.253  64.337  -2.667  1.00  0.00     0.116 C 
HETATM   20  C18 UNL     1       7.526  64.994  -3.756  1.00  0.00     0.057 C 
HETATM   21  C19 UNL     1       7.728  63.703  -4.590  1.00  0.00     0.064 C 
HETATM   22  S2  UNL     1       6.419  62.515  -4.399  1.00  0.00    -0.092 SA
HETATM   23  C20 UNL     1       8.985  63.537  -3.769  1.00  0.00     0.057 C 
BRANCH  19  24
HETATM   24  C11 UNL     1       9.220  64.979  -1.819  1.00  0.00     0.250 C 
HETATM   25  O3  UNL     1       9.399  66.240  -2.020  1.00  0.00    -0.270 OA
HETATM   26  N3  UNL     1      10.058  64.462  -0.761  1.00  0.00    -0.322 N 
HETATM   27  C12 UNL     1      10.049  63.089  -0.346  1.00  0.00     0.202 C 
HETATM   28  C16 UNL     1      11.031  65.297  -0.067  1.00  0.00     0.213 C 
HETATM   29  S1  UNL     1      11.124  63.067   1.129  1.00  0.00    -0.137 SA
HETATM   30  C13 UNL     1      11.170  64.888   1.354  1.00  0.00     0.036 C 
HETATM   31  C14 UNL     1      12.500  65.241   1.944  1.00  0.00     0.030 C 
HETATM   32  C15 UNL     1      10.061  65.324   2.266  1.00  0.00     0.030 C 
HETATM   33  C17 UNL     1      12.329  65.187  -0.765  1.00  0.00     0.086 C 
HETATM   34  N4  UNL     1      13.339  65.094  -1.331  1.00  0.00    -0.195 NA
ENDBRANCH  19  24
ENDBRANCH  17  19
ENDBRANCH  13  15
ENDBRANCH  11  13
ENDBRANCH   8   9
ENDBRANCH   7   8
ENDBRANCH   3   7
TORSDOF 7
ENDMDL
