MODEL 1
REMARK VINA RESULT: -7.967637752      0.000      0.000
REMARK  9 active torsions:
REMARK  status: ('A' for Active; 'I' for Inactive)
REMARK    1  A    between atoms: C2_2  and  C3_3 
REMARK    2  A    between atoms: C3_3  and  C5_6 
REMARK    3  A    between atoms: C3_3  and  N2_9 
REMARK    4  A    between atoms: C5_6  and  O1_7 
REMARK    5  A    between atoms: N2_9  and  C6_11 
REMARK    6  A    between atoms: C7_14  and  N4_15 
REMARK       I    between atoms: N4_15  and  C8_17 
REMARK    7  A    between atoms: C8_17  and  C9_19 
REMARK    8  A    between atoms: C11_21  and  O3_22 
REMARK    9  A    between atoms: C13_24  and  O4_25 
ROOT
HETATM    1  C3  UNL     1       7.035  61.158   3.468  1.00  0.00     0.142 C 
HETATM    2  C4  UNL     1       5.601  60.893   3.084  1.00  0.00     0.093 C 
HETATM    3  N1  UNL     1       4.505  60.690   2.778  1.00  0.00    -0.194 NA
ENDROOT
BRANCH   1   4
HETATM    4  C2  UNL     1       7.757  59.866   3.070  1.00  0.00     0.044 C 
HETATM    5  C1  UNL     1       7.200  58.694   3.843  1.00  0.00     0.009 C 
ENDBRANCH   1   4
BRANCH   1   6
HETATM    6  C5  UNL     1       6.996  61.315   4.966  1.00  0.00     0.210 C 
BRANCH   6   7
HETATM    7  O1  UNL     1       7.007  62.598   5.430  1.00  0.00    -0.397 OA
ATOM      8  H1  UNL     1       7.642  62.787   6.110  1.00  0.00     0.209 HD
ENDBRANCH   6   7
ENDBRANCH   1   6
BRANCH   1   9
HETATM    9  N2  UNL     1       7.479  62.216   2.712  1.00  0.00    -0.351 N 
ATOM     10  H2  UNL     1       6.913  63.027   2.960  1.00  0.00     0.163 HD
BRANCH   9  11
HETATM   11  C6  UNL     1       8.282  62.577   1.859  1.00  0.00     0.137 A 
HETATM   12  N3  UNL     1       9.614  62.533   1.933  1.00  0.00    -0.175 N 
HETATM   13  C7  UNL     1      10.450  62.943   0.961  1.00  0.00     0.686 A 
ATOM     14  H3  UNL     1      10.028  62.163   2.788  1.00  0.00     0.186 HD
HETATM   15  N5  UNL     1       9.912  63.430  -0.162  1.00  0.00    -0.200 N 
HETATM   16  C17 UNL     1       8.583  63.516  -0.336  1.00  0.00     0.129 A 
ATOM     17  H5  UNL     1      10.530  63.745  -0.911  1.00  0.00     0.183 HD
HETATM   18  C18 UNL     1       7.741  63.093   0.668  1.00  0.00     0.071 A 
HETATM   19 BR2  UNL     1       5.855  63.222   0.410  1.00  0.00    -0.046 Br
BRANCH  13  20
HETATM   20  N4  UNL     1      11.733  62.883   1.073  1.00  0.00    -0.155 N 
HETATM   21  C8  UNL     1      12.486  64.104   1.213  1.00  0.00     0.271 C 
HETATM   22  O2  UNL     1      12.956  64.674   0.208  1.00  0.00    -0.267 OA
ATOM     23  H4  UNL     1      12.209  61.981   1.062  1.00  0.00     0.187 HD
BRANCH  21  24
HETATM   24  C9  UNL     1      12.698  64.675   2.535  1.00  0.00     0.053 A 
HETATM   25  C10 UNL     1      13.868  64.386   3.239  1.00  0.00     0.058 A 
HETATM   26  C11 UNL     1      14.102  64.904   4.484  1.00  0.00     0.102 A 
HETATM   27  C13 UNL     1      13.152  65.730   5.043  1.00  0.00     0.102 A 
HETATM   28  C15 UNL     1      11.981  66.044   4.383  1.00  0.00     0.059 A 
HETATM   29  C16 UNL     1      11.779  65.500   3.125  1.00  0.00     0.029 A 
HETATM   30 BR1  UNL     1      10.187  65.900   2.180  1.00  0.00    -0.050 Br
BRANCH  26  31
HETATM   31  O3  UNL     1      15.253  64.631   5.196  1.00  0.00    -0.353 OA
HETATM   32  C12 UNL     1      15.361  63.377   5.837  1.00  0.00     0.210 C 
ENDBRANCH  26  31
BRANCH  27  33
HETATM   33  O4  UNL     1      13.420  66.243   6.313  1.00  0.00    -0.353 OA
HETATM   34  C14 UNL     1      13.122  65.555   7.498  1.00  0.00     0.210 C 
ENDBRANCH  27  33
ENDBRANCH  21  24
ENDBRANCH  13  20
ENDBRANCH   9  11
ENDBRANCH   1   9
TORSDOF 9
ENDMDL
MODEL 2
REMARK VINA RESULT: -7.508465179      2.371      3.150
REMARK  9 active torsions:
REMARK  status: ('A' for Active; 'I' for Inactive)
REMARK    1  A    between atoms: C2_2  and  C3_3 
REMARK    2  A    between atoms: C3_3  and  C5_6 
REMARK    3  A    between atoms: C3_3  and  N2_9 
REMARK    4  A    between atoms: C5_6  and  O1_7 
REMARK    5  A    between atoms: N2_9  and  C6_11 
REMARK    6  A    between atoms: C7_14  and  N4_15 
REMARK       I    between atoms: N4_15  and  C8_17 
REMARK    7  A    between atoms: C8_17  and  C9_19 
REMARK    8  A    between atoms: C11_21  and  O3_22 
REMARK    9  A    between atoms: C13_24  and  O4_25 
ROOT
HETATM    1  C3  UNL     1       6.658  60.861   3.028  1.00  0.00     0.142 C 
HETATM    2  C4  UNL     1       6.686  61.267   1.577  1.00  0.00     0.093 C 
HETATM    3  N1  UNL     1       6.717  61.583   0.465  1.00  0.00    -0.194 NA
ENDROOT
BRANCH   1   4
HETATM    4  C2  UNL     1       7.722  59.760   3.112  1.00  0.00     0.044 C 
HETATM    5  C1  UNL     1       7.186  58.569   3.870  1.00  0.00     0.009 C 
ENDBRANCH   1   4
BRANCH   1   6
HETATM    6  C5  UNL     1       5.277  60.292   3.230  1.00  0.00     0.210 C 
BRANCH   6   7
HETATM    7  O1  UNL     1       4.391  60.512   2.216  1.00  0.00    -0.397 OA
ATOM      8  H1  UNL     1       3.592  59.998   2.246  1.00  0.00     0.209 HD
ENDBRANCH   6   7
ENDBRANCH   1   6
BRANCH   1   9
HETATM    9  N2  UNL     1       7.029  61.954   3.773  1.00  0.00    -0.351 N 
ATOM     10  H2  UNL     1       7.063  61.662   4.749  1.00  0.00     0.163 HD
BRANCH   9  11
HETATM   11  C6  UNL     1       7.336  63.140   3.735  1.00  0.00     0.137 A 
HETATM   12  N3  UNL     1       8.287  63.706   2.989  1.00  0.00    -0.175 N 
HETATM   13  C7  UNL     1       8.580  65.020   2.987  1.00  0.00     0.686 A 
ATOM     14  H3  UNL     1       8.830  63.099   2.376  1.00  0.00     0.186 HD
HETATM   15  N5  UNL     1       7.870  65.820   3.789  1.00  0.00    -0.200 N 
HETATM   16  C17 UNL     1       6.892  65.350   4.580  1.00  0.00     0.129 A 
ATOM     17  H5  UNL     1       8.078  66.819   3.802  1.00  0.00     0.183 HD
HETATM   18  C18 UNL     1       6.604  64.003   4.571  1.00  0.00     0.071 A 
HETATM   19 BR2  UNL     1       5.213  63.347   5.699  1.00  0.00    -0.046 Br
BRANCH  13  20
HETATM   20  N4  UNL     1       9.507  65.526   2.249  1.00  0.00    -0.155 N 
HETATM   21  C8  UNL     1      10.439  66.462   2.830  1.00  0.00     0.271 C 
HETATM   22  O2  UNL     1      10.217  67.688   2.775  1.00  0.00    -0.267 OA
ATOM     23  H4  UNL     1       9.582  65.268   1.265  1.00  0.00     0.187 HD
BRANCH  21  24
HETATM   24  C9  UNL     1      11.643  65.972   3.484  1.00  0.00     0.053 A 
HETATM   25  C10 UNL     1      11.918  66.339   4.801  1.00  0.00     0.058 A 
HETATM   26  C11 UNL     1      13.041  65.898   5.450  1.00  0.00     0.102 A 
HETATM   27  C13 UNL     1      13.910  65.072   4.772  1.00  0.00     0.102 A 
HETATM   28  C15 UNL     1      13.678  64.682   3.469  1.00  0.00     0.059 A 
HETATM   29  C16 UNL     1      12.532  65.150   2.846  1.00  0.00     0.029 A 
HETATM   30 BR1  UNL     1      12.170  64.644   1.057  1.00  0.00    -0.050 Br
BRANCH  26  31
HETATM   31  O3  UNL     1      13.330  66.250   6.753  1.00  0.00    -0.353 OA
HETATM   32  C12 UNL     1      13.342  65.234   7.733  1.00  0.00     0.210 C 
ENDBRANCH  26  31
BRANCH  27  33
HETATM   33  O4  UNL     1      15.045  64.640   5.460  1.00  0.00    -0.353 OA
HETATM   34  C14 UNL     1      15.465  63.303   5.485  1.00  0.00     0.210 C 
ENDBRANCH  27  33
ENDBRANCH  21  24
ENDBRANCH  13  20
ENDBRANCH   9  11
ENDBRANCH   1   9
TORSDOF 9
ENDMDL
MODEL 3
REMARK VINA RESULT: -7.355558914      2.557      3.560
REMARK  9 active torsions:
REMARK  status: ('A' for Active; 'I' for Inactive)
REMARK    1  A    between atoms: C2_2  and  C3_3 
REMARK    2  A    between atoms: C3_3  and  C5_6 
REMARK    3  A    between atoms: C3_3  and  N2_9 
REMARK    4  A    between atoms: C5_6  and  O1_7 
REMARK    5  A    between atoms: N2_9  and  C6_11 
REMARK    6  A    between atoms: C7_14  and  N4_15 
REMARK       I    between atoms: N4_15  and  C8_17 
REMARK    7  A    between atoms: C8_17  and  C9_19 
REMARK    8  A    between atoms: C11_21  and  O3_22 
REMARK    9  A    between atoms: C13_24  and  O4_25 
ROOT
HETATM    1  C3  UNL     1       5.916  60.442   2.966  1.00  0.00     0.142 C 
HETATM    2  C4  UNL     1       4.932  59.376   2.558  1.00  0.00     0.093 C 
HETATM    3  N1  UNL     1       4.186  58.551   2.241  1.00  0.00    -0.194 NA
ENDROOT
BRANCH   1   4
HETATM    4  C2  UNL     1       6.695  59.791   4.115  1.00  0.00     0.044 C 
HETATM    5  C1  UNL     1       7.342  58.509   3.648  1.00  0.00     0.009 C 
ENDBRANCH   1   4
BRANCH   1   6
HETATM    6  C5  UNL     1       5.054  61.571   3.470  1.00  0.00     0.210 C 
BRANCH   6   7
HETATM    7  O1  UNL     1       3.827  61.688   2.886  1.00  0.00    -0.397 OA
ATOM      8  H1  UNL     1       3.824  61.753   1.939  1.00  0.00     0.209 HD
ENDBRANCH   6   7
ENDBRANCH   1   6
BRANCH   1   9
HETATM    9  N2  UNL     1       6.741  60.680   1.893  1.00  0.00    -0.351 N 
ATOM     10  H2  UNL     1       6.751  59.834   1.323  1.00  0.00     0.163 HD
BRANCH   9  11
HETATM   11  C6  UNL     1       7.469  61.500   1.345  1.00  0.00     0.137 A 
HETATM   12  N3  UNL     1       8.681  61.895   1.739  1.00  0.00    -0.175 N 
HETATM   13  C7  UNL     1       9.439  62.802   1.095  1.00  0.00     0.686 A 
ATOM     14  H3  UNL     1       9.060  61.481   2.590  1.00  0.00     0.186 HD
HETATM   15  N5  UNL     1       8.946  63.349  -0.022  1.00  0.00    -0.200 N 
HETATM   16  C17 UNL     1       7.736  63.018  -0.503  1.00  0.00     0.129 A 
ATOM     17  H5  UNL     1       9.506  64.038  -0.524  1.00  0.00     0.183 HD
HETATM   18  C18 UNL     1       6.972  62.089   0.168  1.00  0.00     0.071 A 
HETATM   19 BR2  UNL     1       5.255  61.629  -0.524  1.00  0.00    -0.046 Br
BRANCH  13  20
HETATM   20  N4  UNL     1      10.606  63.156   1.509  1.00  0.00    -0.155 N 
HETATM   21  C8  UNL     1      11.057  64.507   1.278  1.00  0.00     0.271 C 
HETATM   22  O2  UNL     1      11.725  64.783   0.261  1.00  0.00    -0.267 OA
ATOM     23  H4  UNL     1      11.205  62.490   1.996  1.00  0.00     0.187 HD
BRANCH  21  24
HETATM   24  C9  UNL     1      10.729  65.552   2.236  1.00  0.00     0.053 A 
HETATM   25  C10 UNL     1       9.520  66.240   2.129  1.00  0.00     0.058 A 
HETATM   26  C11 UNL     1       9.177  67.230   3.011  1.00  0.00     0.102 A 
HETATM   27  C13 UNL     1      10.057  67.543   4.023  1.00  0.00     0.102 A 
HETATM   28  C15 UNL     1      11.264  66.890   4.167  1.00  0.00     0.059 A 
HETATM   29  C16 UNL     1      11.576  65.894   3.255  1.00  0.00     0.029 A 
HETATM   30 BR1  UNL     1      13.221  64.969   3.410  1.00  0.00    -0.050 Br
BRANCH  26  31
HETATM   31  O3  UNL     1       7.986  67.921   2.923  1.00  0.00    -0.353 OA
HETATM   32  C12 UNL     1       6.795  67.251   3.280  1.00  0.00     0.210 C 
ENDBRANCH  26  31
BRANCH  27  33
HETATM   33  O4  UNL     1       9.679  68.556   4.905  1.00  0.00    -0.353 OA
HETATM   34  C14 UNL     1       9.783  69.920   4.599  1.00  0.00     0.210 C 
ENDBRANCH  27  33
ENDBRANCH  21  24
ENDBRANCH  13  20
ENDBRANCH   9  11
ENDBRANCH   1   9
TORSDOF 9
ENDMDL
MODEL 4
REMARK VINA RESULT: -7.307715159      3.866      7.304
REMARK  9 active torsions:
REMARK  status: ('A' for Active; 'I' for Inactive)
REMARK    1  A    between atoms: C2_2  and  C3_3 
REMARK    2  A    between atoms: C3_3  and  C5_6 
REMARK    3  A    between atoms: C3_3  and  N2_9 
REMARK    4  A    between atoms: C5_6  and  O1_7 
REMARK    5  A    between atoms: N2_9  and  C6_11 
REMARK    6  A    between atoms: C7_14  and  N4_15 
REMARK       I    between atoms: N4_15  and  C8_17 
REMARK    7  A    between atoms: C8_17  and  C9_19 
REMARK    8  A    between atoms: C11_21  and  O3_22 
REMARK    9  A    between atoms: C13_24  and  O4_25 
ROOT
HETATM    1  C3  UNL     1      11.244  64.659   0.441  1.00  0.00     0.142 C 
HETATM    2  C4  UNL     1      12.306  64.884  -0.605  1.00  0.00     0.093 C 
HETATM    3  N1  UNL     1      13.129  65.056  -1.399  1.00  0.00    -0.194 NA
ENDROOT
BRANCH   1   4
HETATM    4  C2  UNL     1      11.438  63.191   0.838  1.00  0.00     0.044 C 
HETATM    5  C1  UNL     1      10.113  62.571   1.215  1.00  0.00     0.009 C 
ENDBRANCH   1   4
BRANCH   1   6
HETATM    6  C5  UNL     1       9.946  64.852  -0.298  1.00  0.00     0.210 C 
BRANCH   6   7
HETATM    7  O1  UNL     1      10.024  65.562  -1.461  1.00  0.00    -0.397 OA
ATOM      8  H1  UNL     1       9.860  66.495  -1.387  1.00  0.00     0.209 HD
ENDBRANCH   6   7
ENDBRANCH   1   6
BRANCH   1   9
HETATM    9  N2  UNL     1      11.522  65.490   1.500  1.00  0.00    -0.351 N 
ATOM     10  H2  UNL     1      12.468  65.846   1.369  1.00  0.00     0.163 HD
BRANCH   9  11
HETATM   11  C6  UNL     1      11.089  65.974   2.540  1.00  0.00     0.137 A 
HETATM   12  N3  UNL     1       9.951  66.651   2.703  1.00  0.00    -0.175 N 
HETATM   13  C7  UNL     1       9.523  67.161   3.873  1.00  0.00     0.686 A 
ATOM     14  H3  UNL     1       9.364  66.793   1.883  1.00  0.00     0.186 HD
HETATM   15  N5  UNL     1      10.291  66.978   4.953  1.00  0.00    -0.200 N 
HETATM   16  C17 UNL     1      11.455  66.310   4.895  1.00  0.00     0.129 A 
ATOM     17  H5  UNL     1       9.984  67.357   5.849  1.00  0.00     0.183 HD
HETATM   18  C18 UNL     1      11.879  65.795   3.690  1.00  0.00     0.071 A 
HETATM   19 BR2  UNL     1      13.534  64.849   3.619  1.00  0.00    -0.046 Br
BRANCH  13  20
HETATM   20  N4  UNL     1       8.416  67.810   3.989  1.00  0.00    -0.155 N 
HETATM   21  C8  UNL     1       7.193  67.206   3.519  1.00  0.00     0.271 C 
HETATM   22  O2  UNL     1       6.788  67.422   2.360  1.00  0.00    -0.267 OA
ATOM     23  H4  UNL     1       8.404  68.739   4.407  1.00  0.00     0.187 HD
BRANCH  21  24
HETATM   24  C9  UNL     1       6.430  66.338   4.403  1.00  0.00     0.053 A 
HETATM   25  C10 UNL     1       6.682  64.966   4.420  1.00  0.00     0.058 A 
HETATM   26  C11 UNL     1       5.984  64.118   5.238  1.00  0.00     0.102 A 
HETATM   27  C13 UNL     1       5.012  64.647   6.059  1.00  0.00     0.102 A 
HETATM   28  C15 UNL     1       4.729  65.998   6.076  1.00  0.00     0.059 A 
HETATM   29  C16 UNL     1       5.456  66.823   5.234  1.00  0.00     0.029 A 
HETATM   30 BR1  UNL     1       5.104  68.685   5.220  1.00  0.00    -0.050 Br
BRANCH  26  31
HETATM   31  O3  UNL     1       6.219  62.758   5.270  1.00  0.00    -0.353 OA
HETATM   32  C12 UNL     1       7.236  62.235   4.443  1.00  0.00     0.210 C 
ENDBRANCH  26  31
BRANCH  27  33
HETATM   33  O4  UNL     1       4.319  63.757   6.881  1.00  0.00    -0.353 OA
HETATM   34  C14 UNL     1       2.922  63.755   7.005  1.00  0.00     0.210 C 
ENDBRANCH  27  33
ENDBRANCH  21  24
ENDBRANCH  13  20
ENDBRANCH   9  11
ENDBRANCH   1   9
TORSDOF 9
ENDMDL
MODEL 5
REMARK VINA RESULT: -7.303398026      2.394      3.411
REMARK  9 active torsions:
REMARK  status: ('A' for Active; 'I' for Inactive)
REMARK    1  A    between atoms: C2_2  and  C3_3 
REMARK    2  A    between atoms: C3_3  and  C5_6 
REMARK    3  A    between atoms: C3_3  and  N2_9 
REMARK    4  A    between atoms: C5_6  and  O1_7 
REMARK    5  A    between atoms: N2_9  and  C6_11 
REMARK    6  A    between atoms: C7_14  and  N4_15 
REMARK       I    between atoms: N4_15  and  C8_17 
REMARK    7  A    between atoms: C8_17  and  C9_19 
REMARK    8  A    between atoms: C11_21  and  O3_22 
REMARK    9  A    between atoms: C13_24  and  O4_25 
ROOT
HETATM    1  C3  UNL     1       6.191  60.504   3.216  1.00  0.00     0.142 C 
HETATM    2  C4  UNL     1       4.815  61.105   3.078  1.00  0.00     0.093 C 
HETATM    3  N1  UNL     1       3.760  61.561   2.961  1.00  0.00    -0.194 NA
ENDROOT
BRANCH   1   4
HETATM    4  C2  UNL     1       5.913  59.002   3.355  1.00  0.00     0.044 C 
HETATM    5  C1  UNL     1       7.034  58.330   4.111  1.00  0.00     0.009 C 
ENDBRANCH   1   4
BRANCH   1   6
HETATM    6  C5  UNL     1       6.720  61.076   4.505  1.00  0.00     0.210 C 
BRANCH   6   7
HETATM    7  O1  UNL     1       6.356  62.363   4.777  1.00  0.00    -0.397 OA
ATOM      8  H1  UNL     1       6.443  62.978   4.058  1.00  0.00     0.209 HD
ENDBRANCH   6   7
ENDBRANCH   1   6
BRANCH   1   9
HETATM    9  N2  UNL     1       6.878  60.765   2.054  1.00  0.00    -0.351 N 
ATOM     10  H2  UNL     1       6.716  59.982   1.421  1.00  0.00     0.163 HD
BRANCH   9  11
HETATM   11  C6  UNL     1       7.606  61.562   1.473  1.00  0.00     0.137 A 
HETATM   12  N3  UNL     1       8.813  61.983   1.858  1.00  0.00    -0.175 N 
HETATM   13  C7  UNL     1       9.572  62.861   1.176  1.00  0.00     0.686 A 
ATOM     14  H3  UNL     1       9.187  61.612   2.730  1.00  0.00     0.186 HD
HETATM   15  N5  UNL     1       9.085  63.351   0.030  1.00  0.00    -0.200 N 
HETATM   16  C17 UNL     1       7.881  62.991  -0.444  1.00  0.00     0.129 A 
ATOM     17  H5  UNL     1       9.646  64.018  -0.500  1.00  0.00     0.183 HD
HETATM   18  C18 UNL     1       7.116  62.091   0.265  1.00  0.00     0.071 A 
HETATM   19 BR2  UNL     1       5.407  61.589  -0.418  1.00  0.00    -0.046 Br
BRANCH  13  20
HETATM   20  N4  UNL     1      10.734  63.241   1.583  1.00  0.00    -0.155 N 
HETATM   21  C8  UNL     1      11.160  64.596   1.333  1.00  0.00     0.271 C 
HETATM   22  O2  UNL     1      11.819  64.872   0.311  1.00  0.00    -0.267 OA
ATOM     23  H4  UNL     1      11.346  62.591   2.076  1.00  0.00     0.187 HD
BRANCH  21  24
HETATM   24  C9  UNL     1      10.816  65.648   2.279  1.00  0.00     0.053 A 
HETATM   25  C10 UNL     1       9.619  66.350   2.135  1.00  0.00     0.058 A 
HETATM   26  C11 UNL     1       9.262  67.346   3.005  1.00  0.00     0.102 A 
HETATM   27  C13 UNL     1      10.115  67.650   4.043  1.00  0.00     0.102 A 
HETATM   28  C15 UNL     1      11.310  66.982   4.224  1.00  0.00     0.059 A 
HETATM   29  C16 UNL     1      11.636  65.981   3.323  1.00  0.00     0.029 A 
HETATM   30 BR1  UNL     1      13.265  65.036   3.529  1.00  0.00    -0.050 Br
BRANCH  26  31
HETATM   31  O3  UNL     1       8.082  68.051   2.880  1.00  0.00    -0.353 OA
HETATM   32  C12 UNL     1       6.873  67.394   3.195  1.00  0.00     0.210 C 
ENDBRANCH  26  31
BRANCH  27  33
HETATM   33  O4  UNL     1       9.724  68.670   4.912  1.00  0.00    -0.353 OA
HETATM   34  C14 UNL     1       9.883  70.031   4.620  1.00  0.00     0.210 C 
ENDBRANCH  27  33
ENDBRANCH  21  24
ENDBRANCH  13  20
ENDBRANCH   9  11
ENDBRANCH   1   9
TORSDOF 9
ENDMDL
