MODEL 1
REMARK VINA RESULT: -7.264888071      0.000      0.000
REMARK  7 active torsions:
REMARK  status: ('A' for Active; 'I' for Inactive)
REMARK    1  A    between atoms: O1_2  and  C2_3 
REMARK    2  A    between atoms: C13_14  and  C14_15 
REMARK    3  A    between atoms: C16_18  and  C17_19 
REMARK    4  A    between atoms: C16_18  and  C19_26 
REMARK    5  A    between atoms: C17_19  and  N1_20 
REMARK    6  A    between atoms: N1_20  and  S1_22 
REMARK    7  A    between atoms: C22_31  and  O5_32 
ROOT
HETATM    1  C2  UNL     1       5.021  63.324   3.140  1.00  0.00     0.076 C 
HETATM    2  C3  UNL     1       5.459  63.180   4.600  1.00  0.00     0.047 C 
HETATM    3  C4  UNL     1       4.953  62.062   2.406  1.00  0.00     0.033 C 
HETATM    4  C5  UNL     1       5.380  62.016   0.941  1.00  0.00     0.018 C 
HETATM    5  C6  UNL     1       5.699  63.380   0.494  1.00  0.00    -0.030 C 
HETATM    6  C7  UNL     1       4.349  64.055   0.816  1.00  0.00     0.016 C 
HETATM    7  C8  UNL     1       4.849  65.188   1.557  1.00  0.00     0.005 C 
HETATM    8  C9  UNL     1       5.477  66.039   0.481  1.00  0.00     0.006 C 
HETATM    9  C10 UNL     1       5.740  65.366  -0.825  1.00  0.00     0.005 C 
HETATM   10  C11 UNL     1       5.830  63.824  -0.877  1.00  0.00    -0.010 C 
HETATM   11  C12 UNL     1       4.648  63.334  -1.744  1.00  0.00     0.011 C 
HETATM   12  C13 UNL     1       5.874  64.432   2.461  1.00  0.00     0.053 C 
HETATM   13  C15 UNL     1       6.757  63.923   1.429  1.00  0.00     0.028 C 
HETATM   14  C16 UNL     1       8.026  63.275   1.665  1.00  0.00     0.041 C 
HETATM   15  C20 UNL     1       8.389  62.188   2.538  1.00  0.00     0.020 C 
HETATM   16  C21 UNL     1       7.920  60.798   2.442  1.00  0.00     0.048 C 
HETATM   17  C22 UNL     1       6.737  60.354   3.179  1.00  0.00     0.129 C 
HETATM   18  C23 UNL     1       6.689  58.877   2.925  1.00  0.00     0.183 C 
HETATM   19  O6  UNL     1       7.514  58.060   3.403  1.00  0.00    -0.290 OA
HETATM   20  C24 UNL     1       5.556  58.660   2.069  1.00  0.00     0.050 C 
HETATM   21  C25 UNL     1       4.821  59.723   2.089  1.00  0.00    -0.014 C 
HETATM   22  C26 UNL     1       5.415  60.786   2.995  1.00  0.00     0.057 C 
ENDROOT
BRANCH  14  23
HETATM   23  C17 UNL     1       8.982  64.414   2.151  1.00  0.00     0.147 C 
BRANCH  23  24
HETATM   24  N1  UNL     1       9.879  64.014   3.205  1.00  0.00    -0.319 N 
ATOM     25  H1  UNL     1       9.658  63.398   3.987  1.00  0.00     0.172 HD
BRANCH  24  26
HETATM   26  S1  UNL     1      11.423  64.787   2.888  1.00  0.00     0.222 S 
HETATM   27  C18 UNL     1      11.193  66.377   2.153  1.00  0.00     0.185 C 
HETATM   28  O3  UNL     1      12.164  64.986   4.180  1.00  0.00    -0.206 OA
HETATM   29  O4  UNL     1      12.283  63.971   2.002  1.00  0.00    -0.206 OA
ENDBRANCH  24  26
ENDBRANCH  23  24
ENDBRANCH  14  23
BRANCH  14  30
HETATM   30  C19 UNL     1       8.686  62.933   0.305  1.00  0.00     0.363 C 
HETATM   31  F1  UNL     1       9.966  62.379   0.517  1.00  0.00    -0.214 F 
HETATM   32  F2  UNL     1       9.029  64.097  -0.361  1.00  0.00    -0.214 F 
ENDBRANCH  14  30
BRANCH  12  33
HETATM   33  C14 UNL     1       6.280  65.444   3.417  1.00  0.00     0.244 C 
HETATM   34  O2  UNL     1       5.706  66.499   3.651  1.00  0.00    -0.306 OA
ENDBRANCH  12  33
BRANCH   1  35
HETATM   35  O1  UNL     1       3.796  63.972   3.385  1.00  0.00    -0.384 OA
HETATM   36  C1  UNL     1       3.126  63.636   4.502  1.00  0.00     0.202 C 
ENDBRANCH   1  35
BRANCH  17  37
HETATM   37  O5  UNL     1       7.070  60.387   4.568  1.00  0.00    -0.381 OA
ATOM     38  H5  UNL     1       7.902  59.940   4.667  1.00  0.00     0.211 HD
ENDBRANCH  17  37
TORSDOF 7
ENDMDL
MODEL 2
REMARK VINA RESULT: -7.190661933      2.385      4.967
REMARK  7 active torsions:
REMARK  status: ('A' for Active; 'I' for Inactive)
REMARK    1  A    between atoms: O1_2  and  C2_3 
REMARK    2  A    between atoms: C13_14  and  C14_15 
REMARK    3  A    between atoms: C16_18  and  C17_19 
REMARK    4  A    between atoms: C16_18  and  C19_26 
REMARK    5  A    between atoms: C17_19  and  N1_20 
REMARK    6  A    between atoms: N1_20  and  S1_22 
REMARK    7  A    between atoms: C22_31  and  O5_32 
ROOT
HETATM    1  C2  UNL     1       7.905  62.188   1.950  1.00  0.00     0.076 C 
HETATM    2  C3  UNL     1       8.331  62.131   3.420  1.00  0.00     0.047 C 
HETATM    3  C4  UNL     1       8.973  62.572   1.030  1.00  0.00     0.033 C 
HETATM    4  C5  UNL     1       8.656  63.465  -0.167  1.00  0.00     0.018 C 
HETATM    5  C6  UNL     1       7.204  63.693  -0.219  1.00  0.00    -0.030 C 
HETATM    6  C7  UNL     1       6.738  62.224  -0.290  1.00  0.00     0.016 C 
HETATM    7  C8  UNL     1       5.758  62.260   0.769  1.00  0.00     0.005 C 
HETATM    8  C9  UNL     1       4.638  63.067   0.161  1.00  0.00     0.006 C 
HETATM    9  C10 UNL     1       4.979  63.855  -1.061  1.00  0.00     0.005 C 
HETATM   10  C11 UNL     1       6.457  64.202  -1.349  1.00  0.00    -0.010 C 
HETATM   11  C12 UNL     1       6.843  63.471  -2.657  1.00  0.00     0.011 C 
HETATM   12  C13 UNL     1       6.604  63.031   1.832  1.00  0.00     0.053 C 
HETATM   13  C15 UNL     1       6.793  64.277   1.113  1.00  0.00     0.028 C 
HETATM   14  C16 UNL     1       7.364  65.480   1.672  1.00  0.00     0.041 C 
HETATM   15  C20 UNL     1       8.582  65.699   2.410  1.00  0.00     0.020 C 
HETATM   16  C21 UNL     1       9.951  65.517   1.907  1.00  0.00     0.048 C 
HETATM   17  C22 UNL     1      10.649  64.243   2.077  1.00  0.00     0.129 C 
HETATM   18  C23 UNL     1      12.031  64.519   1.565  1.00  0.00     0.183 C 
HETATM   19  O6  UNL     1      12.859  65.256   2.155  1.00  0.00    -0.290 OA
HETATM   20  C24 UNL     1      12.150  63.787   0.335  1.00  0.00     0.050 C 
HETATM   21  C25 UNL     1      11.186  62.927   0.277  1.00  0.00    -0.014 C 
HETATM   22  C26 UNL     1      10.303  63.007   1.509  1.00  0.00     0.057 C 
ENDROOT
BRANCH  14  23
HETATM   23  C17 UNL     1       6.283  66.024   2.663  1.00  0.00     0.147 C 
BRANCH  23  24
HETATM   24  N1  UNL     1       6.788  66.304   3.983  1.00  0.00    -0.319 N 
ATOM     25  H1  UNL     1       7.321  65.668   4.575  1.00  0.00     0.172 HD
BRANCH  24  26
HETATM   26  S1  UNL     1       6.312  67.947   4.379  1.00  0.00     0.222 S 
HETATM   27  C18 UNL     1       7.698  69.040   4.307  1.00  0.00     0.185 C 
HETATM   28  O3  UNL     1       5.297  68.434   3.384  1.00  0.00    -0.206 OA
HETATM   29  O4  UNL     1       5.700  68.040   5.724  1.00  0.00    -0.206 OA
ENDBRANCH  24  26
ENDBRANCH  23  24
ENDBRANCH  14  23
BRANCH  14  30
HETATM   30  C19 UNL     1       7.337  66.602   0.603  1.00  0.00     0.363 C 
HETATM   31  F1  UNL     1       7.800  67.811   1.163  1.00  0.00    -0.214 F 
HETATM   32  F2  UNL     1       6.029  66.951   0.314  1.00  0.00    -0.214 F 
ENDBRANCH  14  30
BRANCH  12  33
HETATM   33  C14 UNL     1       5.798  62.927   3.033  1.00  0.00     0.244 C 
HETATM   34  O2  UNL     1       4.888  62.135   3.236  1.00  0.00    -0.306 OA
ENDBRANCH  12  33
BRANCH   1  35
HETATM   35  O1  UNL     1       7.437  60.865   1.849  1.00  0.00    -0.384 OA
HETATM   36  C1  UNL     1       7.974  59.949   2.673  1.00  0.00     0.202 C 
ENDBRANCH   1  35
BRANCH  17  37
HETATM   37  O5  UNL     1      10.896  64.083   3.475  1.00  0.00    -0.381 OA
ATOM     38  H5  UNL     1      11.222  63.199   3.602  1.00  0.00     0.211 HD
ENDBRANCH  17  37
TORSDOF 7
ENDMDL
MODEL 3
REMARK VINA RESULT: -7.084138362      1.080      1.162
REMARK  7 active torsions:
REMARK  status: ('A' for Active; 'I' for Inactive)
REMARK    1  A    between atoms: O1_2  and  C2_3 
REMARK    2  A    between atoms: C13_14  and  C14_15 
REMARK    3  A    between atoms: C16_18  and  C17_19 
REMARK    4  A    between atoms: C16_18  and  C19_26 
REMARK    5  A    between atoms: C17_19  and  N1_20 
REMARK    6  A    between atoms: N1_20  and  S1_22 
REMARK    7  A    between atoms: C22_31  and  O5_32 
ROOT
HETATM    1  C2  UNL     1       5.635  64.459   2.940  1.00  0.00     0.076 C 
HETATM    2  C3  UNL     1       5.975  64.450   4.433  1.00  0.00     0.047 C 
HETATM    3  C4  UNL     1       5.360  63.139   2.378  1.00  0.00     0.033 C 
HETATM    4  C5  UNL     1       5.833  62.803   0.966  1.00  0.00     0.018 C 
HETATM    5  C6  UNL     1       6.425  64.008   0.364  1.00  0.00    -0.030 C 
HETATM    6  C7  UNL     1       5.215  64.957   0.498  1.00  0.00     0.016 C 
HETATM    7  C8  UNL     1       5.890  66.075   1.112  1.00  0.00     0.005 C 
HETATM    8  C9  UNL     1       6.714  66.632  -0.021  1.00  0.00     0.006 C 
HETATM    9  C10 UNL     1       6.899  65.740  -1.204  1.00  0.00     0.005 C 
HETATM   10  C11 UNL     1       6.696  64.217  -1.042  1.00  0.00    -0.010 C 
HETATM   11  C12 UNL     1       5.480  63.830  -1.916  1.00  0.00     0.011 C 
HETATM   12  C13 UNL     1       6.712  65.283   2.179  1.00  0.00     0.053 C 
HETATM   13  C15 UNL     1       7.525  64.477   1.288  1.00  0.00     0.028 C 
HETATM   14  C16 UNL     1       8.636  63.650   1.696  1.00  0.00     0.041 C 
HETATM   15  C20 UNL     1       8.748  62.653   2.730  1.00  0.00     0.020 C 
HETATM   16  C21 UNL     1       8.027  61.373   2.789  1.00  0.00     0.048 C 
HETATM   17  C22 UNL     1       6.751  61.264   3.495  1.00  0.00     0.129 C 
HETATM   18  C23 UNL     1       6.433  59.799   3.439  1.00  0.00     0.183 C 
HETATM   19  O6  UNL     1       7.066  58.923   4.078  1.00  0.00    -0.290 OA
HETATM   20  C24 UNL     1       5.318  59.671   2.543  1.00  0.00     0.050 C 
HETATM   21  C25 UNL     1       4.798  60.842   2.370  1.00  0.00    -0.014 C 
HETATM   22  C26 UNL     1       5.545  61.898   3.164  1.00  0.00     0.057 C 
ENDROOT
BRANCH  14  23
HETATM   23  C17 UNL     1       9.770  64.653   2.090  1.00  0.00     0.147 C 
BRANCH  23  24
HETATM   24  N1  UNL     1      10.492  64.282   3.281  1.00  0.00    -0.319 N 
ATOM     25  H1  UNL     1      10.319  63.463   3.863  1.00  0.00     0.172 HD
BRANCH  24  26
HETATM   26  S1  UNL     1      11.724  65.505   3.538  1.00  0.00     0.222 S 
HETATM   27  C18 UNL     1      11.011  67.121   3.574  1.00  0.00     0.185 C 
HETATM   28  O3  UNL     1      12.397  65.275   4.862  1.00  0.00    -0.206 OA
HETATM   29  O4  UNL     1      12.771  65.469   2.493  1.00  0.00    -0.206 OA
ENDBRANCH  24  26
ENDBRANCH  23  24
ENDBRANCH  14  23
BRANCH  14  30
HETATM   30  C19 UNL     1       9.277  63.000   0.443  1.00  0.00     0.363 C 
HETATM   31  F1  UNL     1      10.425  62.268   0.814  1.00  0.00    -0.214 F 
HETATM   32  F2  UNL     1       9.854  63.974  -0.354  1.00  0.00    -0.214 F 
ENDBRANCH  14  30
BRANCH  12  33
HETATM   33  C14 UNL     1       7.262  66.332   3.017  1.00  0.00     0.244 C 
HETATM   34  O2  UNL     1       6.894  67.497   3.063  1.00  0.00    -0.306 OA
ENDBRANCH  12  33
BRANCH   1  35
HETATM   35  O1  UNL     1       4.547  65.348   3.010  1.00  0.00    -0.384 OA
HETATM   36  C1  UNL     1       3.781  65.309   4.115  1.00  0.00     0.202 C 
ENDBRANCH   1  35
BRANCH  17  37
HETATM   37  O5  UNL     1       7.024  61.436   4.887  1.00  0.00    -0.381 OA
ATOM     38  H5  UNL     1       6.793  62.330   5.109  1.00  0.00     0.211 HD
ENDBRANCH  17  37
TORSDOF 7
ENDMDL
MODEL 4
REMARK VINA RESULT: -7.082529913      2.425      5.074
REMARK  7 active torsions:
REMARK  status: ('A' for Active; 'I' for Inactive)
REMARK    1  A    between atoms: O1_2  and  C2_3 
REMARK    2  A    between atoms: C13_14  and  C14_15 
REMARK    3  A    between atoms: C16_18  and  C17_19 
REMARK    4  A    between atoms: C16_18  and  C19_26 
REMARK    5  A    between atoms: C17_19  and  N1_20 
REMARK    6  A    between atoms: N1_20  and  S1_22 
REMARK    7  A    between atoms: C22_31  and  O5_32 
ROOT
HETATM    1  C2  UNL     1       7.866  62.097   1.979  1.00  0.00     0.076 C 
HETATM    2  C3  UNL     1       8.281  62.037   3.452  1.00  0.00     0.047 C 
HETATM    3  C4  UNL     1       8.929  62.529   1.074  1.00  0.00     0.033 C 
HETATM    4  C5  UNL     1       8.592  63.425  -0.116  1.00  0.00     0.018 C 
HETATM    5  C6  UNL     1       7.133  63.602  -0.179  1.00  0.00    -0.030 C 
HETATM    6  C7  UNL     1       6.720  62.119  -0.272  1.00  0.00     0.016 C 
HETATM    7  C8  UNL     1       5.729  62.108   0.777  1.00  0.00     0.005 C 
HETATM    8  C9  UNL     1       4.588  62.883   0.168  1.00  0.00     0.006 C 
HETATM    9  C10 UNL     1       4.912  63.696  -1.041  1.00  0.00     0.005 C 
HETATM   10  C11 UNL     1       6.380  64.098  -1.311  1.00  0.00    -0.010 C 
HETATM   11  C12 UNL     1       6.803  63.398  -2.623  1.00  0.00     0.011 C 
HETATM   12  C13 UNL     1       6.538  62.895   1.858  1.00  0.00     0.053 C 
HETATM   13  C15 UNL     1       6.689  64.156   1.156  1.00  0.00     0.028 C 
HETATM   14  C16 UNL     1       7.213  65.371   1.734  1.00  0.00     0.041 C 
HETATM   15  C20 UNL     1       8.415  65.623   2.486  1.00  0.00     0.020 C 
HETATM   16  C21 UNL     1       9.795  65.496   1.995  1.00  0.00     0.048 C 
HETATM   17  C22 UNL     1      10.535  64.245   2.157  1.00  0.00     0.129 C 
HETATM   18  C23 UNL     1      11.911  64.576   1.662  1.00  0.00     0.183 C 
HETATM   19  O6  UNL     1      12.707  65.334   2.269  1.00  0.00    -0.290 OA
HETATM   20  C24 UNL     1      12.067  63.863   0.424  1.00  0.00     0.050 C 
HETATM   21  C25 UNL     1      11.135  62.971   0.347  1.00  0.00    -0.014 C 
HETATM   22  C26 UNL     1      10.238  63.005   1.572  1.00  0.00     0.057 C 
ENDROOT
BRANCH  14  23
HETATM   23  C17 UNL     1       6.104  65.865   2.721  1.00  0.00     0.147 C 
BRANCH  23  24
HETATM   24  N1  UNL     1       6.586  66.149   4.048  1.00  0.00    -0.319 N 
ATOM     25  H1  UNL     1       7.555  66.319   4.317  1.00  0.00     0.172 HD
BRANCH  24  26
HETATM   26  S1  UNL     1       5.192  66.148   5.114  1.00  0.00     0.222 S 
HETATM   27  C18 UNL     1       3.702  66.422   4.205  1.00  0.00     0.185 C 
HETATM   28  O3  UNL     1       5.073  64.811   5.790  1.00  0.00    -0.206 OA
HETATM   29  O4  UNL     1       5.300  67.175   6.174  1.00  0.00    -0.206 OA
ENDBRANCH  24  26
ENDBRANCH  23  24
ENDBRANCH  14  23
BRANCH  14  30
HETATM   30  C19 UNL     1       7.156  66.505   0.678  1.00  0.00     0.363 C 
HETATM   31  F1  UNL     1       7.548  67.727   1.263  1.00  0.00    -0.214 F 
HETATM   32  F2  UNL     1       5.839  66.794   0.363  1.00  0.00    -0.214 F 
ENDBRANCH  14  30
BRANCH  12  33
HETATM   33  C14 UNL     1       5.725  62.748   3.050  1.00  0.00     0.244 C 
HETATM   34  O2  UNL     1       4.831  61.933   3.228  1.00  0.00    -0.306 OA
ENDBRANCH  12  33
BRANCH   1  35
HETATM   35  O1  UNL     1       7.446  60.760   1.857  1.00  0.00    -0.384 OA
HETATM   36  C1  UNL     1       7.950  59.866   2.727  1.00  0.00     0.202 C 
ENDBRANCH   1  35
BRANCH  17  37
HETATM   37  O5  UNL     1      10.775  64.077   3.555  1.00  0.00    -0.381 OA
ATOM     38  H5  UNL     1      11.003  63.166   3.692  1.00  0.00     0.211 HD
ENDBRANCH  17  37
TORSDOF 7
ENDMDL
MODEL 5
REMARK VINA RESULT: -6.944502563      3.107      5.288
REMARK  7 active torsions:
REMARK  status: ('A' for Active; 'I' for Inactive)
REMARK    1  A    between atoms: O1_2  and  C2_3 
REMARK    2  A    between atoms: C13_14  and  C14_15 
REMARK    3  A    between atoms: C16_18  and  C17_19 
REMARK    4  A    between atoms: C16_18  and  C19_26 
REMARK    5  A    between atoms: C17_19  and  N1_20 
REMARK    6  A    between atoms: N1_20  and  S1_22 
REMARK    7  A    between atoms: C22_31  and  O5_32 
ROOT
HETATM    1  C2  UNL     1       4.669  62.250   0.477  1.00  0.00     0.076 C 
HETATM    2  C3  UNL     1       4.018  63.498  -0.127  1.00  0.00     0.047 C 
HETATM    3  C4  UNL     1       3.759  61.419   1.263  1.00  0.00     0.033 C 
HETATM    4  C5  UNL     1       4.263  60.738   2.532  1.00  0.00     0.018 C 
HETATM    5  C6  UNL     1       5.707  60.987   2.665  1.00  0.00    -0.030 C 
HETATM    6  C7  UNL     1       6.171  60.400   1.315  1.00  0.00     0.016 C 
HETATM    7  C8  UNL     1       6.974  61.511   0.866  1.00  0.00     0.005 C 
HETATM    8  C9  UNL     1       8.179  61.442   1.771  1.00  0.00     0.006 C 
HETATM    9  C10 UNL     1       8.036  60.602   2.997  1.00  0.00     0.005 C 
HETATM   10  C11 UNL     1       6.623  60.272   3.527  1.00  0.00    -0.010 C 
HETATM   11  C12 UNL     1       6.442  58.741   3.399  1.00  0.00     0.011 C 
HETATM   12  C13 UNL     1       5.976  62.663   1.209  1.00  0.00     0.053 C 
HETATM   13  C15 UNL     1       5.908  62.485   2.647  1.00  0.00     0.028 C 
HETATM   14  C16 UNL     1       5.262  63.391   3.567  1.00  0.00     0.041 C 
HETATM   15  C20 UNL     1       3.946  63.975   3.558  1.00  0.00     0.020 C 
HETATM   16  C21 UNL     1       2.670  63.254   3.681  1.00  0.00     0.048 C 
HETATM   17  C22 UNL     1       1.949  62.800   2.493  1.00  0.00     0.129 C 
HETATM   18  C23 UNL     1       0.664  62.252   3.040  1.00  0.00     0.183 C 
HETATM   19  O6  UNL     1      -0.242  62.965   3.538  1.00  0.00    -0.290 OA
HETATM   20  C24 UNL     1       0.735  60.829   2.863  1.00  0.00     0.050 C 
HETATM   21  C25 UNL     1       1.692  60.568   2.033  1.00  0.00    -0.014 C 
HETATM   22  C26 UNL     1       2.372  61.841   1.561  1.00  0.00     0.057 C 
ENDROOT
BRANCH  14  23
HETATM   23  C17 UNL     1       6.178  64.659   3.603  1.00  0.00     0.147 C 
BRANCH  23  24
HETATM   24  N1  UNL     1       5.466  65.900   3.435  1.00  0.00    -0.319 N 
ATOM     25  H1  UNL     1       4.651  66.055   2.842  1.00  0.00     0.172 HD
BRANCH  24  26
HETATM   26  S1  UNL     1       6.265  67.093   4.445  1.00  0.00     0.222 S 
HETATM   27  C18 UNL     1       6.107  68.711   3.754  1.00  0.00     0.185 C 
HETATM   28  O3  UNL     1       5.627  67.115   5.805  1.00  0.00    -0.206 OA
HETATM   29  O4  UNL     1       7.702  66.792   4.632  1.00  0.00    -0.206 OA
ENDBRANCH  24  26
ENDBRANCH  23  24
ENDBRANCH  14  23
BRANCH  14  30
HETATM   30  C19 UNL     1       5.461  62.876   5.016  1.00  0.00     0.363 C 
HETATM   31  F1  UNL     1       5.021  63.850   5.937  1.00  0.00    -0.214 F 
HETATM   32  F2  UNL     1       6.810  62.838   5.324  1.00  0.00    -0.214 F 
ENDBRANCH  14  30
BRANCH  12  33
HETATM   33  C14 UNL     1       6.585  63.824   0.586  1.00  0.00     0.244 C 
HETATM   34  O2  UNL     1       7.465  63.819  -0.263  1.00  0.00    -0.306 OA
ENDBRANCH  12  33
BRANCH   1  35
HETATM   35  O1  UNL     1       5.140  61.695  -0.727  1.00  0.00    -0.384 OA
HETATM   36  C1  UNL     1       4.328  61.746  -1.797  1.00  0.00     0.202 C 
ENDBRANCH   1  35
BRANCH  17  37
HETATM   37  O5  UNL     1       1.485  63.967   1.811  1.00  0.00    -0.381 OA
ATOM     38  H5  UNL     1       0.536  63.936   1.816  1.00  0.00     0.211 HD
ENDBRANCH  17  37
TORSDOF 7
ENDMDL
