MODEL 1
REMARK VINA RESULT: -8.536074078      0.000      0.000
REMARK  13 active torsions:
REMARK  status: ('A' for Active; 'I' for Inactive)
REMARK    1  A    between atoms: N1_7  and  C7_8 
REMARK    2  A    between atoms: C7_8  and  O1_9 
REMARK    3  A    between atoms: C7_8  and  C8_11 
REMARK    4  A    between atoms: N4_22  and  C16_23 
REMARK    5  A    between atoms: C16_23  and  O2_24 
REMARK    6  A    between atoms: C16_23  and  N5_26 
REMARK    7  A    between atoms: C20_31  and  C21_32 
REMARK    8  A    between atoms: C21_32  and  C22_34 
REMARK    9  A    between atoms: C22_34  and  C25_37 
REMARK   10  A    between atoms: C25_37  and  C26_38 
REMARK   11  A    between atoms: C26_38  and  O3_39 
REMARK   12  A    between atoms: C26_38  and  C27_41 
REMARK   13  A    between atoms: C27_41  and  N6_42 
ROOT
HETATM    1  C16 UNL     1       6.299  63.541   0.560  1.00  0.00     0.218 C 
ENDROOT
BRANCH   1   2
HETATM    2  N4  UNL     1       7.479  63.817   1.239  1.00  0.00    -0.343 N 
HETATM    3  C2  UNL     1       7.761  63.824   2.630  1.00  0.00     0.084 C 
HETATM    4  C1  UNL     1       7.392  65.094   3.362  1.00  0.00     0.032 C 
HETATM    5  C3  UNL     1       9.223  63.522   2.941  1.00  0.00     0.034 C 
HETATM    6  C4  UNL     1      10.220  64.419   2.308  1.00  0.00    -0.034 C 
HETATM    7  C5  UNL     1      10.667  65.482   3.273  1.00  0.00     0.029 C 
HETATM    8  C13 UNL     1      11.380  63.505   1.873  1.00  0.00     0.029 C 
HETATM    9  C14 UNL     1       9.642  65.007   1.055  1.00  0.00     0.029 C 
HETATM   10  C6  UNL     1      11.909  66.216   2.893  1.00  0.00     0.125 C 
HETATM   11  N1  UNL     1      12.953  65.140   2.756  1.00  0.00    -0.360 N 
HETATM   12  C12 UNL     1      12.639  64.310   1.636  1.00  0.00     0.125 C 
HETATM   13  C15 UNL     1       8.673  64.134   0.361  1.00  0.00     0.127 C 
BRANCH  11  14
HETATM   14  C7  UNL     1      13.998  65.123   3.674  1.00  0.00     0.167 C 
BRANCH  14  15
HETATM   15  O1  UNL     1      15.186  65.166   3.107  1.00  0.00    -0.344 OA
ATOM     16  H1  UNL     1      15.785  64.513   3.447  1.00  0.00     0.219 HD
ENDBRANCH  14  15
BRANCH  14  17
HETATM   17  C8  UNL     1      14.039  65.071   5.093  1.00  0.00     0.102 A 
HETATM   18  C9  UNL     1      13.390  65.810   6.044  1.00  0.00     0.054 A 
HETATM   19  C10 UNL     1      13.751  65.369   7.332  1.00  0.00     0.110 A 
HETATM   20  N2  UNL     1      14.607  64.377   7.109  1.00  0.00    -0.310 N 
HETATM   21  N3  UNL     1      14.786  64.191   5.822  1.00  0.00    -0.293 N 
ATOM     22  H2  UNL     1      15.064  63.833   7.842  1.00  0.00     0.186 HD
HETATM   23  C11 UNL     1      15.679  63.163   5.315  1.00  0.00     0.178 C 
ENDBRANCH  14  17
ENDBRANCH  11  14
ENDBRANCH   1   2
BRANCH   1  24
HETATM   24  O2  UNL     1       5.988  64.537  -0.251  1.00  0.00    -0.332 OA
ATOM     25  H2  UNL     1       6.239  64.330  -1.143  1.00  0.00     0.220 HD
ENDBRANCH   1  24
BRANCH   1  26
HETATM   26  N5  UNL     1       5.407  62.494   0.540  1.00  0.00    -0.334 N 
HETATM   27  C17 UNL     1       3.983  62.536   0.216  1.00  0.00     0.164 C 
HETATM   28  C18 UNL     1       3.855  61.377  -0.817  1.00  0.00     0.190 C 
HETATM   29  F1  UNL     1       2.809  60.589  -0.430  1.00  0.00    -0.248 F 
HETATM   30  C19 UNL     1       5.156  60.577  -0.608  1.00  0.00     0.071 C 
HETATM   31  C20 UNL     1       5.495  61.081   0.784  1.00  0.00     0.149 C 
BRANCH  31  32
HETATM   32  C21 UNL     1       6.505  60.319   1.413  1.00  0.00     0.102 C 
HETATM   33  F2  UNL     1       7.817  60.783   1.193  1.00  0.00    -0.212 F 
BRANCH  32  34
HETATM   34  C22 UNL     1       6.395  59.676   2.722  1.00  0.00     0.007 C 
HETATM   35  C23 UNL     1       6.248  60.713   3.866  1.00  0.00     0.022 C 
HETATM   36  C24 UNL     1       7.817  59.104   3.036  1.00  0.00     0.022 C 
BRANCH  34  37
HETATM   37  C25 UNL     1       5.463  58.583   2.994  1.00  0.00     0.049 C 
BRANCH  37  38
HETATM   38  C26 UNL     1       4.877  57.706   1.982  1.00  0.00     0.144 C 
BRANCH  38  39
HETATM   39  O3  UNL     1       5.027  56.371   2.577  1.00  0.00    -0.394 OA
ATOM     40  H3  UNL     1       4.134  56.052   2.612  1.00  0.00     0.210 HD
ENDBRANCH  38  39
BRANCH  38  41
HETATM   41  C27 UNL     1       3.433  57.727   1.655  1.00  0.00     0.261 C 
BRANCH  41  42
HETATM   42  N6  UNL     1       3.235  57.382   0.264  1.00  0.00    -0.077 N 
ATOM     43  H63 UNL     1       4.102  57.086  -0.183  1.00  0.00     0.274 HD
ATOM     44  H62 UNL     1       2.709  56.515   0.157  1.00  0.00     0.274 HD
ATOM     45  H61 UNL     1       2.797  58.159  -0.228  1.00  0.00     0.274 HD
ENDBRANCH  41  42
ENDBRANCH  38  41
ENDBRANCH  37  38
ENDBRANCH  34  37
ENDBRANCH  32  34
ENDBRANCH  31  32
ENDBRANCH   1  26
TORSDOF 13
ENDMDL
MODEL 2
REMARK VINA RESULT: -8.179234031      1.660      1.840
REMARK  13 active torsions:
REMARK  status: ('A' for Active; 'I' for Inactive)
REMARK    1  A    between atoms: N1_7  and  C7_8 
REMARK    2  A    between atoms: C7_8  and  O1_9 
REMARK    3  A    between atoms: C7_8  and  C8_11 
REMARK    4  A    between atoms: N4_22  and  C16_23 
REMARK    5  A    between atoms: C16_23  and  O2_24 
REMARK    6  A    between atoms: C16_23  and  N5_26 
REMARK    7  A    between atoms: C20_31  and  C21_32 
REMARK    8  A    between atoms: C21_32  and  C22_34 
REMARK    9  A    between atoms: C22_34  and  C25_37 
REMARK   10  A    between atoms: C25_37  and  C26_38 
REMARK   11  A    between atoms: C26_38  and  O3_39 
REMARK   12  A    between atoms: C26_38  and  C27_41 
REMARK   13  A    between atoms: C27_41  and  N6_42 
ROOT
HETATM    1  C16 UNL     1       4.796  63.287   1.772  1.00  0.00     0.218 C 
ENDROOT
BRANCH   1   2
HETATM    2  N4  UNL     1       6.070  63.768   2.052  1.00  0.00    -0.343 N 
HETATM    3  C2  UNL     1       6.528  64.599   3.107  1.00  0.00     0.084 C 
HETATM    4  C1  UNL     1       6.340  66.084   2.894  1.00  0.00     0.032 C 
HETATM    5  C3  UNL     1       7.996  64.368   3.450  1.00  0.00     0.034 C 
HETATM    6  C4  UNL     1       8.959  64.539   2.334  1.00  0.00    -0.034 C 
HETATM    7  C5  UNL     1       9.593  65.901   2.383  1.00  0.00     0.029 C 
HETATM    8  C13 UNL     1       9.992  63.410   2.504  1.00  0.00     0.029 C 
HETATM    9  C14 UNL     1       8.262  64.291   1.029  1.00  0.00     0.029 C 
HETATM   10  C6  UNL     1      10.820  66.069   1.551  1.00  0.00     0.125 C 
HETATM   11  N1  UNL     1      11.767  65.016   2.061  1.00  0.00    -0.360 N 
HETATM   12  C12 UNL     1      11.259  63.720   1.737  1.00  0.00     0.125 C 
HETATM   13  C15 UNL     1       7.158  63.312   1.101  1.00  0.00     0.127 C 
BRANCH  11  14
HETATM   14  C7  UNL     1      12.918  65.436   2.719  1.00  0.00     0.167 C 
BRANCH  14  15
HETATM   15  O1  UNL     1      13.787  66.020   1.919  1.00  0.00    -0.344 OA
ATOM     16  H1  UNL     1      14.547  65.480   1.736  1.00  0.00     0.219 HD
ENDBRANCH  14  15
BRANCH  14  17
HETATM   17  C8  UNL     1      13.341  65.365   4.072  1.00  0.00     0.102 A 
HETATM   18  C9  UNL     1      12.829  65.926   5.211  1.00  0.00     0.054 A 
HETATM   19  C10 UNL     1      13.598  65.546   6.328  1.00  0.00     0.110 A 
HETATM   20  N2  UNL     1      14.548  64.767   5.821  1.00  0.00    -0.310 N 
HETATM   21  N3  UNL     1      14.416  64.651   4.519  1.00  0.00    -0.293 N 
ATOM     22  H2  UNL     1      15.282  64.319   6.370  1.00  0.00     0.186 HD
HETATM   23  C11 UNL     1      15.333  63.851   3.727  1.00  0.00     0.178 C 
ENDBRANCH  14  17
ENDBRANCH  11  14
ENDBRANCH   1   2
BRANCH   1  24
HETATM   24  O2  UNL     1       4.138  64.141   1.009  1.00  0.00    -0.332 OA
ATOM     25  H2  UNL     1       3.220  64.165   1.253  1.00  0.00     0.220 HD
ENDBRANCH   1  24
BRANCH   1  26
HETATM   26  N5  UNL     1       4.088  62.155   2.099  1.00  0.00    -0.334 N 
HETATM   27  C17 UNL     1       2.715  62.069   2.592  1.00  0.00     0.164 C 
HETATM   28  C18 UNL     1       2.105  60.988   1.650  1.00  0.00     0.190 C 
HETATM   29  F1  UNL     1       1.474  60.063   2.432  1.00  0.00    -0.248 F 
HETATM   30  C19 UNL     1       3.348  60.319   1.033  1.00  0.00     0.071 C 
HETATM   31  C20 UNL     1       4.362  60.744   2.080  1.00  0.00     0.149 C 
BRANCH  31  32
HETATM   32  C21 UNL     1       5.587  60.049   1.974  1.00  0.00     0.102 C 
HETATM   33  F2  UNL     1       6.249  60.207   0.741  1.00  0.00    -0.212 F 
BRANCH  32  34
HETATM   34  C22 UNL     1       6.549  59.849   3.057  1.00  0.00     0.007 C 
HETATM   35  C23 UNL     1       6.458  60.969   4.126  1.00  0.00     0.022 C 
HETATM   36  C24 UNL     1       7.953  60.156   2.441  1.00  0.00     0.022 C 
BRANCH  34  37
HETATM   37  C25 UNL     1       6.699  58.577   3.762  1.00  0.00     0.049 C 
BRANCH  37  38
HETATM   38  C26 UNL     1       6.730  57.261   3.125  1.00  0.00     0.144 C 
BRANCH  38  39
HETATM   39  O3  UNL     1       7.401  56.426   4.130  1.00  0.00    -0.394 OA
ATOM     40  H3  UNL     1       8.236  56.231   3.721  1.00  0.00     0.210 HD
ENDBRANCH  38  39
BRANCH  38  41
HETATM   41  C27 UNL     1       5.500  56.480   2.860  1.00  0.00     0.261 C 
BRANCH  41  42
HETATM   42  N6  UNL     1       4.953  56.842   1.570  1.00  0.00    -0.077 N 
ATOM     43  H63 UNL     1       4.495  57.752   1.591  1.00  0.00     0.274 HD
ATOM     44  H62 UNL     1       5.683  57.058   0.892  1.00  0.00     0.274 HD
ATOM     45  H61 UNL     1       4.328  56.107   1.239  1.00  0.00     0.274 HD
ENDBRANCH  41  42
ENDBRANCH  38  41
ENDBRANCH  37  38
ENDBRANCH  34  37
ENDBRANCH  32  34
ENDBRANCH  31  32
ENDBRANCH   1  26
TORSDOF 13
ENDMDL
MODEL 3
REMARK VINA RESULT: -7.754694977      2.584      9.948
REMARK  13 active torsions:
REMARK  status: ('A' for Active; 'I' for Inactive)
REMARK    1  A    between atoms: N1_7  and  C7_8 
REMARK    2  A    between atoms: C7_8  and  O1_9 
REMARK    3  A    between atoms: C7_8  and  C8_11 
REMARK    4  A    between atoms: N4_22  and  C16_23 
REMARK    5  A    between atoms: C16_23  and  O2_24 
REMARK    6  A    between atoms: C16_23  and  N5_26 
REMARK    7  A    between atoms: C20_31  and  C21_32 
REMARK    8  A    between atoms: C21_32  and  C22_34 
REMARK    9  A    between atoms: C22_34  and  C25_37 
REMARK   10  A    between atoms: C25_37  and  C26_38 
REMARK   11  A    between atoms: C26_38  and  O3_39 
REMARK   12  A    between atoms: C26_38  and  C27_41 
REMARK   13  A    between atoms: C27_41  and  N6_42 
ROOT
HETATM    1  C16 UNL     1       7.353  65.434   3.778  1.00  0.00     0.218 C 
ENDROOT
BRANCH   1   2
HETATM    2  N4  UNL     1       6.752  64.213   3.498  1.00  0.00    -0.343 N 
HETATM    3  C2  UNL     1       5.932  63.384   4.308  1.00  0.00     0.084 C 
HETATM    4  C1  UNL     1       6.670  62.466   5.255  1.00  0.00     0.032 C 
HETATM    5  C3  UNL     1       4.968  62.527   3.495  1.00  0.00     0.034 C 
HETATM    6  C4  UNL     1       5.586  61.639   2.480  1.00  0.00    -0.034 C 
HETATM    7  C5  UNL     1       5.727  60.240   3.011  1.00  0.00     0.029 C 
HETATM    8  C13 UNL     1       4.656  61.705   1.254  1.00  0.00     0.029 C 
HETATM    9  C14 UNL     1       6.904  62.211   2.050  1.00  0.00     0.029 C 
HETATM   10  C6  UNL     1       5.994  59.187   1.989  1.00  0.00     0.125 C 
HETATM   11  N1  UNL     1       4.833  59.287   1.035  1.00  0.00    -0.360 N 
HETATM   12  C12 UNL     1       4.898  60.529   0.333  1.00  0.00     0.125 C 
HETATM   13  C15 UNL     1       6.975  63.686   2.095  1.00  0.00     0.127 C 
BRANCH  11  14
HETATM   14  C7  UNL     1       3.939  58.222   0.982  1.00  0.00     0.167 C 
BRANCH  14  15
HETATM   15  O1  UNL     1       4.526  57.048   1.085  1.00  0.00    -0.344 OA
ATOM     16  H1  UNL     1       3.998  56.405   1.543  1.00  0.00     0.219 HD
ENDBRANCH  14  15
BRANCH  14  17
HETATM   17  C8  UNL     1       2.528  58.149   0.841  1.00  0.00     0.102 A 
HETATM   18  C9  UNL     1       1.537  57.929   1.759  1.00  0.00     0.054 A 
HETATM   19  C10 UNL     1       0.277  57.964   1.132  1.00  0.00     0.110 A 
HETATM   20  N2  UNL     1       0.554  58.204  -0.145  1.00  0.00    -0.310 N 
HETATM   21  N3  UNL     1       1.849  58.314  -0.332  1.00  0.00    -0.293 N 
ATOM     22  H2  UNL     1      -0.147  58.292  -0.882  1.00  0.00     0.186 HD
HETATM   23  C11 UNL     1       2.412  58.576  -1.646  1.00  0.00     0.178 C 
ENDBRANCH  14  17
ENDBRANCH  11  14
ENDBRANCH   1   2
BRANCH   1  24
HETATM   24  O2  UNL     1       6.996  65.862   4.975  1.00  0.00    -0.332 OA
ATOM     25  H2  UNL     1       7.506  66.624   5.222  1.00  0.00     0.220 HD
ENDBRANCH   1  24
BRANCH   1  26
HETATM   26  N5  UNL     1       8.213  66.273   3.109  1.00  0.00    -0.334 N 
HETATM   27  C17 UNL     1       7.898  67.539   2.449  1.00  0.00     0.164 C 
HETATM   28  C18 UNL     1       8.994  68.482   3.028  1.00  0.00     0.190 C 
HETATM   29  F1  UNL     1       9.578  69.133   1.979  1.00  0.00    -0.248 F 
HETATM   30  C19 UNL     1      10.028  67.501   3.613  1.00  0.00     0.071 C 
HETATM   31  C20 UNL     1       9.622  66.267   2.825  1.00  0.00     0.149 C 
BRANCH  31  32
HETATM   32  C21 UNL     1      10.571  65.224   2.909  1.00  0.00     0.102 C 
HETATM   33  F2  UNL     1      10.019  63.935   3.041  1.00  0.00    -0.212 F 
BRANCH  32  34
HETATM   34  C22 UNL     1      11.844  65.173   2.190  1.00  0.00     0.007 C 
HETATM   35  C23 UNL     1      11.745  65.830   0.789  1.00  0.00     0.022 C 
HETATM   36  C24 UNL     1      12.046  63.675   1.789  1.00  0.00     0.022 C 
BRANCH  34  37
HETATM   37  C25 UNL     1      13.110  65.594   2.787  1.00  0.00     0.049 C 
BRANCH  37  38
HETATM   38  C26 UNL     1      13.900  64.803   3.729  1.00  0.00     0.144 C 
BRANCH  38  39
HETATM   39  O3  UNL     1      15.270  64.967   3.227  1.00  0.00    -0.394 OA
ATOM     40  H3  UNL     1      15.338  65.905   3.096  1.00  0.00     0.210 HD
ENDBRANCH  38  39
BRANCH  38  41
HETATM   41  C27 UNL     1      14.055  65.185   5.151  1.00  0.00     0.261 C 
BRANCH  41  42
HETATM   42  N6  UNL     1      12.822  65.758   5.646  1.00  0.00    -0.077 N 
ATOM     43  H63 UNL     1      12.240  66.122   4.893  1.00  0.00     0.274 HD
ATOM     44  H62 UNL     1      12.183  65.045   5.998  1.00  0.00     0.274 HD
ATOM     45  H61 UNL     1      13.025  66.469   6.349  1.00  0.00     0.274 HD
ENDBRANCH  41  42
ENDBRANCH  38  41
ENDBRANCH  37  38
ENDBRANCH  34  37
ENDBRANCH  32  34
ENDBRANCH  31  32
ENDBRANCH   1  26
TORSDOF 13
ENDMDL
MODEL 4
REMARK VINA RESULT: -7.691234296      1.637      2.287
REMARK  13 active torsions:
REMARK  status: ('A' for Active; 'I' for Inactive)
REMARK    1  A    between atoms: N1_7  and  C7_8 
REMARK    2  A    between atoms: C7_8  and  O1_9 
REMARK    3  A    between atoms: C7_8  and  C8_11 
REMARK    4  A    between atoms: N4_22  and  C16_23 
REMARK    5  A    between atoms: C16_23  and  O2_24 
REMARK    6  A    between atoms: C16_23  and  N5_26 
REMARK    7  A    between atoms: C20_31  and  C21_32 
REMARK    8  A    between atoms: C21_32  and  C22_34 
REMARK    9  A    between atoms: C22_34  and  C25_37 
REMARK   10  A    between atoms: C25_37  and  C26_38 
REMARK   11  A    between atoms: C26_38  and  O3_39 
REMARK   12  A    between atoms: C26_38  and  C27_41 
REMARK   13  A    between atoms: C27_41  and  N6_42 
ROOT
HETATM    1  C16 UNL     1       6.543  64.124   0.200  1.00  0.00     0.218 C 
ENDROOT
BRANCH   1   2
HETATM    2  N4  UNL     1       7.700  64.291   0.951  1.00  0.00    -0.343 N 
HETATM    3  C2  UNL     1       7.901  64.237   2.355  1.00  0.00     0.084 C 
HETATM    4  C1  UNL     1       7.586  65.509   3.108  1.00  0.00     0.032 C 
HETATM    5  C3  UNL     1       9.317  63.816   2.736  1.00  0.00     0.034 C 
HETATM    6  C4  UNL     1      10.412  64.654   2.189  1.00  0.00    -0.034 C 
HETATM    7  C5  UNL     1      10.880  65.653   3.212  1.00  0.00     0.029 C 
HETATM    8  C13 UNL     1      11.524  63.668   1.788  1.00  0.00     0.029 C 
HETATM    9  C14 UNL     1       9.951  65.319   0.926  1.00  0.00     0.029 C 
HETATM   10  C6  UNL     1      12.192  66.301   2.924  1.00  0.00     0.125 C 
HETATM   11  N1  UNL     1      13.160  65.154   2.809  1.00  0.00    -0.360 N 
HETATM   12  C12 UNL     1      12.851  64.383   1.647  1.00  0.00     0.125 C 
HETATM   13  C15 UNL     1       8.962  64.543   0.151  1.00  0.00     0.127 C 
BRANCH  11  14
HETATM   14  C7  UNL     1      14.147  65.032   3.783  1.00  0.00     0.167 C 
BRANCH  14  15
HETATM   15  O1  UNL     1      15.363  64.979   3.282  1.00  0.00    -0.344 OA
ATOM     16  H1  UNL     1      15.761  65.835   3.175  1.00  0.00     0.219 HD
ENDBRANCH  14  15
BRANCH  14  17
HETATM   17  C8  UNL     1      14.104  64.957   5.200  1.00  0.00     0.102 A 
HETATM   18  C9  UNL     1      13.410  65.690   6.125  1.00  0.00     0.054 A 
HETATM   19  C10 UNL     1      13.689  65.223   7.424  1.00  0.00     0.110 A 
HETATM   20  N2  UNL     1      14.544  64.223   7.235  1.00  0.00    -0.310 N 
HETATM   21  N3  UNL     1      14.796  64.055   5.957  1.00  0.00    -0.293 N 
ATOM     22  H2  UNL     1      14.950  63.661   7.983  1.00  0.00     0.186 HD
HETATM   23  C11 UNL     1      15.704  63.023   5.486  1.00  0.00     0.178 C 
ENDBRANCH  14  17
ENDBRANCH  11  14
ENDBRANCH   1   2
BRANCH   1  24
HETATM   24  O2  UNL     1       6.249  65.236  -0.450  1.00  0.00    -0.332 OA
ATOM     25  H2  UNL     1       6.644  65.986  -0.021  1.00  0.00     0.220 HD
ENDBRANCH   1  24
BRANCH   1  26
HETATM   26  N5  UNL     1       5.661  63.092  -0.016  1.00  0.00    -0.334 N 
HETATM   27  C17 UNL     1       4.315  63.166  -0.579  1.00  0.00     0.164 C 
HETATM   28  C18 UNL     1       4.360  62.049  -1.665  1.00  0.00     0.190 C 
HETATM   29  F1  UNL     1       3.257  61.262  -1.497  1.00  0.00    -0.248 F 
HETATM   30  C19 UNL     1       5.599  61.224  -1.266  1.00  0.00     0.071 C 
HETATM   31  C20 UNL     1       5.695  61.669   0.183  1.00  0.00     0.149 C 
BRANCH  31  32
HETATM   32  C21 UNL     1       6.575  60.869   0.946  1.00  0.00     0.102 C 
HETATM   33  F2  UNL     1       7.920  61.285   0.921  1.00  0.00    -0.212 F 
BRANCH  32  34
HETATM   34  C22 UNL     1       6.253  60.230   2.222  1.00  0.00     0.007 C 
HETATM   35  C23 UNL     1       7.513  59.643   2.910  1.00  0.00     0.022 C 
HETATM   36  C24 UNL     1       5.489  58.915   1.857  1.00  0.00     0.022 C 
BRANCH  34  37
HETATM   37  C25 UNL     1       5.448  60.879   3.255  1.00  0.00     0.049 C 
BRANCH  37  38
HETATM   38  C26 UNL     1       5.427  62.315   3.526  1.00  0.00     0.144 C 
BRANCH  38  39
HETATM   39  O3  UNL     1       4.001  62.649   3.415  1.00  0.00    -0.394 OA
ATOM     40  H3  UNL     1       3.611  61.828   3.143  1.00  0.00     0.210 HD
ENDBRANCH  38  39
BRANCH  38  41
HETATM   41  C27 UNL     1       5.763  62.876   4.854  1.00  0.00     0.261 C 
BRANCH  41  42
HETATM   42  N6  UNL     1       6.984  62.279   5.349  1.00  0.00    -0.077 N 
ATOM     43  H63 UNL     1       7.809  62.810   5.072  1.00  0.00     0.274 HD
ATOM     44  H62 UNL     1       7.076  62.377   6.360  1.00  0.00     0.274 HD
ATOM     45  H61 UNL     1       7.041  61.304   5.053  1.00  0.00     0.274 HD
ENDBRANCH  41  42
ENDBRANCH  38  41
ENDBRANCH  37  38
ENDBRANCH  34  37
ENDBRANCH  32  34
ENDBRANCH  31  32
ENDBRANCH   1  26
TORSDOF 13
ENDMDL
MODEL 5
REMARK VINA RESULT: -7.640437480      3.082      9.197
REMARK  13 active torsions:
REMARK  status: ('A' for Active; 'I' for Inactive)
REMARK    1  A    between atoms: N1_7  and  C7_8 
REMARK    2  A    between atoms: C7_8  and  O1_9 
REMARK    3  A    between atoms: C7_8  and  C8_11 
REMARK    4  A    between atoms: N4_22  and  C16_23 
REMARK    5  A    between atoms: C16_23  and  O2_24 
REMARK    6  A    between atoms: C16_23  and  N5_26 
REMARK    7  A    between atoms: C20_31  and  C21_32 
REMARK    8  A    between atoms: C21_32  and  C22_34 
REMARK    9  A    between atoms: C22_34  and  C25_37 
REMARK   10  A    between atoms: C25_37  and  C26_38 
REMARK   11  A    between atoms: C26_38  and  O3_39 
REMARK   12  A    between atoms: C26_38  and  C27_41 
REMARK   13  A    between atoms: C27_41  and  N6_42 
ROOT
HETATM    1  C16 UNL     1       7.925  66.759   3.102  1.00  0.00     0.218 C 
ENDROOT
BRANCH   1   2
HETATM    2  N4  UNL     1       7.626  65.455   2.727  1.00  0.00    -0.343 N 
HETATM    3  C2  UNL     1       8.436  64.466   2.111  1.00  0.00     0.084 C 
HETATM    4  C1  UNL     1       8.541  64.556   0.606  1.00  0.00     0.032 C 
HETATM    5  C3  UNL     1       8.003  63.044   2.456  1.00  0.00     0.034 C 
HETATM    6  C4  UNL     1       6.598  62.697   2.131  1.00  0.00    -0.034 C 
HETATM    7  C5  UNL     1       6.521  61.957   0.824  1.00  0.00     0.029 C 
HETATM    8  C13 UNL     1       6.101  61.843   3.312  1.00  0.00     0.029 C 
HETATM    9  C14 UNL     1       5.762  63.943   2.120  1.00  0.00     0.029 C 
HETATM   10  C6  UNL     1       5.236  61.246   0.561  1.00  0.00     0.125 C 
HETATM   11  N1  UNL     1       5.086  60.301   1.723  1.00  0.00    -0.360 N 
HETATM   12  C12 UNL     1       4.872  61.049   2.922  1.00  0.00     0.125 C 
HETATM   13  C15 UNL     1       6.219  64.994   3.053  1.00  0.00     0.127 C 
BRANCH  11  14
HETATM   14  C7  UNL     1       5.165  58.936   1.469  1.00  0.00     0.167 C 
BRANCH  14  15
HETATM   15  O1  UNL     1       4.931  58.631   0.210  1.00  0.00    -0.344 OA
ATOM     16  H1  UNL     1       5.217  57.754  -0.021  1.00  0.00     0.219 HD
ENDBRANCH  14  15
BRANCH  14  17
HETATM   17  C8  UNL     1       5.448  57.813   2.290  1.00  0.00     0.102 A 
HETATM   18  C9  UNL     1       4.753  56.656   2.512  1.00  0.00     0.054 A 
HETATM   19  C10 UNL     1       5.457  55.830   3.410  1.00  0.00     0.110 A 
HETATM   20  N2  UNL     1       6.554  56.521   3.698  1.00  0.00    -0.310 N 
HETATM   21  N3  UNL     1       6.566  57.670   3.061  1.00  0.00    -0.293 N 
ATOM     22  H2  UNL     1       7.289  56.202   4.330  1.00  0.00     0.186 HD
HETATM   23  C11 UNL     1       7.661  58.614   3.209  1.00  0.00     0.178 C 
ENDBRANCH  14  17
ENDBRANCH  11  14
ENDBRANCH   1   2
BRANCH   1  24
HETATM   24  O2  UNL     1       7.032  67.209   3.965  1.00  0.00    -0.332 OA
ATOM     25  H2  UNL     1       7.229  68.105   4.210  1.00  0.00     0.220 HD
ENDBRANCH   1  24
BRANCH   1  26
HETATM   26  N5  UNL     1       8.914  67.661   2.787  1.00  0.00    -0.334 N 
HETATM   27  C17 UNL     1       8.798  68.871   1.976  1.00  0.00     0.164 C 
HETATM   28  C18 UNL     1       9.482  69.934   2.888  1.00  0.00     0.190 C 
HETATM   29  F1  UNL     1      10.391  70.611   2.127  1.00  0.00    -0.248 F 
HETATM   30  C19 UNL     1      10.259  69.075   3.905  1.00  0.00     0.071 C 
HETATM   31  C20 UNL     1      10.311  67.787   3.101  1.00  0.00     0.149 C 
BRANCH  31  32
HETATM   32  C21 UNL     1      11.222  66.846   3.631  1.00  0.00     0.102 C 
HETATM   33  F2  UNL     1      10.860  66.318   4.886  1.00  0.00    -0.212 F 
BRANCH  32  34
HETATM   34  C22 UNL     1      11.978  65.864   2.854  1.00  0.00     0.007 C 
HETATM   35  C23 UNL     1      11.729  66.014   1.331  1.00  0.00     0.022 C 
HETATM   36  C24 UNL     1      11.289  64.486   3.123  1.00  0.00     0.022 C 
BRANCH  34  37
HETATM   37  C25 UNL     1      13.409  65.632   3.046  1.00  0.00     0.049 C 
BRANCH  37  38
HETATM   38  C26 UNL     1      13.985  64.594   3.900  1.00  0.00     0.144 C 
BRANCH  38  39
HETATM   39  O3  UNL     1      14.899  63.890   2.990  1.00  0.00    -0.394 OA
ATOM     40  H3  UNL     1      14.359  63.186   2.650  1.00  0.00     0.210 HD
ENDBRANCH  38  39
BRANCH  38  41
HETATM   41  C27 UNL     1      14.879  64.909   5.037  1.00  0.00     0.261 C 
BRANCH  41  42
HETATM   42  N6  UNL     1      14.139  65.597   6.073  1.00  0.00    -0.077 N 
ATOM     43  H63 UNL     1      13.473  66.265   5.687  1.00  0.00     0.274 HD
ATOM     44  H62 UNL     1      13.476  64.980   6.543  1.00  0.00     0.274 HD
ATOM     45  H61 UNL     1      14.784  66.036   6.729  1.00  0.00     0.274 HD
ENDBRANCH  41  42
ENDBRANCH  38  41
ENDBRANCH  37  38
ENDBRANCH  34  37
ENDBRANCH  32  34
ENDBRANCH  31  32
ENDBRANCH   1  26
TORSDOF 13
ENDMDL
