MODEL 1
REMARK VINA RESULT: -7.221191813      0.000      0.000
REMARK  7 active torsions:
REMARK  status: ('A' for Active; 'I' for Inactive)
REMARK    1  A    between atoms: O1_2  and  C2_3 
REMARK    2  A    between atoms: C2_3  and  C5_6 
REMARK    3  A    between atoms: C5_6  and  N1_7 
REMARK    4  A    between atoms: C8_12  and  C9_13 
REMARK       I    between atoms: N3_17  and  C13_18 
REMARK       I    between atoms: C13_18  and  N4_20 
REMARK    5  A    between atoms: N4_20  and  C14_22 
REMARK       I    between atoms: N5_25  and  C17_26 
REMARK    6  A    between atoms: C17_26  and  C18_28 
REMARK    7  A    between atoms: C19_29  and  C20_30 
ROOT
HETATM    1  N1  UNL     1       4.073  58.917   1.994  1.00  0.00    -0.292 N 
HETATM    2  N2  UNL     1       3.784  60.256   1.975  1.00  0.00    -0.300 N 
ATOM      3  H2  UNL     1       2.878  60.636   1.701  1.00  0.00     0.187 HD
HETATM    4  C6  UNL     1       4.811  61.000   2.354  1.00  0.00     0.053 A 
HETATM    5  C7  UNL     1       5.816  60.171   2.630  1.00  0.00     0.010 A 
HETATM    6  C8  UNL     1       5.333  58.841   2.400  1.00  0.00     0.042 A 
HETATM    7  C12 UNL     1       7.002  60.938   3.081  1.00  0.00     0.170 C 
HETATM    8  N3  UNL     1       6.634  62.301   2.929  1.00  0.00    -0.324 N 
HETATM    9  C13 UNL     1       7.471  63.486   3.000  1.00  0.00     0.319 C 
HETATM   10  O2  UNL     1       8.670  63.372   3.140  1.00  0.00    -0.247 OA
HETATM   11  N4  UNL     1       6.832  64.731   2.897  1.00  0.00    -0.338 N 
ATOM     12  H4  UNL     1       5.818  64.682   2.797  1.00  0.00     0.164 HD
HETATM   13  C24 UNL     1       5.220  62.412   2.646  1.00  0.00     0.187 C 
ENDROOT
BRANCH  11  14
HETATM   14  C14 UNL     1       7.359  66.043   2.907  1.00  0.00     0.089 C 
HETATM   15  C15 UNL     1       8.080  66.303   4.179  1.00  0.00     0.045 C 
HETATM   16  C16 UNL     1       8.768  67.659   4.137  1.00  0.00     0.127 C 
HETATM   17  N5  UNL     1       8.296  68.395   2.973  1.00  0.00    -0.352 N 
HETATM   18  C17 UNL     1       7.598  69.586   3.147  1.00  0.00     0.228 C 
HETATM   19  C22 UNL     1       8.583  67.827   1.693  1.00  0.00     0.127 C 
HETATM   20  O3  UNL     1       7.488  70.015   4.365  1.00  0.00    -0.273 OA
HETATM   21  C23 UNL     1       8.346  66.300   1.756  1.00  0.00     0.045 C 
BRANCH  18  22
HETATM   22  C18 UNL     1       6.957  70.420   2.123  1.00  0.00     0.135 A 
HETATM   23  C19 UNL     1       7.839  71.510   1.487  1.00  0.00     0.142 A 
HETATM   24  C21 UNL     1       6.674  71.839   2.330  1.00  0.00     0.140 A 
HETATM   25 CL1  UNL     1       7.036  72.683   3.844  1.00  0.00    -0.100 Cl
HETATM   26 CL2  UNL     1       5.255  72.513   1.462  1.00  0.00    -0.100 Cl
BRANCH  23  27
HETATM   27  C20 UNL     1       7.720  71.588  -0.001  1.00  0.00     0.181 C 
HETATM   28  O4  UNL     1       7.632  70.612  -0.753  1.00  0.00    -0.648 OA
HETATM   29  O5  UNL     1       7.710  72.902  -0.532  1.00  0.00    -0.648 OA
ENDBRANCH  23  27
ENDBRANCH  18  22
ENDBRANCH  11  14
BRANCH   6  30
HETATM   30  C9  UNL     1       6.285  57.720   2.525  1.00  0.00     0.038 A 
HETATM   31  C10 UNL     1       7.055  57.496   3.777  1.00  0.00     0.011 A 
HETATM   32  C11 UNL     1       5.990  56.505   3.352  1.00  0.00     0.011 A 
ENDBRANCH   6  30
BRANCH   1  33
HETATM   33  C5  UNL     1       3.018  58.040   1.613  1.00  0.00     0.186 C 
BRANCH  33  34
HETATM   34  C2  UNL     1       2.298  58.327   0.313  1.00  0.00     0.071 C 
HETATM   35  C3  UNL     1       2.048  56.967  -0.375  1.00  0.00     0.047 C 
HETATM   36  C4  UNL     1       0.953  58.943   0.579  1.00  0.00     0.047 C 
BRANCH  34  37
HETATM   37  O1  UNL     1       3.028  59.121  -0.511  1.00  0.00    -0.384 OA
HETATM   38  C1  UNL     1       2.790  58.884  -1.841  1.00  0.00     0.202 C 
ENDBRANCH  34  37
ENDBRANCH  33  34
ENDBRANCH   1  33
TORSDOF 7
ENDMDL
MODEL 2
REMARK VINA RESULT: -7.205455509      2.525      3.105
REMARK  7 active torsions:
REMARK  status: ('A' for Active; 'I' for Inactive)
REMARK    1  A    between atoms: O1_2  and  C2_3 
REMARK    2  A    between atoms: C2_3  and  C5_6 
REMARK    3  A    between atoms: C5_6  and  N1_7 
REMARK    4  A    between atoms: C8_12  and  C9_13 
REMARK       I    between atoms: N3_17  and  C13_18 
REMARK       I    between atoms: C13_18  and  N4_20 
REMARK    5  A    between atoms: N4_20  and  C14_22 
REMARK       I    between atoms: N5_25  and  C17_26 
REMARK    6  A    between atoms: C17_26  and  C18_28 
REMARK    7  A    between atoms: C19_29  and  C20_30 
ROOT
HETATM    1  N1  UNL     1       3.545  58.421   1.391  1.00  0.00    -0.292 N 
HETATM    2  N2  UNL     1       2.909  59.633   1.424  1.00  0.00    -0.300 N 
ATOM      3  H2  UNL     1       1.989  59.801   1.018  1.00  0.00     0.187 HD
HETATM    4  C6  UNL     1       3.623  60.562   2.041  1.00  0.00     0.053 A 
HETATM    5  C7  UNL     1       4.759  59.989   2.432  1.00  0.00     0.010 A 
HETATM    6  C8  UNL     1       4.699  58.618   2.015  1.00  0.00     0.042 A 
HETATM    7  C12 UNL     1       5.606  60.970   3.151  1.00  0.00     0.170 C 
HETATM    8  N3  UNL     1       4.909  62.203   3.040  1.00  0.00    -0.324 N 
HETATM    9  C13 UNL     1       5.371  63.544   3.355  1.00  0.00     0.319 C 
HETATM   10  O2  UNL     1       6.518  63.723   3.703  1.00  0.00    -0.247 OA
HETATM   11  N4  UNL     1       4.441  64.588   3.233  1.00  0.00    -0.338 N 
ATOM     12  H4  UNL     1       3.507  64.295   2.946  1.00  0.00     0.164 HD
HETATM   13  C24 UNL     1       3.581  61.985   2.511  1.00  0.00     0.187 C 
ENDROOT
BRANCH  11  14
HETATM   14  C14 UNL     1       4.582  65.979   3.442  1.00  0.00     0.089 C 
HETATM   15  C15 UNL     1       3.414  66.709   2.890  1.00  0.00     0.045 C 
HETATM   16  C16 UNL     1       3.494  68.188   3.237  1.00  0.00     0.127 C 
HETATM   17  N5  UNL     1       4.815  68.479   3.775  1.00  0.00    -0.352 N 
HETATM   18  C17 UNL     1       5.658  69.355   3.098  1.00  0.00     0.228 C 
HETATM   19  C22 UNL     1       5.171  67.823   4.994  1.00  0.00     0.127 C 
HETATM   20  O3  UNL     1       5.163  69.934   2.050  1.00  0.00    -0.273 OA
HETATM   21  C23 UNL     1       4.699  66.352   4.930  1.00  0.00     0.045 C 
BRANCH  18  22
HETATM   22  C18 UNL     1       7.049  69.701   3.414  1.00  0.00     0.135 A 
HETATM   23  C19 UNL     1       8.015  69.787   2.218  1.00  0.00     0.142 A 
HETATM   24  C21 UNL     1       8.149  68.750   3.261  1.00  0.00     0.140 A 
HETATM   25 CL1  UNL     1       7.912  67.081   2.719  1.00  0.00    -0.100 Cl
HETATM   26 CL2  UNL     1       9.544  68.947   4.373  1.00  0.00    -0.100 Cl
BRANCH  23  27
HETATM   27  C20 UNL     1       8.907  70.986   2.249  1.00  0.00     0.181 C 
HETATM   28  O4  UNL     1      10.135  70.954   2.129  1.00  0.00    -0.648 OA
HETATM   29  O5  UNL     1       8.238  72.222   2.429  1.00  0.00    -0.648 OA
ENDBRANCH  23  27
ENDBRANCH  18  22
ENDBRANCH  11  14
BRANCH   6  30
HETATM   30  C9  UNL     1       5.888  57.770   2.226  1.00  0.00     0.038 A 
HETATM   31  C10 UNL     1       6.622  57.775   3.519  1.00  0.00     0.011 A 
HETATM   32  C11 UNL     1       5.856  56.541   3.083  1.00  0.00     0.011 A 
ENDBRANCH   6  30
BRANCH   1  33
HETATM   33  C5  UNL     1       2.842  57.358   0.756  1.00  0.00     0.186 C 
BRANCH  33  34
HETATM   34  C2  UNL     1       1.527  56.921   1.365  1.00  0.00     0.071 C 
HETATM   35  C3  UNL     1       0.905  55.887   0.401  1.00  0.00     0.047 C 
HETATM   36  C4  UNL     1       1.759  56.222   2.675  1.00  0.00     0.047 C 
BRANCH  34  37
HETATM   37  O1  UNL     1       0.669  57.959   1.527  1.00  0.00    -0.384 OA
HETATM   38  C1  UNL     1      -0.113  57.844   2.648  1.00  0.00     0.202 C 
ENDBRANCH  34  37
ENDBRANCH  33  34
ENDBRANCH   1  33
TORSDOF 7
ENDMDL
MODEL 3
REMARK VINA RESULT: -7.118678222      4.016     11.946
REMARK  7 active torsions:
REMARK  status: ('A' for Active; 'I' for Inactive)
REMARK    1  A    between atoms: O1_2  and  C2_3 
REMARK    2  A    between atoms: C2_3  and  C5_6 
REMARK    3  A    between atoms: C5_6  and  N1_7 
REMARK    4  A    between atoms: C8_12  and  C9_13 
REMARK       I    between atoms: N3_17  and  C13_18 
REMARK       I    between atoms: C13_18  and  N4_20 
REMARK    5  A    between atoms: N4_20  and  C14_22 
REMARK       I    between atoms: N5_25  and  C17_26 
REMARK    6  A    between atoms: C17_26  and  C18_28 
REMARK    7  A    between atoms: C19_29  and  C20_30 
ROOT
HETATM    1  N1  UNL     1       6.475  73.481   1.228  1.00  0.00    -0.292 N 
HETATM    2  N2  UNL     1       6.931  72.458   0.440  1.00  0.00    -0.300 N 
ATOM      3  H2  UNL     1       6.939  72.488  -0.579  1.00  0.00     0.187 HD
HETATM    4  C6  UNL     1       7.360  71.426   1.150  1.00  0.00     0.053 A 
HETATM    5  C7  UNL     1       7.195  71.737   2.434  1.00  0.00     0.010 A 
HETATM    6  C8  UNL     1       6.631  73.055   2.474  1.00  0.00     0.042 A 
HETATM    7  C12 UNL     1       7.673  70.628   3.294  1.00  0.00     0.170 C 
HETATM    8  N3  UNL     1       8.024  69.591   2.390  1.00  0.00    -0.324 N 
HETATM    9  C13 UNL     1       8.336  68.201   2.672  1.00  0.00     0.319 C 
HETATM   10  O2  UNL     1       8.242  67.777   3.804  1.00  0.00    -0.247 OA
HETATM   11  N4  UNL     1       8.739  67.401   1.591  1.00  0.00    -0.338 N 
ATOM     12  H4  UNL     1       8.790  67.889   0.697  1.00  0.00     0.164 HD
HETATM   13  C24 UNL     1       8.018  70.085   1.030  1.00  0.00     0.187 C 
ENDROOT
BRANCH  11  14
HETATM   14  C14 UNL     1       9.084  66.031   1.536  1.00  0.00     0.089 C 
HETATM   15  C15 UNL     1       9.495  65.654   0.160  1.00  0.00     0.045 C 
HETATM   16  C16 UNL     1      10.002  64.220   0.126  1.00  0.00     0.127 C 
HETATM   17  N5  UNL     1       9.686  63.575   1.392  1.00  0.00    -0.352 N 
HETATM   18  C17 UNL     1       8.822  62.483   1.413  1.00  0.00     0.228 C 
HETATM   19  C22 UNL     1      10.294  64.124   2.563  1.00  0.00     0.127 C 
HETATM   20  O3  UNL     1       8.417  62.050   0.261  1.00  0.00    -0.273 OA
HETATM   21  C23 UNL     1      10.243  65.667   2.479  1.00  0.00     0.045 C 
BRANCH  18  22
HETATM   22  C18 UNL     1       8.302  61.761   2.580  1.00  0.00     0.135 A 
HETATM   23  C19 UNL     1       6.918  61.108   2.412  1.00  0.00     0.142 A 
HETATM   24  C21 UNL     1       7.147  62.230   3.343  1.00  0.00     0.140 A 
HETATM   25 CL1  UNL     1       6.286  63.730   2.964  1.00  0.00    -0.100 Cl
HETATM   26 CL2  UNL     1       7.109  61.808   5.087  1.00  0.00    -0.100 Cl
BRANCH  23  27
HETATM   27  C20 UNL     1       6.843  59.712   2.940  1.00  0.00     0.181 C 
HETATM   28  O4  UNL     1       7.816  58.974   3.120  1.00  0.00    -0.648 OA
HETATM   29  O5  UNL     1       5.535  59.257   3.243  1.00  0.00    -0.648 OA
ENDBRANCH  23  27
ENDBRANCH  18  22
ENDBRANCH  11  14
BRANCH   6  30
HETATM   30  C9  UNL     1       6.240  73.609   3.785  1.00  0.00     0.038 A 
HETATM   31  C10 UNL     1       4.901  74.219   3.997  1.00  0.00     0.011 A 
HETATM   32  C11 UNL     1       5.263  72.919   4.688  1.00  0.00     0.011 A 
ENDBRANCH   6  30
BRANCH   1  33
HETATM   33  C5  UNL     1       6.005  74.640   0.546  1.00  0.00     0.186 C 
BRANCH  33  34
HETATM   34  C2  UNL     1       7.010  75.727   0.230  1.00  0.00     0.071 C 
HETATM   35  C3  UNL     1       6.283  76.775  -0.640  1.00  0.00     0.047 C 
HETATM   36  C4  UNL     1       7.448  76.422   1.489  1.00  0.00     0.047 C 
BRANCH  34  37
HETATM   37  O1  UNL     1       8.085  75.248  -0.445  1.00  0.00    -0.384 OA
HETATM   38  C1  UNL     1       8.396  75.985  -1.559  1.00  0.00     0.202 C 
ENDBRANCH  34  37
ENDBRANCH  33  34
ENDBRANCH   1  33
TORSDOF 7
ENDMDL
MODEL 4
REMARK VINA RESULT: -7.007089117      1.518      1.868
REMARK  7 active torsions:
REMARK  status: ('A' for Active; 'I' for Inactive)
REMARK    1  A    between atoms: O1_2  and  C2_3 
REMARK    2  A    between atoms: C2_3  and  C5_6 
REMARK    3  A    between atoms: C5_6  and  N1_7 
REMARK    4  A    between atoms: C8_12  and  C9_13 
REMARK       I    between atoms: N3_17  and  C13_18 
REMARK       I    between atoms: C13_18  and  N4_20 
REMARK    5  A    between atoms: N4_20  and  C14_22 
REMARK       I    between atoms: N5_25  and  C17_26 
REMARK    6  A    between atoms: C17_26  and  C18_28 
REMARK    7  A    between atoms: C19_29  and  C20_30 
ROOT
HETATM    1  N1  UNL     1       4.164  59.015   2.008  1.00  0.00    -0.292 N 
HETATM    2  N2  UNL     1       3.914  60.359   1.925  1.00  0.00    -0.300 N 
ATOM      3  H2  UNL     1       3.013  60.753   1.654  1.00  0.00     0.187 HD
HETATM    4  C6  UNL     1       4.973  61.090   2.235  1.00  0.00     0.053 A 
HETATM    5  C7  UNL     1       5.960  60.246   2.529  1.00  0.00     0.010 A 
HETATM    6  C8  UNL     1       5.432  58.921   2.384  1.00  0.00     0.042 A 
HETATM    7  C12 UNL     1       7.181  60.998   2.906  1.00  0.00     0.170 C 
HETATM    8  N3  UNL     1       6.850  62.362   2.690  1.00  0.00    -0.324 N 
HETATM    9  C13 UNL     1       7.724  63.522   2.674  1.00  0.00     0.319 C 
HETATM   10  O2  UNL     1       8.922  63.378   2.788  1.00  0.00    -0.247 OA
HETATM   11  N4  UNL     1       7.119  64.779   2.521  1.00  0.00    -0.338 N 
ATOM     12  H4  UNL     1       6.102  64.756   2.451  1.00  0.00     0.164 HD
HETATM   13  C24 UNL     1       5.433  62.502   2.439  1.00  0.00     0.187 C 
ENDROOT
BRANCH  11  14
HETATM   14  C14 UNL     1       7.686  66.073   2.446  1.00  0.00     0.089 C 
HETATM   15  C15 UNL     1       9.045  66.080   3.044  1.00  0.00     0.045 C 
HETATM   16  C16 UNL     1       9.713  67.431   2.839  1.00  0.00     0.127 C 
HETATM   17  N5  UNL     1       8.723  68.382   2.353  1.00  0.00    -0.352 N 
HETATM   18  C17 UNL     1       8.397  69.494   3.125  1.00  0.00     0.228 C 
HETATM   19  C22 UNL     1       8.128  68.099   1.085  1.00  0.00     0.127 C 
HETATM   20  O3  UNL     1       9.081  69.657   4.214  1.00  0.00    -0.273 OA
HETATM   21  C23 UNL     1       7.814  66.587   1.002  1.00  0.00     0.045 C 
BRANCH  18  22
HETATM   22  C18 UNL     1       7.367  70.506   2.867  1.00  0.00     0.135 A 
HETATM   23  C19 UNL     1       6.627  71.051   4.103  1.00  0.00     0.142 A 
HETATM   24  C21 UNL     1       5.943  70.247   3.071  1.00  0.00     0.140 A 
HETATM   25 CL1  UNL     1       5.316  68.681   3.610  1.00  0.00    -0.100 Cl
HETATM   26 CL2  UNL     1       4.802  71.148   2.019  1.00  0.00    -0.100 Cl
BRANCH  23  27
HETATM   27  C20 UNL     1       6.473  72.538   4.105  1.00  0.00     0.181 C 
HETATM   28  O4  UNL     1       7.201  73.322   3.489  1.00  0.00    -0.648 OA
HETATM   29  O5  UNL     1       5.394  73.025   4.883  1.00  0.00    -0.648 OA
ENDBRANCH  23  27
ENDBRANCH  18  22
ENDBRANCH  11  14
BRANCH   6  30
HETATM   30  C9  UNL     1       6.353  57.779   2.545  1.00  0.00     0.038 A 
HETATM   31  C10 UNL     1       7.065  57.535   3.827  1.00  0.00     0.011 A 
HETATM   32  C11 UNL     1       5.997  56.569   3.354  1.00  0.00     0.011 A 
ENDBRANCH   6  30
BRANCH   1  33
HETATM   33  C5  UNL     1       3.072  58.152   1.703  1.00  0.00     0.186 C 
BRANCH  33  34
HETATM   34  C2  UNL     1       2.347  58.370   0.393  1.00  0.00     0.071 C 
HETATM   35  C3  UNL     1       2.130  56.978  -0.240  1.00  0.00     0.047 C 
HETATM   36  C4  UNL     1       0.987  58.964   0.634  1.00  0.00     0.047 C 
BRANCH  34  37
HETATM   37  O1  UNL     1       3.058  59.147  -0.462  1.00  0.00    -0.384 OA
HETATM   38  C1  UNL     1       2.879  58.808  -1.778  1.00  0.00     0.202 C 
ENDBRANCH  34  37
ENDBRANCH  33  34
ENDBRANCH   1  33
TORSDOF 7
ENDMDL
MODEL 5
REMARK VINA RESULT: -6.970968074      2.277      2.786
REMARK  7 active torsions:
REMARK  status: ('A' for Active; 'I' for Inactive)
REMARK    1  A    between atoms: O1_2  and  C2_3 
REMARK    2  A    between atoms: C2_3  and  C5_6 
REMARK    3  A    between atoms: C5_6  and  N1_7 
REMARK    4  A    between atoms: C8_12  and  C9_13 
REMARK       I    between atoms: N3_17  and  C13_18 
REMARK       I    between atoms: C13_18  and  N4_20 
REMARK    5  A    between atoms: N4_20  and  C14_22 
REMARK       I    between atoms: N5_25  and  C17_26 
REMARK    6  A    between atoms: C17_26  and  C18_28 
REMARK    7  A    between atoms: C19_29  and  C20_30 
ROOT
HETATM    1  N1  UNL     1       3.911  58.806   1.613  1.00  0.00    -0.292 N 
HETATM    2  N2  UNL     1       3.253  60.007   1.641  1.00  0.00    -0.300 N 
ATOM      3  H2  UNL     1       2.334  60.159   1.226  1.00  0.00     0.187 HD
HETATM    4  C6  UNL     1       3.944  60.948   2.265  1.00  0.00     0.053 A 
HETATM    5  C7  UNL     1       5.086  60.394   2.667  1.00  0.00     0.010 A 
HETATM    6  C8  UNL     1       5.054  59.023   2.248  1.00  0.00     0.042 A 
HETATM    7  C12 UNL     1       5.909  61.390   3.394  1.00  0.00     0.170 C 
HETATM    8  N3  UNL     1       5.192  62.610   3.278  1.00  0.00    -0.324 N 
HETATM    9  C13 UNL     1       5.627  63.959   3.598  1.00  0.00     0.319 C 
HETATM   10  O2  UNL     1       6.767  64.157   3.957  1.00  0.00    -0.247 OA
HETATM   11  N4  UNL     1       4.680  64.986   3.468  1.00  0.00    -0.338 N 
ATOM     12  H4  UNL     1       3.754  64.677   3.171  1.00  0.00     0.164 HD
HETATM   13  C24 UNL     1       3.873  62.369   2.736  1.00  0.00     0.187 C 
ENDROOT
BRANCH  11  14
HETATM   14  C14 UNL     1       4.795  66.380   3.679  1.00  0.00     0.089 C 
HETATM   15  C15 UNL     1       3.452  66.996   3.823  1.00  0.00     0.045 C 
HETATM   16  C16 UNL     1       3.576  68.467   4.191  1.00  0.00     0.127 C 
HETATM   17  N5  UNL     1       4.962  68.882   4.033  1.00  0.00    -0.352 N 
HETATM   18  C17 UNL     1       5.289  69.856   3.093  1.00  0.00     0.228 C 
HETATM   19  C22 UNL     1       5.925  68.239   4.871  1.00  0.00     0.127 C 
HETATM   20  O3  UNL     1       4.296  70.405   2.467  1.00  0.00    -0.273 OA
HETATM   21  C23 UNL     1       5.601  66.729   4.942  1.00  0.00     0.045 C 
BRANCH  18  22
HETATM   22  C18 UNL     1       6.621  70.338   2.712  1.00  0.00     0.135 A 
HETATM   23  C19 UNL     1       6.864  70.541   1.206  1.00  0.00     0.142 A 
HETATM   24  C21 UNL     1       7.577  69.508   1.981  1.00  0.00     0.140 A 
HETATM   25 CL1  UNL     1       7.242  67.832   1.518  1.00  0.00    -0.100 Cl
HETATM   26 CL2  UNL     1       9.317  69.829   2.282  1.00  0.00    -0.100 Cl
BRANCH  23  27
HETATM   27  C20 UNL     1       7.554  71.825   0.875  1.00  0.00     0.181 C 
HETATM   28  O4  UNL     1       7.518  72.844   1.572  1.00  0.00    -0.648 OA
HETATM   29  O5  UNL     1       8.290  71.814  -0.336  1.00  0.00    -0.648 OA
ENDBRANCH  23  27
ENDBRANCH  18  22
ENDBRANCH  11  14
BRANCH   6  30
HETATM   30  C9  UNL     1       6.257  58.196   2.469  1.00  0.00     0.038 A 
HETATM   31  C10 UNL     1       6.939  58.163   3.790  1.00  0.00     0.011 A 
HETATM   32  C11 UNL     1       6.223  56.931   3.272  1.00  0.00     0.011 A 
ENDBRANCH   6  30
BRANCH   1  33
HETATM   33  C5  UNL     1       3.232  57.731   0.971  1.00  0.00     0.186 C 
BRANCH  33  34
HETATM   34  C2  UNL     1       1.929  57.258   1.578  1.00  0.00     0.071 C 
HETATM   35  C3  UNL     1       1.145  56.537   0.459  1.00  0.00     0.047 C 
HETATM   36  C4  UNL     1       2.187  56.247   2.660  1.00  0.00     0.047 C 
BRANCH  34  37
HETATM   37  O1  UNL     1       1.186  58.286   2.058  1.00  0.00    -0.384 OA
HETATM   38  C1  UNL     1       0.025  57.878   2.663  1.00  0.00     0.202 C 
ENDBRANCH  34  37
ENDBRANCH  33  34
ENDBRANCH   1  33
TORSDOF 7
ENDMDL
