MODEL 1
REMARK VINA RESULT: -8.131346826      0.000      0.000
REMARK  8 active torsions:
REMARK  status: ('A' for Active; 'I' for Inactive)
REMARK    1  A    between atoms: C2_2  and  C4_4 
REMARK    2  A    between atoms: C6_9  and  C7_10 
REMARK    3  A    between atoms: C14_20  and  C15_21 
REMARK    4  A    between atoms: C17_25  and  C18_26 
REMARK    5  A    between atoms: C18_26  and  O4_27 
REMARK    6  A    between atoms: C18_26  and  C19_29 
REMARK    7  A    between atoms: C19_29  and  S1_30 
REMARK    8  A    between atoms: S1_30  and  C20_31 
ROOT
HETATM    1  C4  UNL     1      10.083  64.865   0.402  1.00  0.00     0.083 C 
HETATM    2  N1  UNL     1      10.662  64.256   1.368  1.00  0.00    -0.315 N 
ATOM      3  H1  UNL     1      11.163  63.421   1.064  1.00  0.00     0.170 HD
HETATM    4  C5  UNL     1      10.761  64.471   2.719  1.00  0.00     0.246 C 
HETATM    5  O1  UNL     1      10.160  63.726   3.569  1.00  0.00    -0.271 OA
HETATM    6  C6  UNL     1      11.560  65.566   3.361  1.00  0.00     0.180 C 
HETATM    7  N2  UNL     1      10.709  66.198   4.329  1.00  0.00    -0.347 N 
ATOM      8  H2  UNL     1      10.944  66.137   5.320  1.00  0.00     0.163 HD
HETATM    9  C10 UNL     1       9.559  66.897   3.933  1.00  0.00     0.225 C 
HETATM   10  O2  UNL     1       8.505  66.909   4.611  1.00  0.00    -0.273 OA
HETATM   11  C11 UNL     1       9.556  67.666   2.662  1.00  0.00     0.109 C 
HETATM   12  C12 UNL     1       9.986  69.043   2.975  1.00  0.00     0.019 C 
HETATM   13  C13 UNL     1       9.109  70.165   2.559  1.00  0.00     0.034 C 
HETATM   14  C14 UNL     1       7.692  69.667   2.395  1.00  0.00     0.135 C 
HETATM   15  O3  UNL     1       7.765  68.703   1.405  1.00  0.00    -0.377 OA
HETATM   16  C16 UNL     1       8.187  67.510   2.044  1.00  0.00     0.160 C 
HETATM   17  C17 UNL     1       8.075  66.382   1.080  1.00  0.00     0.142 C 
HETATM   18  N4  UNL     1       9.322  66.042   0.443  1.00  0.00    -0.370 N 
ATOM     19  H4  UNL     1       9.734  66.811  -0.083  1.00  0.00     0.161 HD
ENDROOT
BRANCH  17  20
HETATM   20  C18 UNL     1       7.278  65.228   1.586  1.00  0.00     0.153 C 
BRANCH  20  21
HETATM   21  O4  UNL     1       6.611  64.565   0.541  1.00  0.00    -0.393 OA
ATOM     22  H4  UNL     1       5.681  64.485   0.717  1.00  0.00     0.210 HD
ENDBRANCH  20  21
BRANCH  20  23
HETATM   23  C19 UNL     1       6.122  65.725   2.467  1.00  0.00     0.114 C 
BRANCH  23  24
HETATM   24  S1  UNL     1       5.871  64.689   3.893  1.00  0.00    -0.108 SA
BRANCH  24  25
HETATM   25  C20 UNL     1       6.265  62.999   3.641  1.00  0.00     0.091 A 
HETATM   26  N3  UNL     1       7.493  62.520   3.876  1.00  0.00    -0.359 N 
HETATM   27  C21 UNL     1       7.804  61.211   3.682  1.00  0.00     0.089 A 
ATOM     28  H3  UNL     1       8.217  63.156   4.210  1.00  0.00     0.166 HD
HETATM   29  C22 UNL     1       6.862  60.325   3.234  1.00  0.00     0.019 A 
HETATM   30  C23 UNL     1       5.582  60.784   2.980  1.00  0.00     0.028 A 
HETATM   31  C24 UNL     1       5.292  62.139   3.190  1.00  0.00     0.067 A 
HETATM   32 CL2  UNL     1       3.648  62.637   2.844  1.00  0.00    -0.081 Cl
ENDBRANCH  24  25
ENDBRANCH  23  24
ENDBRANCH  20  23
ENDBRANCH  17  20
BRANCH   1  33
HETATM   33  C2  UNL     1      10.277  64.212  -0.963  1.00  0.00     0.045 C 
HETATM   34  C1  UNL     1       9.152  64.724  -1.856  1.00  0.00     0.017 C 
HETATM   35  C3  UNL     1      11.607  64.586  -1.575  1.00  0.00     0.017 C 
ENDBRANCH   1  33
BRANCH  14  36
HETATM   36  C15 UNL     1       6.740  70.785   2.043  1.00  0.00     0.146 C 
HETATM   37 CL1  UNL     1       7.571  72.248   1.521  1.00  0.00    -0.128 Cl
ENDBRANCH  14  36
BRANCH   6  38
HETATM   38  C7  UNL     1      12.828  65.013   3.978  1.00  0.00     0.009 C 
HETATM   39  C8  UNL     1      13.974  64.917   3.025  1.00  0.00     0.012 C 
HETATM   40  C9  UNL     1      13.156  65.742   5.243  1.00  0.00     0.012 C 
ENDBRANCH   6  38
TORSDOF 8
ENDMDL
MODEL 2
REMARK VINA RESULT: -8.032186392      3.400      6.917
REMARK  8 active torsions:
REMARK  status: ('A' for Active; 'I' for Inactive)
REMARK    1  A    between atoms: C2_2  and  C4_4 
REMARK    2  A    between atoms: C6_9  and  C7_10 
REMARK    3  A    between atoms: C14_20  and  C15_21 
REMARK    4  A    between atoms: C17_25  and  C18_26 
REMARK    5  A    between atoms: C18_26  and  O4_27 
REMARK    6  A    between atoms: C18_26  and  C19_29 
REMARK    7  A    between atoms: C19_29  and  S1_30 
REMARK    8  A    between atoms: S1_30  and  C20_31 
ROOT
HETATM    1  C4  UNL     1       5.580  63.869   3.770  1.00  0.00     0.083 C 
HETATM    2  N1  UNL     1       5.954  62.740   4.242  1.00  0.00    -0.315 N 
ATOM      3  H1  UNL     1       5.494  62.509   5.123  1.00  0.00     0.170 HD
HETATM    4  C5  UNL     1       6.834  61.769   3.833  1.00  0.00     0.246 C 
HETATM    5  O1  UNL     1       7.946  61.567   4.433  1.00  0.00    -0.271 OA
HETATM    6  C6  UNL     1       6.617  60.844   2.673  1.00  0.00     0.180 C 
HETATM    7  N2  UNL     1       7.819  60.863   1.888  1.00  0.00    -0.347 N 
ATOM      8  H2  UNL     1       8.379  60.014   1.807  1.00  0.00     0.163 HD
HETATM    9  C10 UNL     1       8.234  62.030   1.230  1.00  0.00     0.225 C 
HETATM   10  O2  UNL     1       9.441  62.340   1.097  1.00  0.00    -0.273 OA
HETATM   11  C11 UNL     1       7.228  62.959   0.656  1.00  0.00     0.109 C 
HETATM   12  C12 UNL     1       6.992  62.551  -0.742  1.00  0.00     0.019 C 
HETATM   13  C13 UNL     1       7.156  63.569  -1.809  1.00  0.00     0.034 C 
HETATM   14  C14 UNL     1       8.067  64.671  -1.322  1.00  0.00     0.135 C 
HETATM   15  O3  UNL     1       7.421  65.208  -0.222  1.00  0.00    -0.377 OA
HETATM   16  C16 UNL     1       7.737  64.364   0.872  1.00  0.00     0.160 C 
HETATM   17  C17 UNL     1       7.256  65.003   2.128  1.00  0.00     0.142 C 
HETATM   18  N4  UNL     1       5.987  64.497   2.584  1.00  0.00    -0.370 N 
ATOM     19  H4  UNL     1       5.233  64.619   1.909  1.00  0.00     0.161 HD
ENDROOT
BRANCH  17  20
HETATM   20  C18 UNL     1       8.305  65.144   3.177  1.00  0.00     0.153 C 
BRANCH  20  21
HETATM   21  O4  UNL     1       8.131  66.322   3.926  1.00  0.00    -0.393 OA
ATOM     22  H4  UNL     1       8.482  66.232   4.804  1.00  0.00     0.210 HD
ENDBRANCH  20  21
BRANCH  20  23
HETATM   23  C19 UNL     1       9.682  65.353   2.530  1.00  0.00     0.114 C 
BRANCH  23  24
HETATM   24  S1  UNL     1      10.698  66.480   3.461  1.00  0.00    -0.108 SA
BRANCH  24  25
HETATM   25  C20 UNL     1      12.203  65.793   4.039  1.00  0.00     0.091 A 
HETATM   26  N3  UNL     1      12.547  65.839   5.333  1.00  0.00    -0.359 N 
HETATM   27  C21 UNL     1      13.713  65.307   5.786  1.00  0.00     0.089 A 
ATOM     28  H3  UNL     1      11.915  66.285   5.998  1.00  0.00     0.166 HD
HETATM   29  C22 UNL     1      14.588  64.699   4.928  1.00  0.00     0.019 A 
HETATM   30  C23 UNL     1      14.267  64.634   3.584  1.00  0.00     0.028 A 
HETATM   31  C24 UNL     1      13.057  65.191   3.146  1.00  0.00     0.067 A 
HETATM   32 CL2  UNL     1      12.728  65.064   1.430  1.00  0.00    -0.081 Cl
ENDBRANCH  24  25
ENDBRANCH  23  24
ENDBRANCH  20  23
ENDBRANCH  17  20
BRANCH   1  33
HETATM   33  C2  UNL     1       4.545  64.598   4.620  1.00  0.00     0.045 C 
HETATM   34  C1  UNL     1       4.209  63.674   5.786  1.00  0.00     0.017 C 
HETATM   35  C3  UNL     1       5.085  65.902   5.159  1.00  0.00     0.017 C 
ENDBRANCH   1  33
BRANCH  14  36
HETATM   36  C15 UNL     1       8.328  65.700  -2.396  1.00  0.00     0.146 C 
HETATM   37 CL1  UNL     1       9.834  65.412  -3.263  1.00  0.00    -0.128 Cl
ENDBRANCH  14  36
BRANCH   6  38
HETATM   38  C7  UNL     1       6.262  59.452   3.155  1.00  0.00     0.009 C 
HETATM   39  C8  UNL     1       5.155  58.808   2.386  1.00  0.00     0.012 C 
HETATM   40  C9  UNL     1       7.491  58.607   3.267  1.00  0.00     0.012 C 
ENDBRANCH   6  38
TORSDOF 8
ENDMDL
MODEL 3
REMARK VINA RESULT: -7.836514028      3.323      7.096
REMARK  8 active torsions:
REMARK  status: ('A' for Active; 'I' for Inactive)
REMARK    1  A    between atoms: C2_2  and  C4_4 
REMARK    2  A    between atoms: C6_9  and  C7_10 
REMARK    3  A    between atoms: C14_20  and  C15_21 
REMARK    4  A    between atoms: C17_25  and  C18_26 
REMARK    5  A    between atoms: C18_26  and  O4_27 
REMARK    6  A    between atoms: C18_26  and  C19_29 
REMARK    7  A    between atoms: C19_29  and  S1_30 
REMARK    8  A    between atoms: S1_30  and  C20_31 
ROOT
HETATM    1  C4  UNL     1       7.030  65.279   3.514  1.00  0.00     0.083 C 
HETATM    2  N1  UNL     1       6.673  64.140   3.978  1.00  0.00    -0.315 N 
ATOM      3  H1  UNL     1       6.105  64.219   4.821  1.00  0.00     0.170 HD
HETATM    4  C5  UNL     1       6.880  62.838   3.598  1.00  0.00     0.246 C 
HETATM    5  O1  UNL     1       7.644  62.054   4.260  1.00  0.00    -0.271 OA
HETATM    6  C6  UNL     1       6.260  62.181   2.401  1.00  0.00     0.180 C 
HETATM    7  N2  UNL     1       7.314  61.511   1.694  1.00  0.00    -0.347 N 
ATOM      8  H2  UNL     1       7.305  60.493   1.626  1.00  0.00     0.163 HD
HETATM    9  C10 UNL     1       8.356  62.234   1.096  1.00  0.00     0.225 C 
HETATM   10  O2  UNL     1       9.535  61.811   1.047  1.00  0.00    -0.273 OA
HETATM   11  C11 UNL     1       8.087  63.561   0.486  1.00  0.00     0.109 C 
HETATM   12  C12 UNL     1       7.757  63.339  -0.935  1.00  0.00     0.019 C 
HETATM   13  C13 UNL     1       8.535  64.075  -1.961  1.00  0.00     0.034 C 
HETATM   14  C14 UNL     1       9.873  64.481  -1.389  1.00  0.00     0.135 C 
HETATM   15  O3  UNL     1       9.567  65.302  -0.316  1.00  0.00    -0.377 OA
HETATM   16  C16 UNL     1       9.281  64.440   0.772  1.00  0.00     0.160 C 
HETATM   17  C17 UNL     1       9.159  65.254   2.012  1.00  0.00     0.142 C 
HETATM   18  N4  UNL     1       7.798  65.554   2.373  1.00  0.00    -0.370 N 
ATOM     19  H4  UNL     1       7.290  66.071   1.656  1.00  0.00     0.161 HD
ENDROOT
BRANCH  17  20
HETATM   20  C18 UNL     1      10.033  64.794   3.128  1.00  0.00     0.153 C 
BRANCH  20  21
HETATM   21  O4  UNL     1      10.312  65.838   4.028  1.00  0.00    -0.393 OA
ATOM     22  H4  UNL     1      10.828  65.534   4.765  1.00  0.00     0.210 HD
ENDBRANCH  20  21
BRANCH  20  23
HETATM   23  C19 UNL     1      11.425  64.422   2.597  1.00  0.00     0.114 C 
BRANCH  23  24
HETATM   24  S1  UNL     1      12.675  65.578   3.118  1.00  0.00    -0.108 SA
BRANCH  24  25
HETATM   25  C20 UNL     1      13.427  65.190   4.653  1.00  0.00     0.091 A 
HETATM   26  N3  UNL     1      12.902  65.593   5.817  1.00  0.00    -0.359 N 
HETATM   27  C21 UNL     1      13.482  65.294   7.010  1.00  0.00     0.089 A 
ATOM     28  H3  UNL     1      12.041  66.140   5.808  1.00  0.00     0.166 HD
HETATM   29  C22 UNL     1      14.637  64.563   7.066  1.00  0.00     0.019 A 
HETATM   30  C23 UNL     1      15.209  64.130   5.883  1.00  0.00     0.028 A 
HETATM   31  C24 UNL     1      14.588  64.453   4.669  1.00  0.00     0.067 A 
HETATM   32 CL2  UNL     1      15.378  63.865   3.220  1.00  0.00    -0.081 Cl
ENDBRANCH  24  25
ENDBRANCH  23  24
ENDBRANCH  20  23
ENDBRANCH  17  20
BRANCH   1  33
HETATM   33  C2  UNL     1       6.528  66.474   4.318  1.00  0.00     0.045 C 
HETATM   34  C1  UNL     1       6.833  67.717   3.489  1.00  0.00     0.017 C 
HETATM   35  C3  UNL     1       5.039  66.394   4.563  1.00  0.00     0.017 C 
ENDBRANCH   1  33
BRANCH  14  36
HETATM   36  C15 UNL     1      10.738  65.172  -2.416  1.00  0.00     0.146 C 
HETATM   37 CL1  UNL     1       9.826  65.705  -3.826  1.00  0.00    -0.128 Cl
ENDBRANCH  14  36
BRANCH   6  38
HETATM   38  C7  UNL     1       5.153  61.235   2.823  1.00  0.00     0.009 C 
HETATM   39  C8  UNL     1       3.817  61.571   2.245  1.00  0.00     0.012 C 
HETATM   40  C9  UNL     1       5.566  59.815   2.602  1.00  0.00     0.012 C 
ENDBRANCH   6  38
TORSDOF 8
ENDMDL
MODEL 4
REMARK VINA RESULT: -7.508121290      2.503      6.043
REMARK  8 active torsions:
REMARK  status: ('A' for Active; 'I' for Inactive)
REMARK    1  A    between atoms: C2_2  and  C4_4 
REMARK    2  A    between atoms: C6_9  and  C7_10 
REMARK    3  A    between atoms: C14_20  and  C15_21 
REMARK    4  A    between atoms: C17_25  and  C18_26 
REMARK    5  A    between atoms: C18_26  and  O4_27 
REMARK    6  A    between atoms: C18_26  and  C19_29 
REMARK    7  A    between atoms: C19_29  and  S1_30 
REMARK    8  A    between atoms: S1_30  and  C20_31 
ROOT
HETATM    1  C4  UNL     1       9.284  63.048   1.993  1.00  0.00     0.083 C 
HETATM    2  N1  UNL     1       8.752  62.016   1.455  1.00  0.00    -0.315 N 
ATOM      3  H1  UNL     1       9.436  61.414   0.997  1.00  0.00     0.170 HD
HETATM    4  C5  UNL     1       7.471  61.536   1.353  1.00  0.00     0.246 C 
HETATM    5  O1  UNL     1       6.830  61.546   0.245  1.00  0.00    -0.271 OA
HETATM    6  C6  UNL     1       6.678  60.953   2.484  1.00  0.00     0.180 C 
HETATM    7  N2  UNL     1       5.385  61.576   2.459  1.00  0.00    -0.347 N 
ATOM      8  H2  UNL     1       4.559  61.012   2.258  1.00  0.00     0.163 HD
HETATM    9  C10 UNL     1       5.240  62.949   2.707  1.00  0.00     0.225 C 
HETATM   10  O2  UNL     1       4.385  63.657   2.124  1.00  0.00    -0.273 OA
HETATM   11  C11 UNL     1       6.120  63.624   3.694  1.00  0.00     0.109 C 
HETATM   12  C12 UNL     1       5.444  63.568   5.004  1.00  0.00     0.019 C 
HETATM   13  C13 UNL     1       5.227  64.839   5.739  1.00  0.00     0.034 C 
HETATM   14  C14 UNL     1       5.237  65.995   4.767  1.00  0.00     0.135 C 
HETATM   15  O3  UNL     1       6.495  65.965   4.189  1.00  0.00    -0.377 OA
HETATM   16  C16 UNL     1       6.432  65.000   3.154  1.00  0.00     0.160 C 
HETATM   17  C17 UNL     1       7.683  65.073   2.350  1.00  0.00     0.142 C 
HETATM   18  N4  UNL     1       8.659  64.078   2.711  1.00  0.00    -0.370 N 
ATOM     19  H4  UNL     1       8.956  64.133   3.685  1.00  0.00     0.161 HD
ENDROOT
BRANCH  17  20
HETATM   20  C18 UNL     1       7.455  65.247   0.887  1.00  0.00     0.153 C 
BRANCH  20  21
HETATM   21  O4  UNL     1       8.570  65.828   0.258  1.00  0.00    -0.393 OA
ATOM     22  H4  UNL     1       8.367  66.692  -0.081  1.00  0.00     0.210 HD
ENDBRANCH  20  21
BRANCH  20  23
HETATM   23  C19 UNL     1       6.347  66.281   0.640  1.00  0.00     0.114 C 
BRANCH  23  24
HETATM   24  S1  UNL     1       6.996  67.927   0.442  1.00  0.00    -0.108 SA
BRANCH  24  25
HETATM   25  C20 UNL     1       7.838  68.548   1.848  1.00  0.00     0.091 A 
HETATM   26  N3  UNL     1       9.154  68.366   2.019  1.00  0.00    -0.359 N 
HETATM   27  C21 UNL     1       9.811  68.846   3.108  1.00  0.00     0.089 A 
ATOM     28  H3  UNL     1       9.678  67.852   1.311  1.00  0.00     0.166 HD
HETATM   29  C22 UNL     1       9.146  69.540   4.080  1.00  0.00     0.019 A 
HETATM   30  C23 UNL     1       7.785  69.747   3.938  1.00  0.00     0.028 A 
HETATM   31  C24 UNL     1       7.135  69.241   2.805  1.00  0.00     0.067 A 
HETATM   32 CL2  UNL     1       5.413  69.549   2.704  1.00  0.00    -0.081 Cl
ENDBRANCH  24  25
ENDBRANCH  23  24
ENDBRANCH  20  23
ENDBRANCH  17  20
BRANCH   1  33
HETATM   33  C2  UNL     1      10.798  63.136   1.830  1.00  0.00     0.045 C 
HETATM   34  C1  UNL     1      11.092  62.912   0.351  1.00  0.00     0.017 C 
HETATM   35  C3  UNL     1      11.325  64.492   2.242  1.00  0.00     0.017 C 
ENDBRANCH   1  33
BRANCH  14  36
HETATM   36  C15 UNL     1       4.948  67.309   5.453  1.00  0.00     0.146 C 
HETATM   37 CL1  UNL     1       3.288  67.850   5.215  1.00  0.00    -0.128 Cl
ENDBRANCH  14  36
BRANCH   6  38
HETATM   38  C7  UNL     1       6.596  59.445   2.360  1.00  0.00     0.009 C 
HETATM   39  C8  UNL     1       7.274  58.707   3.468  1.00  0.00     0.012 C 
HETATM   40  C9  UNL     1       5.183  59.014   2.126  1.00  0.00     0.012 C 
ENDBRANCH   6  38
TORSDOF 8
ENDMDL
MODEL 5
REMARK VINA RESULT: -7.460640518      2.806      5.195
REMARK  8 active torsions:
REMARK  status: ('A' for Active; 'I' for Inactive)
REMARK    1  A    between atoms: C2_2  and  C4_4 
REMARK    2  A    between atoms: C6_9  and  C7_10 
REMARK    3  A    between atoms: C14_20  and  C15_21 
REMARK    4  A    between atoms: C17_25  and  C18_26 
REMARK    5  A    between atoms: C18_26  and  O4_27 
REMARK    6  A    between atoms: C18_26  and  C19_29 
REMARK    7  A    between atoms: C19_29  and  S1_30 
REMARK    8  A    between atoms: S1_30  and  C20_31 
ROOT
HETATM    1  C4  UNL     1      10.443  65.183   2.910  1.00  0.00     0.083 C 
HETATM    2  N1  UNL     1      10.000  66.224   3.507  1.00  0.00    -0.315 N 
ATOM      3  H1  UNL     1      10.658  66.595   4.194  1.00  0.00     0.170 HD
HETATM    4  C5  UNL     1       8.842  66.956   3.434  1.00  0.00     0.246 C 
HETATM    5  O1  UNL     1       7.970  66.938   4.371  1.00  0.00    -0.271 OA
HETATM    6  C6  UNL     1       8.456  67.846   2.291  1.00  0.00     0.180 C 
HETATM    7  N2  UNL     1       7.101  67.524   1.944  1.00  0.00    -0.347 N 
ATOM      8  H2  UNL     1       6.369  68.224   2.073  1.00  0.00     0.163 HD
HETATM    9  C10 UNL     1       6.767  66.263   1.430  1.00  0.00     0.225 C 
HETATM   10  O2  UNL     1       5.684  65.688   1.693  1.00  0.00    -0.273 OA
HETATM   11  C11 UNL     1       7.713  65.550   0.534  1.00  0.00     0.109 C 
HETATM   12  C12 UNL     1       7.382  65.928  -0.854  1.00  0.00     0.019 C 
HETATM   13  C13 UNL     1       7.113  64.847  -1.832  1.00  0.00     0.034 C 
HETATM   14  C14 UNL     1       6.682  63.597  -1.102  1.00  0.00     0.135 C 
HETATM   15  O3  UNL     1       7.754  63.272  -0.288  1.00  0.00    -0.377 OA
HETATM   16  C16 UNL     1       7.630  64.080   0.870  1.00  0.00     0.160 C 
HETATM   17  C17 UNL     1       8.624  63.626   1.881  1.00  0.00     0.142 C 
HETATM   18  N4  UNL     1       9.824  64.422   1.908  1.00  0.00    -0.370 N 
ATOM     19  H4  UNL     1      10.324  64.435   1.020  1.00  0.00     0.161 HD
ENDROOT
BRANCH  17  20
HETATM   20  C18 UNL     1       8.033  63.311   3.213  1.00  0.00     0.153 C 
BRANCH  20  21
HETATM   21  O4  UNL     1       8.825  62.391   3.923  1.00  0.00    -0.393 OA
ATOM     22  H4  UNL     1       9.538  62.824   4.379  1.00  0.00     0.210 HD
ENDBRANCH  20  21
BRANCH  20  23
HETATM   23  C19 UNL     1       6.706  62.558   3.043  1.00  0.00     0.114 C 
BRANCH  23  24
HETATM   24  S1  UNL     1       6.801  60.885   3.645  1.00  0.00    -0.108 SA
BRANCH  24  25
HETATM   25  C20 UNL     1       5.743  59.756   2.821  1.00  0.00     0.091 A 
HETATM   26  N3  UNL     1       4.693  60.173   2.102  1.00  0.00    -0.359 N 
HETATM   27  C21 UNL     1       3.869  59.301   1.461  1.00  0.00     0.089 A 
ATOM     28  H3  UNL     1       4.505  61.173   2.033  1.00  0.00     0.166 HD
HETATM   29  C22 UNL     1       4.085  57.952   1.529  1.00  0.00     0.019 A 
HETATM   30  C23 UNL     1       5.161  57.485   2.263  1.00  0.00     0.028 A 
HETATM   31  C24 UNL     1       5.992  58.407   2.913  1.00  0.00     0.067 A 
HETATM   32 CL2  UNL     1       7.330  57.732   3.820  1.00  0.00    -0.081 Cl
ENDBRANCH  24  25
ENDBRANCH  23  24
ENDBRANCH  20  23
ENDBRANCH  17  20
BRANCH   1  33
HETATM   33  C2  UNL     1      11.835  64.744   3.354  1.00  0.00     0.045 C 
HETATM   34  C1  UNL     1      12.693  64.672   2.096  1.00  0.00     0.017 C 
HETATM   35  C3  UNL     1      12.449  65.732   4.318  1.00  0.00     0.017 C 
ENDBRANCH   1  33
BRANCH  14  36
HETATM   36  C15 UNL     1       6.323  62.483  -2.056  1.00  0.00     0.146 C 
HETATM   37 CL1  UNL     1       5.591  61.101  -1.245  1.00  0.00    -0.128 Cl
ENDBRANCH  14  36
BRANCH   6  38
HETATM   38  C7  UNL     1       8.627  69.305   2.665  1.00  0.00     0.009 C 
HETATM   39  C8  UNL     1      10.007  69.658   3.114  1.00  0.00     0.012 C 
HETATM   40  C9  UNL     1       8.101  70.189   1.579  1.00  0.00     0.012 C 
ENDBRANCH   6  38
TORSDOF 8
ENDMDL
