MODEL 1
REMARK VINA RESULT: -7.355545061      0.000      0.000
REMARK  8 active torsions:
REMARK  status: ('A' for Active; 'I' for Inactive)
REMARK    1  A    between atoms: C2_2  and  N1_3 
REMARK    2  A    between atoms: N1_3  and  C3_5 
REMARK    3  A    between atoms: C4_8  and  C5_9 
REMARK    4  A    between atoms: N3_12  and  C8_13 
REMARK       I    between atoms: N4_16  and  C11_17 
REMARK    5  A    between atoms: C11_17  and  C12_19 
REMARK    6  A    between atoms: C12_19  and  C13_20 
REMARK    7  A    between atoms: C20_31  and  N7_32 
REMARK    8  A    between atoms: C23_37  and  C24_38 
ROOT
HETATM    1  C3  UNL     1       6.641  59.893   1.993  1.00  0.00     0.128 A 
HETATM    2  N2  UNL     1       7.163  61.140   1.811  1.00  0.00    -0.330 N 
ATOM      3  H2  UNL     1       8.008  61.364   2.336  1.00  0.00     0.168 HD
HETATM    4  C4  UNL     1       6.686  62.079   1.031  1.00  0.00     0.091 A 
HETATM    5  N6  UNL     1       5.557  61.771   0.333  1.00  0.00    -0.330 N 
ATOM      6  H6  UNL     1       5.150  62.469  -0.289  1.00  0.00     0.168 HD
HETATM    7  C20 UNL     1       4.970  60.571   0.447  1.00  0.00     0.132 A 
HETATM    8  C26 UNL     1       5.501  59.604   1.281  1.00  0.00     0.121 A 
HETATM    9 CL1  UNL     1       4.707  58.036   1.398  1.00  0.00    -0.076 Cl
ENDROOT
BRANCH   4  10
HETATM   10  C5  UNL     1       7.156  63.442   0.833  1.00  0.00     0.093 C 
HETATM   11  C6  UNL     1       6.123  64.330   0.151  1.00  0.00     0.045 C 
HETATM   12  C7  UNL     1       6.654  65.700   0.501  1.00  0.00     0.275 C 
HETATM   13  N3  UNL     1       7.822  65.498   1.375  1.00  0.00     0.103 N 
HETATM   14  C17 UNL     1       7.450  64.276   2.049  1.00  0.00     0.163 C 
HETATM   15  C18 UNL     1       8.580  63.592   2.765  1.00  0.00     0.049 C 
HETATM   16  C19 UNL     1       6.224  64.437   2.917  1.00  0.00     0.049 C 
BRANCH  13  17
HETATM   17  C8  UNL     1       8.002  66.659   2.149  1.00  0.00     0.227 C 
HETATM   18  C9  UNL     1       7.023  67.699   1.581  1.00  0.00     0.056 C 
HETATM   19  C10 UNL     1       7.038  68.968   2.401  1.00  0.00     0.128 C 
HETATM   20  N4  UNL     1       8.371  69.505   2.301  1.00  0.00    -0.347 N 
HETATM   21  C11 UNL     1       8.643  70.811   1.840  1.00  0.00     0.228 C 
HETATM   22  C14 UNL     1       9.436  68.630   2.704  1.00  0.00     0.085 C 
HETATM   23  O1  UNL     1       9.837  71.207   1.783  1.00  0.00    -0.273 OA
HETATM   24  C15 UNL     1       9.473  68.396   4.187  1.00  0.00     0.032 C 
HETATM   25  C16 UNL     1       9.373  67.267   2.011  1.00  0.00     0.061 C 
BRANCH  21  26
HETATM   26  C12 UNL     1       7.603  71.771   1.413  1.00  0.00     0.202 C 
BRANCH  26  27
HETATM   27  C13 UNL     1       7.730  71.951  -0.077  1.00  0.00     0.239 C 
HETATM   28  N5  UNL     1       7.973  70.843  -0.931  1.00  0.00    -0.062 NA
HETATM   29  O2  UNL     1       7.611  73.123  -0.510  1.00  0.00    -0.276 OA
ENDBRANCH  26  27
ENDBRANCH  21  26
ENDBRANCH  13  17
ENDBRANCH   4  10
BRANCH   1  30
HETATM   30  N1  UNL     1       7.235  59.140   2.770  1.00  0.00    -0.375 N 
ATOM     31  H1  UNL     1       8.137  58.897   2.360  1.00  0.00     0.161 HD
BRANCH  30  32
HETATM   32  C2  UNL     1       7.121  58.507   3.989  1.00  0.00     0.116 C 
HETATM   33  C1  UNL     1       7.114  56.977   3.895  1.00  0.00     0.026 C 
ENDBRANCH  30  32
ENDBRANCH   1  30
BRANCH   7  34
HETATM   34  N7  UNL     1       3.787  60.269  -0.291  1.00  0.00    -0.334 N 
HETATM   35  C21 UNL     1       2.468  60.145   0.306  1.00  0.00     0.193 C 
HETATM   36  C22 UNL     1       1.808  59.192  -0.672  1.00  0.00     0.327 C 
HETATM   37  F1  UNL     1       0.651  59.748  -1.233  1.00  0.00    -0.218 F 
HETATM   38  O3  UNL     1       2.676  58.967  -1.712  1.00  0.00    -0.331 OA
HETATM   39  C23 UNL     1       3.597  60.009  -1.695  1.00  0.00     0.227 C 
BRANCH  39  40
HETATM   40  C24 UNL     1       4.876  59.614  -2.413  1.00  0.00     0.049 C 
HETATM   41  C25 UNL     1       5.383  60.831  -3.204  1.00  0.00     0.009 C 
ENDBRANCH  39  40
ENDBRANCH   7  34
TORSDOF 8
ENDMDL
MODEL 2
REMARK VINA RESULT: -7.239880093      3.899      5.270
REMARK  8 active torsions:
REMARK  status: ('A' for Active; 'I' for Inactive)
REMARK    1  A    between atoms: C2_2  and  N1_3 
REMARK    2  A    between atoms: N1_3  and  C3_5 
REMARK    3  A    between atoms: C4_8  and  C5_9 
REMARK    4  A    between atoms: N3_12  and  C8_13 
REMARK       I    between atoms: N4_16  and  C11_17 
REMARK    5  A    between atoms: C11_17  and  C12_19 
REMARK    6  A    between atoms: C12_19  and  C13_20 
REMARK    7  A    between atoms: C20_31  and  N7_32 
REMARK    8  A    between atoms: C23_37  and  C24_38 
ROOT
HETATM    1  C3  UNL     1       5.602  60.003   1.794  1.00  0.00     0.128 A 
HETATM    2  N2  UNL     1       6.812  60.612   1.642  1.00  0.00    -0.330 N 
ATOM      3  H2  UNL     1       7.561  60.304   2.262  1.00  0.00     0.168 HD
HETATM    4  C4  UNL     1       7.109  61.553   0.779  1.00  0.00     0.091 A 
HETATM    5  N6  UNL     1       6.103  61.958  -0.045  1.00  0.00    -0.330 N 
ATOM      6  H6  UNL     1       6.286  62.687  -0.735  1.00  0.00     0.168 HD
HETATM    7  C20 UNL     1       4.878  61.419   0.030  1.00  0.00     0.132 A 
HETATM    8  C26 UNL     1       4.600  60.428   0.953  1.00  0.00     0.121 A 
HETATM    9 CL1  UNL     1       2.981  59.737   1.017  1.00  0.00    -0.076 Cl
ENDROOT
BRANCH   4  10
HETATM   10  C5  UNL     1       8.356  62.282   0.601  1.00  0.00     0.093 C 
HETATM   11  C6  UNL     1       8.250  63.387  -0.441  1.00  0.00     0.045 C 
HETATM   12  C7  UNL     1       9.451  64.230  -0.083  1.00  0.00     0.275 C 
HETATM   13  N3  UNL     1      10.056  63.627   1.117  1.00  0.00     0.103 N 
HETATM   14  C17 UNL     1       8.889  63.074   1.763  1.00  0.00     0.163 C 
HETATM   15  C18 UNL     1       9.190  62.079   2.848  1.00  0.00     0.049 C 
HETATM   16  C19 UNL     1       7.907  64.136   2.203  1.00  0.00     0.049 C 
BRANCH  13  17
HETATM   17  C8  UNL     1      10.786  64.621   1.793  1.00  0.00     0.227 C 
HETATM   18  C9  UNL     1      12.247  64.143   1.794  1.00  0.00     0.056 C 
HETATM   19  C10 UNL     1      13.161  65.183   2.399  1.00  0.00     0.128 C 
HETATM   20  N4  UNL     1      12.742  65.352   3.767  1.00  0.00    -0.347 N 
HETATM   21  C11 UNL     1      13.613  65.183   4.865  1.00  0.00     0.228 C 
HETATM   22  C14 UNL     1      11.367  65.712   3.967  1.00  0.00     0.085 C 
HETATM   23  O1  UNL     1      13.169  65.350   6.032  1.00  0.00    -0.273 OA
HETATM   24  C15 UNL     1      11.059  67.117   3.534  1.00  0.00     0.032 C 
HETATM   25  C16 UNL     1      10.401  64.772   3.240  1.00  0.00     0.061 C 
BRANCH  21  26
HETATM   26  C12 UNL     1      15.039  64.819   4.742  1.00  0.00     0.202 C 
BRANCH  26  27
HETATM   27  C13 UNL     1      15.335  63.766   5.777  1.00  0.00     0.239 C 
HETATM   28  N5  UNL     1      15.256  64.059   7.164  1.00  0.00    -0.062 NA
HETATM   29  O2  UNL     1      15.653  62.632   5.344  1.00  0.00    -0.276 OA
ENDBRANCH  26  27
ENDBRANCH  21  26
ENDBRANCH  13  17
ENDBRANCH   4  10
BRANCH   1  30
HETATM   30  N1  UNL     1       5.513  59.130   2.662  1.00  0.00    -0.375 N 
ATOM     31  H1  UNL     1       4.960  59.497   3.436  1.00  0.00     0.161 HD
BRANCH  30  32
HETATM   32  C2  UNL     1       5.889  57.839   2.964  1.00  0.00     0.116 C 
HETATM   33  C1  UNL     1       7.126  57.748   3.866  1.00  0.00     0.026 C 
ENDBRANCH  30  32
ENDBRANCH   1  30
BRANCH   7  34
HETATM   34  N7  UNL     1       3.837  61.858  -0.842  1.00  0.00    -0.334 N 
HETATM   35  C21 UNL     1       2.798  62.797  -0.456  1.00  0.00     0.193 C 
HETATM   36  C22 UNL     1       1.679  62.373  -1.387  1.00  0.00     0.327 C 
HETATM   37  F1  UNL     1       1.255  63.433  -2.201  1.00  0.00    -0.218 F 
HETATM   38  O3  UNL     1       2.161  61.403  -2.232  1.00  0.00    -0.331 OA
HETATM   39  C23 UNL     1       3.548  61.507  -2.209  1.00  0.00     0.227 C 
BRANCH  39  40
HETATM   40  C24 UNL     1       4.197  60.206  -2.648  1.00  0.00     0.049 C 
HETATM   41  C25 UNL     1       3.135  59.097  -2.603  1.00  0.00     0.009 C 
ENDBRANCH  39  40
ENDBRANCH   7  34
TORSDOF 8
ENDMDL
MODEL 3
REMARK VINA RESULT: -7.171675377      0.960      1.724
REMARK  8 active torsions:
REMARK  status: ('A' for Active; 'I' for Inactive)
REMARK    1  A    between atoms: C2_2  and  N1_3 
REMARK    2  A    between atoms: N1_3  and  C3_5 
REMARK    3  A    between atoms: C4_8  and  C5_9 
REMARK    4  A    between atoms: N3_12  and  C8_13 
REMARK       I    between atoms: N4_16  and  C11_17 
REMARK    5  A    between atoms: C11_17  and  C12_19 
REMARK    6  A    between atoms: C12_19  and  C13_20 
REMARK    7  A    between atoms: C20_31  and  N7_32 
REMARK    8  A    between atoms: C23_37  and  C24_38 
ROOT
HETATM    1  C3  UNL     1       6.546  59.632   2.049  1.00  0.00     0.128 A 
HETATM    2  N2  UNL     1       7.075  60.873   1.856  1.00  0.00    -0.330 N 
ATOM      3  H2  UNL     1       7.946  61.081   2.345  1.00  0.00     0.168 HD
HETATM    4  C4  UNL     1       6.576  61.827   1.107  1.00  0.00     0.091 A 
HETATM    5  N6  UNL     1       5.413  61.540   0.458  1.00  0.00    -0.330 N 
ATOM      6  H6  UNL     1       4.988  62.250  -0.139  1.00  0.00     0.168 HD
HETATM    7  C20 UNL     1       4.817  60.346   0.586  1.00  0.00     0.132 A 
HETATM    8  C26 UNL     1       5.371  59.364   1.385  1.00  0.00     0.121 A 
HETATM    9 CL1  UNL     1       4.564  57.805   1.522  1.00  0.00    -0.076 Cl
ENDROOT
BRANCH   4  10
HETATM   10  C5  UNL     1       7.054  63.185   0.903  1.00  0.00     0.093 C 
HETATM   11  C6  UNL     1       5.974  64.118   0.370  1.00  0.00     0.045 C 
HETATM   12  C7  UNL     1       6.573  65.464   0.701  1.00  0.00     0.275 C 
HETATM   13  N3  UNL     1       7.826  65.207   1.433  1.00  0.00     0.103 N 
HETATM   14  C17 UNL     1       7.502  63.971   2.104  1.00  0.00     0.163 C 
HETATM   15  C18 UNL     1       8.687  63.239   2.667  1.00  0.00     0.049 C 
HETATM   16  C19 UNL     1       6.384  64.126   3.109  1.00  0.00     0.049 C 
BRANCH  13  17
HETATM   17  C8  UNL     1       8.119  66.337   2.218  1.00  0.00     0.227 C 
HETATM   18  C9  UNL     1       7.141  67.431   1.764  1.00  0.00     0.056 C 
HETATM   19  C10 UNL     1       7.277  68.674   2.612  1.00  0.00     0.128 C 
HETATM   20  N4  UNL     1       8.619  69.160   2.413  1.00  0.00    -0.347 N 
HETATM   21  C11 UNL     1       8.906  70.468   1.966  1.00  0.00     0.228 C 
HETATM   22  C14 UNL     1       9.677  68.232   2.702  1.00  0.00     0.085 C 
HETATM   23  O1  UNL     1      10.107  70.817   1.818  1.00  0.00    -0.273 OA
HETATM   24  C15 UNL     1       9.827  67.953   4.169  1.00  0.00     0.032 C 
HETATM   25  C16 UNL     1       9.498  66.893   1.981  1.00  0.00     0.061 C 
BRANCH  21  26
HETATM   26  C12 UNL     1       7.876  71.480   1.654  1.00  0.00     0.202 C 
BRANCH  26  27
HETATM   27  C13 UNL     1       7.773  71.583   0.154  1.00  0.00     0.239 C 
HETATM   28  N5  UNL     1       7.534  72.830  -0.480  1.00  0.00    -0.062 NA
HETATM   29  O2  UNL     1       7.907  70.514  -0.489  1.00  0.00    -0.276 OA
ENDBRANCH  26  27
ENDBRANCH  21  26
ENDBRANCH  13  17
ENDBRANCH   4  10
BRANCH   1  30
HETATM   30  N1  UNL     1       7.164  58.863   2.790  1.00  0.00    -0.375 N 
ATOM     31  H1  UNL     1       8.024  58.579   2.320  1.00  0.00     0.161 HD
BRANCH  30  32
HETATM   32  C2  UNL     1       7.114  58.248   4.023  1.00  0.00     0.116 C 
HETATM   33  C1  UNL     1       7.115  56.717   3.954  1.00  0.00     0.026 C 
ENDBRANCH  30  32
ENDBRANCH   1  30
BRANCH   7  34
HETATM   34  N7  UNL     1       3.598  60.066  -0.101  1.00  0.00    -0.334 N 
HETATM   35  C21 UNL     1       3.528  59.647  -1.491  1.00  0.00     0.193 C 
HETATM   36  C22 UNL     1       2.153  60.164  -1.869  1.00  0.00     0.327 C 
HETATM   37  F1  UNL     1       1.321  59.132  -2.323  1.00  0.00    -0.218 F 
HETATM   38  O3  UNL     1       1.557  60.676  -0.743  1.00  0.00    -0.331 OA
HETATM   39  C23 UNL     1       2.231  60.134   0.347  1.00  0.00     0.227 C 
BRANCH  39  40
HETATM   40  C24 UNL     1       2.044  60.996   1.584  1.00  0.00     0.049 C 
HETATM   41  C25 UNL     1       0.751  60.558   2.289  1.00  0.00     0.009 C 
ENDBRANCH  39  40
ENDBRANCH   7  34
TORSDOF 8
ENDMDL
MODEL 4
REMARK VINA RESULT: -7.121087626      1.244      1.304
REMARK  8 active torsions:
REMARK  status: ('A' for Active; 'I' for Inactive)
REMARK    1  A    between atoms: C2_2  and  N1_3 
REMARK    2  A    between atoms: N1_3  and  C3_5 
REMARK    3  A    between atoms: C4_8  and  C5_9 
REMARK    4  A    between atoms: N3_12  and  C8_13 
REMARK       I    between atoms: N4_16  and  C11_17 
REMARK    5  A    between atoms: C11_17  and  C12_19 
REMARK    6  A    between atoms: C12_19  and  C13_20 
REMARK    7  A    between atoms: C20_31  and  N7_32 
REMARK    8  A    between atoms: C23_37  and  C24_38 
ROOT
HETATM    1  C3  UNL     1       5.463  59.753   2.440  1.00  0.00     0.128 A 
HETATM    2  N2  UNL     1       5.891  61.046   2.381  1.00  0.00    -0.330 N 
ATOM      3  H2  UNL     1       6.555  61.342   3.097  1.00  0.00     0.168 HD
HETATM    4  C4  UNL     1       5.535  61.946   1.497  1.00  0.00     0.091 A 
HETATM    5  N6  UNL     1       4.649  61.542   0.545  1.00  0.00    -0.330 N 
ATOM      6  H6  UNL     1       4.344  62.207  -0.167  1.00  0.00     0.168 HD
HETATM    7  C20 UNL     1       4.170  60.290   0.521  1.00  0.00     0.132 A 
HETATM    8  C26 UNL     1       4.568  59.366   1.470  1.00  0.00     0.121 A 
HETATM    9 CL1  UNL     1       3.925  57.728   1.402  1.00  0.00    -0.076 Cl
ENDROOT
BRANCH   4  10
HETATM   10  C5  UNL     1       5.906  63.350   1.409  1.00  0.00     0.093 C 
HETATM   11  C6  UNL     1       4.798  64.285   1.878  1.00  0.00     0.045 C 
HETATM   12  C7  UNL     1       5.582  65.551   2.126  1.00  0.00     0.275 C 
HETATM   13  N3  UNL     1       7.000  65.233   1.882  1.00  0.00     0.103 N 
HETATM   14  C17 UNL     1       7.038  63.842   2.268  1.00  0.00     0.163 C 
HETATM   15  C18 UNL     1       8.264  63.103   1.812  1.00  0.00     0.049 C 
HETATM   16  C19 UNL     1       6.746  63.635   3.737  1.00  0.00     0.049 C 
BRANCH  13  17
HETATM   17  C8  UNL     1       7.789  66.148   2.602  1.00  0.00     0.227 C 
HETATM   18  C9  UNL     1       6.876  67.348   2.901  1.00  0.00     0.056 C 
HETATM   19  C10 UNL     1       7.576  68.364   3.773  1.00  0.00     0.128 C 
HETATM   20  N4  UNL     1       8.709  68.839   3.020  1.00  0.00    -0.347 N 
HETATM   21  C11 UNL     1       8.924  70.203   2.731  1.00  0.00     0.228 C 
HETATM   22  C14 UNL     1       9.633  67.836   2.570  1.00  0.00     0.085 C 
HETATM   23  O1  UNL     1       9.940  70.538   2.066  1.00  0.00    -0.273 OA
HETATM   24  C15 UNL     1      10.431  67.231   3.689  1.00  0.00     0.032 C 
HETATM   25  C16 UNL     1       8.945  66.699   1.811  1.00  0.00     0.061 C 
BRANCH  21  26
HETATM   26  C12 UNL     1       8.023  71.292   3.161  1.00  0.00     0.202 C 
BRANCH  26  27
HETATM   27  C13 UNL     1       7.190  71.696   1.973  1.00  0.00     0.239 C 
HETATM   28  N5  UNL     1       5.857  71.233   1.822  1.00  0.00    -0.062 NA
HETATM   29  O2  UNL     1       7.740  72.454   1.137  1.00  0.00    -0.276 OA
ENDBRANCH  26  27
ENDBRANCH  21  26
ENDBRANCH  13  17
ENDBRANCH   4  10
BRANCH   1  30
HETATM   30  N1  UNL     1       5.915  59.048   3.347  1.00  0.00    -0.375 N 
ATOM     31  H1  UNL     1       5.150  58.794   3.972  1.00  0.00     0.161 HD
BRANCH  30  32
HETATM   32  C2  UNL     1       7.078  58.481   3.822  1.00  0.00     0.116 C 
HETATM   33  C1  UNL     1       7.060  56.948   3.835  1.00  0.00     0.026 C 
ENDBRANCH  30  32
ENDBRANCH   1  30
BRANCH   7  34
HETATM   34  N7  UNL     1       3.242  59.886  -0.484  1.00  0.00    -0.334 N 
HETATM   35  C21 UNL     1       1.854  59.551  -0.219  1.00  0.00     0.193 C 
HETATM   36  C22 UNL     1       1.576  58.589  -1.357  1.00  0.00     0.327 C 
HETATM   37  F1  UNL     1       0.510  59.026  -2.155  1.00  0.00    -0.218 F 
HETATM   38  O3  UNL     1       2.681  58.551  -2.172  1.00  0.00    -0.331 OA
HETATM   39  C23 UNL     1       3.416  59.700  -1.902  1.00  0.00     0.227 C 
BRANCH  39  40
HETATM   40  C24 UNL     1       4.868  59.525  -2.313  1.00  0.00     0.049 C 
HETATM   41  C25 UNL     1       5.327  60.806  -3.027  1.00  0.00     0.009 C 
ENDBRANCH  39  40
ENDBRANCH   7  34
TORSDOF 8
ENDMDL
MODEL 5
REMARK VINA RESULT: -7.090757401      4.115      5.636
REMARK  8 active torsions:
REMARK  status: ('A' for Active; 'I' for Inactive)
REMARK    1  A    between atoms: C2_2  and  N1_3 
REMARK    2  A    between atoms: N1_3  and  C3_5 
REMARK    3  A    between atoms: C4_8  and  C5_9 
REMARK    4  A    between atoms: N3_12  and  C8_13 
REMARK       I    between atoms: N4_16  and  C11_17 
REMARK    5  A    between atoms: C11_17  and  C12_19 
REMARK    6  A    between atoms: C12_19  and  C13_20 
REMARK    7  A    between atoms: C20_31  and  N7_32 
REMARK    8  A    between atoms: C23_37  and  C24_38 
ROOT
HETATM    1  C3  UNL     1       5.437  59.954   1.959  1.00  0.00     0.128 A 
HETATM    2  N2  UNL     1       6.679  60.476   1.749  1.00  0.00    -0.330 N 
ATOM      3  H2  UNL     1       7.466  59.958   2.138  1.00  0.00     0.168 HD
HETATM    4  C4  UNL     1       6.962  61.578   1.096  1.00  0.00     0.091 A 
HETATM    5  N6  UNL     1       5.905  62.263   0.578  1.00  0.00    -0.330 N 
ATOM      6  H6  UNL     1       6.075  63.125   0.060  1.00  0.00     0.168 HD
HETATM    7  C20 UNL     1       4.646  61.829   0.734  1.00  0.00     0.132 A 
HETATM    8  C26 UNL     1       4.384  60.663   1.429  1.00  0.00     0.121 A 
HETATM    9 CL1  UNL     1       2.718  60.119   1.607  1.00  0.00    -0.076 Cl
ENDROOT
BRANCH   4  10
HETATM   10  C5  UNL     1       8.251  62.219   0.884  1.00  0.00     0.093 C 
HETATM   11  C6  UNL     1       8.229  63.222  -0.262  1.00  0.00     0.045 C 
HETATM   12  C7  UNL     1       9.467  64.031   0.047  1.00  0.00     0.275 C 
HETATM   13  N3  UNL     1      10.011  63.515   1.315  1.00  0.00     0.103 N 
HETATM   14  C17 UNL     1       8.801  63.090   1.979  1.00  0.00     0.163 C 
HETATM   15  C18 UNL     1       9.023  62.189   3.161  1.00  0.00     0.049 C 
HETATM   16  C19 UNL     1       7.871  64.239   2.289  1.00  0.00     0.049 C 
BRANCH  13  17
HETATM   17  C8  UNL     1      10.780  64.530   1.912  1.00  0.00     0.227 C 
HETATM   18  C9  UNL     1      12.229  64.016   1.911  1.00  0.00     0.056 C 
HETATM   19  C10 UNL     1      13.182  65.067   2.431  1.00  0.00     0.128 C 
HETATM   20  N4  UNL     1      12.799  65.329   3.795  1.00  0.00    -0.347 N 
HETATM   21  C11 UNL     1      13.690  65.205   4.882  1.00  0.00     0.228 C 
HETATM   22  C14 UNL     1      11.437  65.735   4.002  1.00  0.00     0.085 C 
HETATM   23  O1  UNL     1      13.278  65.454   6.046  1.00  0.00    -0.273 OA
HETATM   24  C15 UNL     1      11.154  67.119   3.491  1.00  0.00     0.032 C 
HETATM   25  C16 UNL     1      10.433  64.777   3.356  1.00  0.00     0.061 C 
BRANCH  21  26
HETATM   26  C12 UNL     1      15.105  64.799   4.751  1.00  0.00     0.202 C 
BRANCH  26  27
HETATM   27  C13 UNL     1      15.377  63.744   5.791  1.00  0.00     0.239 C 
HETATM   28  N5  UNL     1      15.253  64.031   7.176  1.00  0.00    -0.062 NA
HETATM   29  O2  UNL     1      15.718  62.614   5.364  1.00  0.00    -0.276 OA
ENDBRANCH  26  27
ENDBRANCH  21  26
ENDBRANCH  13  17
ENDBRANCH   4  10
BRANCH   1  30
HETATM   30  N1  UNL     1       5.368  58.900   2.597  1.00  0.00    -0.375 N 
ATOM     31  H1  UNL     1       4.545  58.939   3.199  1.00  0.00     0.161 HD
BRANCH  30  32
HETATM   32  C2  UNL     1       5.997  57.689   2.790  1.00  0.00     0.116 C 
HETATM   33  C1  UNL     1       7.119  57.733   3.834  1.00  0.00     0.026 C 
ENDBRANCH  30  32
ENDBRANCH   1  30
BRANCH   7  34
HETATM   34  N7  UNL     1       3.552  62.563   0.186  1.00  0.00    -0.334 N 
HETATM   35  C21 UNL     1       3.041  62.371  -1.161  1.00  0.00     0.193 C 
HETATM   36  C22 UNL     1       2.466  63.746  -1.439  1.00  0.00     0.327 C 
HETATM   37  F1  UNL     1       1.100  63.682  -1.745  1.00  0.00    -0.218 F 
HETATM   38  O3  UNL     1       2.574  64.501  -0.297  1.00  0.00    -0.331 OA
HETATM   39  C23 UNL     1       2.743  63.609   0.757  1.00  0.00     0.227 C 
BRANCH  39  40
HETATM   40  C24 UNL     1       3.394  64.293   1.947  1.00  0.00     0.049 C 
HETATM   41  C25 UNL     1       4.026  65.607   1.464  1.00  0.00     0.009 C 
ENDBRANCH  39  40
ENDBRANCH   7  34
TORSDOF 8
ENDMDL
