MODEL 1
REMARK VINA RESULT: -7.837974281      0.000      0.000
REMARK  8 active torsions:
REMARK  status: ('A' for Active; 'I' for Inactive)
REMARK       I    between atoms: C1_2  and  N1_3 
REMARK    1  A    between atoms: C1_2  and  C16_26 
REMARK    2  A    between atoms: N1_3  and  C2_5 
REMARK    3  A    between atoms: C7_10  and  C8_11 
REMARK       I    between atoms: C8_11  and  N2_13 
REMARK    4  A    between atoms: C9_14  and  C10_15 
REMARK    5  A    between atoms: C10_15  and  O3_16 
REMARK    6  A    between atoms: C12_20  and  C13_21 
REMARK    7  A    between atoms: C13_21  and  C14_23 
REMARK    8  A    between atoms: N4_30  and  C18_31 
ROOT
HETATM    1  C2  UNL     1       6.014  60.527   3.690  1.00  0.00     0.093 C 
HETATM    2  C3  UNL     1       7.203  59.540   3.585  1.00  0.00     0.009 C 
HETATM    3  C4  UNL     1       6.363  58.364   3.154  1.00  0.00     0.007 C 
HETATM    4  C5  UNL     1       5.379  58.776   2.359  1.00  0.00     0.008 C 
HETATM    5  C6  UNL     1       5.586  60.289   2.260  1.00  0.00     0.022 C 
HETATM    6  C7  UNL     1       6.814  60.407   1.443  1.00  0.00     0.084 C 
HETATM    7  C15 UNL     1       7.948  60.146   2.459  1.00  0.00     0.021 C 
ENDROOT
BRANCH   1   8
HETATM    8  N1  UNL     1       6.382  61.834   4.054  1.00  0.00    -0.350 N 
HETATM    9  C1  UNL     1       5.347  62.840   3.954  1.00  0.00     0.271 C 
HETATM   10  O1  UNL     1       4.178  62.565   3.561  1.00  0.00    -0.266 OA
ATOM     11  H1  UNL     1       7.325  62.059   4.370  1.00  0.00     0.163 HD
BRANCH   9  12
HETATM   12  C16 UNL     1       5.601  64.246   4.308  1.00  0.00     0.134 A 
HETATM   13  C17 UNL     1       5.070  64.949   5.363  1.00  0.00     0.145 A 
HETATM   14  N3  UNL     1       5.582  66.194   5.281  1.00  0.00    -0.292 N 
HETATM   15  N4  UNL     1       6.386  66.267   4.237  1.00  0.00    -0.224 N 
ATOM     16  H3  UNL     1       5.378  66.960   5.923  1.00  0.00     0.187 HD
HETATM   17  N5  UNL     1       6.401  65.089   3.645  1.00  0.00    -0.277 N 
ATOM     18  H5  UNL     1       6.938  64.856   2.811  1.00  0.00     0.189 HD
BRANCH  15  19
HETATM   19  C18 UNL     1       7.099  67.475   3.861  1.00  0.00     0.071 C 
HETATM   20  C19 UNL     1       6.648  68.661   4.686  1.00  0.00     0.039 C 
HETATM   21  C20 UNL     1       7.435  69.860   4.237  1.00  0.00    -0.011 C 
HETATM   22  C21 UNL     1       8.930  69.669   4.425  1.00  0.00     0.009 C 
HETATM   23  C25 UNL     1       7.206  70.198   2.785  1.00  0.00     0.009 C 
HETATM   24  C22 UNL     1       9.365  68.466   3.624  1.00  0.00    -0.011 C 
HETATM   25  C23 UNL     1       9.104  68.780   2.171  1.00  0.00     0.009 C 
HETATM   26  C27 UNL     1       8.566  67.270   4.095  1.00  0.00     0.039 C 
HETATM   27  C24 UNL     1       7.624  68.970   1.973  1.00  0.00    -0.011 C 
HETATM   28  C26 UNL     1       6.826  67.778   2.398  1.00  0.00     0.039 C 
ENDBRANCH  15  19
ENDBRANCH   9  12
ENDBRANCH   1   8
BRANCH   6  29
HETATM   29  C8  UNL     1       7.043  61.594   0.657  1.00  0.00     0.227 C 
HETATM   30  O2  UNL     1       8.108  62.265   0.915  1.00  0.00    -0.273 OA
HETATM   31  N2  UNL     1       6.168  62.053  -0.367  1.00  0.00    -0.314 N 
HETATM   32  C9  UNL     1       4.936  61.508  -0.877  1.00  0.00     0.137 C 
HETATM   33  C12 UNL     1       6.401  63.268  -1.107  1.00  0.00     0.261 C 
HETATM   34  C11 UNL     1       4.578  62.475  -1.998  1.00  0.00     0.198 C 
HETATM   35  O4  UNL     1       5.837  62.988  -2.374  1.00  0.00    -0.361 OA
BRANCH  32  36
HETATM   36  C10 UNL     1       4.995  60.102  -1.378  1.00  0.00     0.191 C 
BRANCH  36  37
HETATM   37  O3  UNL     1       5.423  59.968  -2.688  1.00  0.00    -0.399 OA
ATOM     38  H3  UNL     1       4.991  59.281  -3.181  1.00  0.00     0.209 HD
ENDBRANCH  36  37
ENDBRANCH  32  36
BRANCH  33  39
HETATM   39  C13 UNL     1       7.801  63.734  -1.238  1.00  0.00     0.232 C 
HETATM   40  F1  UNL     1       8.253  63.706  -2.529  1.00  0.00    -0.244 F 
BRANCH  39  41
HETATM   41  C14 UNL     1       7.734  65.258  -0.895  1.00  0.00     0.156 C 
HETATM   42 CL1  UNL     1       8.812  65.545   0.476  1.00  0.00    -0.127 Cl
ENDBRANCH  39  41
ENDBRANCH  33  39
ENDBRANCH   6  29
TORSDOF 8
ENDMDL
MODEL 2
REMARK VINA RESULT: -7.752748991      0.082      1.204
REMARK  8 active torsions:
REMARK  status: ('A' for Active; 'I' for Inactive)
REMARK       I    between atoms: C1_2  and  N1_3 
REMARK    1  A    between atoms: C1_2  and  C16_26 
REMARK    2  A    between atoms: N1_3  and  C2_5 
REMARK    3  A    between atoms: C7_10  and  C8_11 
REMARK       I    between atoms: C8_11  and  N2_13 
REMARK    4  A    between atoms: C9_14  and  C10_15 
REMARK    5  A    between atoms: C10_15  and  O3_16 
REMARK    6  A    between atoms: C12_20  and  C13_21 
REMARK    7  A    between atoms: C13_21  and  C14_23 
REMARK    8  A    between atoms: N4_30  and  C18_31 
ROOT
HETATM    1  C2  UNL     1       6.019  60.529   3.687  1.00  0.00     0.093 C 
HETATM    2  C3  UNL     1       7.206  59.539   3.579  1.00  0.00     0.009 C 
HETATM    3  C4  UNL     1       6.362  58.365   3.150  1.00  0.00     0.007 C 
HETATM    4  C5  UNL     1       5.376  58.778   2.358  1.00  0.00     0.008 C 
HETATM    5  C6  UNL     1       5.586  60.291   2.258  1.00  0.00     0.022 C 
HETATM    6  C7  UNL     1       6.811  60.406   1.437  1.00  0.00     0.084 C 
HETATM    7  C15 UNL     1       7.948  60.144   2.450  1.00  0.00     0.021 C 
ENDROOT
BRANCH   1   8
HETATM    8  N1  UNL     1       6.390  61.835   4.048  1.00  0.00    -0.350 N 
HETATM    9  C1  UNL     1       5.361  62.846   3.938  1.00  0.00     0.271 C 
HETATM   10  O1  UNL     1       4.193  62.575   3.537  1.00  0.00    -0.266 OA
ATOM     11  H1  UNL     1       7.332  62.057   4.371  1.00  0.00     0.163 HD
BRANCH   9  12
HETATM   12  C16 UNL     1       5.619  64.252   4.289  1.00  0.00     0.134 A 
HETATM   13  C17 UNL     1       5.102  64.955   5.351  1.00  0.00     0.145 A 
HETATM   14  N3  UNL     1       5.612  66.200   5.262  1.00  0.00    -0.292 N 
HETATM   15  N4  UNL     1       6.402  66.273   4.207  1.00  0.00    -0.224 N 
ATOM     16  H3  UNL     1       5.417  66.965   5.908  1.00  0.00     0.187 HD
HETATM   17  N5  UNL     1       6.409  65.095   3.615  1.00  0.00    -0.277 N 
ATOM     18  H5  UNL     1       6.934  64.863   2.772  1.00  0.00     0.189 HD
BRANCH  15  19
HETATM   19  C18 UNL     1       7.109  67.482   3.822  1.00  0.00     0.071 C 
HETATM   20  C19 UNL     1       8.605  67.320   3.981  1.00  0.00     0.039 C 
HETATM   21  C20 UNL     1       9.255  68.608   3.559  1.00  0.00    -0.011 C 
HETATM   22  C21 UNL     1       8.948  68.959   2.113  1.00  0.00     0.009 C 
HETATM   23  C25 UNL     1       8.829  69.781   4.405  1.00  0.00     0.009 C 
HETATM   24  C22 UNL     1       7.452  69.087   1.958  1.00  0.00    -0.011 C 
HETATM   25  C23 UNL     1       7.010  70.236   2.831  1.00  0.00     0.009 C 
HETATM   26  C27 UNL     1       6.818  67.781   2.381  1.00  0.00     0.039 C 
HETATM   27  C24 UNL     1       7.308  69.898   4.267  1.00  0.00    -0.011 C 
HETATM   28  C26 UNL     1       6.655  68.628   4.710  1.00  0.00     0.039 C 
ENDBRANCH  15  19
ENDBRANCH   9  12
ENDBRANCH   1   8
BRANCH   6  29
HETATM   29  C8  UNL     1       7.040  61.592   0.650  1.00  0.00     0.227 C 
HETATM   30  O2  UNL     1       8.104  62.265   0.908  1.00  0.00    -0.273 OA
HETATM   31  N2  UNL     1       6.166  62.047  -0.377  1.00  0.00    -0.314 N 
HETATM   32  C9  UNL     1       4.937  61.500  -0.888  1.00  0.00     0.137 C 
HETATM   33  C12 UNL     1       6.400  63.262  -1.118  1.00  0.00     0.261 C 
HETATM   34  C11 UNL     1       4.579  62.465  -2.012  1.00  0.00     0.198 C 
HETATM   35  O4  UNL     1       5.838  62.979  -2.386  1.00  0.00    -0.361 OA
BRANCH  32  36
HETATM   36  C10 UNL     1       4.999  60.093  -1.388  1.00  0.00     0.191 C 
BRANCH  36  37
HETATM   37  O3  UNL     1       5.420  59.959  -2.699  1.00  0.00    -0.399 OA
ATOM     38  H3  UNL     1       5.524  59.063  -2.995  1.00  0.00     0.209 HD
ENDBRANCH  36  37
ENDBRANCH  32  36
BRANCH  33  39
HETATM   39  C13 UNL     1       7.798  63.730  -1.248  1.00  0.00     0.232 C 
HETATM   40  F1  UNL     1       8.254  63.700  -2.538  1.00  0.00    -0.244 F 
BRANCH  39  41
HETATM   41  C14 UNL     1       7.729  65.254  -0.908  1.00  0.00     0.156 C 
HETATM   42 CL1  UNL     1       8.816  65.549   0.455  1.00  0.00    -0.127 Cl
ENDBRANCH  39  41
ENDBRANCH  33  39
ENDBRANCH   6  29
TORSDOF 8
ENDMDL
MODEL 3
REMARK VINA RESULT: -7.746124438      0.103      1.180
REMARK  8 active torsions:
REMARK  status: ('A' for Active; 'I' for Inactive)
REMARK       I    between atoms: C1_2  and  N1_3 
REMARK    1  A    between atoms: C1_2  and  C16_26 
REMARK    2  A    between atoms: N1_3  and  C2_5 
REMARK    3  A    between atoms: C7_10  and  C8_11 
REMARK       I    between atoms: C8_11  and  N2_13 
REMARK    4  A    between atoms: C9_14  and  C10_15 
REMARK    5  A    between atoms: C10_15  and  O3_16 
REMARK    6  A    between atoms: C12_20  and  C13_21 
REMARK    7  A    between atoms: C13_21  and  C14_23 
REMARK    8  A    between atoms: N4_30  and  C18_31 
ROOT
HETATM    1  C2  UNL     1       6.015  60.529   3.681  1.00  0.00     0.093 C 
HETATM    2  C3  UNL     1       7.206  59.543   3.575  1.00  0.00     0.009 C 
HETATM    3  C4  UNL     1       6.367  58.365   3.149  1.00  0.00     0.007 C 
HETATM    4  C5  UNL     1       5.379  58.773   2.356  1.00  0.00     0.008 C 
HETATM    5  C6  UNL     1       5.583  60.286   2.253  1.00  0.00     0.022 C 
HETATM    6  C7  UNL     1       6.809  60.405   1.432  1.00  0.00     0.084 C 
HETATM    7  C15 UNL     1       7.946  60.148   2.445  1.00  0.00     0.021 C 
ENDROOT
BRANCH   1   8
HETATM    8  N1  UNL     1       6.382  61.837   4.040  1.00  0.00    -0.350 N 
HETATM    9  C1  UNL     1       5.350  62.845   3.922  1.00  0.00     0.271 C 
HETATM   10  O1  UNL     1       4.185  62.570   3.516  1.00  0.00    -0.266 OA
ATOM     11  H1  UNL     1       7.322  62.062   4.366  1.00  0.00     0.163 HD
BRANCH   9  12
HETATM   12  C16 UNL     1       5.603  64.253   4.269  1.00  0.00     0.134 A 
HETATM   13  C17 UNL     1       5.121  64.943   5.356  1.00  0.00     0.145 A 
HETATM   14  N3  UNL     1       5.610  66.195   5.252  1.00  0.00    -0.292 N 
HETATM   15  N4  UNL     1       6.354  66.285   4.167  1.00  0.00    -0.224 N 
ATOM     16  H3  UNL     1       5.432  66.955   5.910  1.00  0.00     0.187 HD
HETATM   17  N5  UNL     1       6.353  65.110   3.568  1.00  0.00    -0.277 N 
ATOM     18  H5  UNL     1       6.847  64.889   2.704  1.00  0.00     0.189 HD
BRANCH  15  19
HETATM   19  C18 UNL     1       7.029  67.505   3.759  1.00  0.00     0.071 C 
HETATM   20  C19 UNL     1       6.715  67.854   2.320  1.00  0.00     0.039 C 
HETATM   21  C20 UNL     1       7.444  69.125   1.985  1.00  0.00    -0.011 C 
HETATM   22  C21 UNL     1       7.025  70.280   2.876  1.00  0.00     0.009 C 
HETATM   23  C25 UNL     1       8.941  68.986   2.106  1.00  0.00     0.009 C 
HETATM   24  C22 UNL     1       7.313  69.910   4.311  1.00  0.00    -0.011 C 
HETATM   25  C23 UNL     1       8.806  69.733   4.433  1.00  0.00     0.009 C 
HETATM   26  C27 UNL     1       6.565  68.635   4.629  1.00  0.00     0.039 C 
HETATM   27  C24 UNL     1       9.234  68.587   3.555  1.00  0.00    -0.011 C 
HETATM   28  C26 UNL     1       8.530  67.310   3.887  1.00  0.00     0.039 C 
ENDBRANCH  15  19
ENDBRANCH   9  12
ENDBRANCH   1   8
BRANCH   6  29
HETATM   29  C8  UNL     1       7.033  61.590   0.642  1.00  0.00     0.227 C 
HETATM   30  O2  UNL     1       8.100  62.261   0.893  1.00  0.00    -0.273 OA
HETATM   31  N2  UNL     1       6.152  62.046  -0.378  1.00  0.00    -0.314 N 
HETATM   32  C9  UNL     1       4.918  61.500  -0.880  1.00  0.00     0.137 C 
HETATM   33  C12 UNL     1       6.382  63.259  -1.122  1.00  0.00     0.261 C 
HETATM   34  C11 UNL     1       4.553  62.465  -2.002  1.00  0.00     0.198 C 
HETATM   35  O4  UNL     1       5.811  62.977  -2.385  1.00  0.00    -0.361 OA
BRANCH  32  36
HETATM   36  C10 UNL     1       4.975  60.093  -1.379  1.00  0.00     0.191 C 
BRANCH  36  37
HETATM   37  O3  UNL     1       5.421  59.955  -2.682  1.00  0.00    -0.399 OA
ATOM     38  H3  UNL     1       5.752  59.092  -2.901  1.00  0.00     0.209 HD
ENDBRANCH  36  37
ENDBRANCH  32  36
BRANCH  33  39
HETATM   39  C13 UNL     1       7.780  63.726  -1.262  1.00  0.00     0.232 C 
HETATM   40  F1  UNL     1       8.240  63.655  -2.549  1.00  0.00    -0.244 F 
BRANCH  39  41
HETATM   41  C14 UNL     1       7.708  65.260  -0.971  1.00  0.00     0.156 C 
HETATM   42 CL1  UNL     1       8.708  65.583   0.450  1.00  0.00    -0.127 Cl
ENDBRANCH  39  41
ENDBRANCH  33  39
ENDBRANCH   6  29
TORSDOF 8
ENDMDL
MODEL 4
REMARK VINA RESULT: -7.611128147      2.280      2.804
REMARK  8 active torsions:
REMARK  status: ('A' for Active; 'I' for Inactive)
REMARK       I    between atoms: C1_2  and  N1_3 
REMARK    1  A    between atoms: C1_2  and  C16_26 
REMARK    2  A    between atoms: N1_3  and  C2_5 
REMARK    3  A    between atoms: C7_10  and  C8_11 
REMARK       I    between atoms: C8_11  and  N2_13 
REMARK    4  A    between atoms: C9_14  and  C10_15 
REMARK    5  A    between atoms: C10_15  and  O3_16 
REMARK    6  A    between atoms: C12_20  and  C13_21 
REMARK    7  A    between atoms: C13_21  and  C14_23 
REMARK    8  A    between atoms: N4_30  and  C18_31 
ROOT
HETATM    1  C2  UNL     1       6.376  60.458   3.700  1.00  0.00     0.093 C 
HETATM    2  C3  UNL     1       7.684  60.003   3.007  1.00  0.00     0.009 C 
HETATM    3  C4  UNL     1       7.535  58.550   3.379  1.00  0.00     0.007 C 
HETATM    4  C5  UNL     1       6.251  58.200   3.341  1.00  0.00     0.008 C 
HETATM    5  C6  UNL     1       5.527  59.480   2.919  1.00  0.00     0.022 C 
HETATM    6  C7  UNL     1       5.924  59.640   1.503  1.00  0.00     0.084 C 
HETATM    7  C15 UNL     1       7.334  60.263   1.592  1.00  0.00     0.021 C 
ENDROOT
BRANCH   1   8
HETATM    8  N1  UNL     1       6.095  61.828   3.557  1.00  0.00    -0.350 N 
HETATM    9  C1  UNL     1       6.378  62.662   4.705  1.00  0.00     0.271 C 
HETATM   10  O1  UNL     1       6.847  62.189   5.780  1.00  0.00    -0.266 OA
ATOM     11  H1  UNL     1       5.714  62.212   2.692  1.00  0.00     0.163 HD
BRANCH   9  12
HETATM   12  C16 UNL     1       6.132  64.113   4.685  1.00  0.00     0.134 A 
HETATM   13  C17 UNL     1       5.042  64.781   5.189  1.00  0.00     0.145 A 
HETATM   14  N3  UNL     1       5.253  66.088   4.935  1.00  0.00    -0.292 N 
HETATM   15  N4  UNL     1       6.406  66.231   4.310  1.00  0.00    -0.224 N 
ATOM     16  H3  UNL     1       4.620  66.848   5.186  1.00  0.00     0.187 HD
HETATM   17  N5  UNL     1       6.942  65.037   4.156  1.00  0.00    -0.277 N 
ATOM     18  H5  UNL     1       7.836  64.846   3.703  1.00  0.00     0.189 HD
BRANCH  15  19
HETATM   19  C18 UNL     1       6.932  67.518   3.888  1.00  0.00     0.071 C 
HETATM   20  C19 UNL     1       6.448  68.633   4.788  1.00  0.00     0.039 C 
HETATM   21  C20 UNL     1       7.039  69.921   4.286  1.00  0.00    -0.011 C 
HETATM   22  C21 UNL     1       8.558  69.899   4.300  1.00  0.00     0.009 C 
HETATM   23  C25 UNL     1       6.609  70.250   2.878  1.00  0.00     0.009 C 
HETATM   24  C22 UNL     1       9.030  68.764   3.423  1.00  0.00    -0.011 C 
HETATM   25  C23 UNL     1       8.571  69.065   2.018  1.00  0.00     0.009 C 
HETATM   26  C27 UNL     1       8.430  67.479   3.949  1.00  0.00     0.039 C 
HETATM   27  C24 UNL     1       7.066  69.087   1.992  1.00  0.00    -0.011 C 
HETATM   28  C26 UNL     1       6.460  67.807   2.473  1.00  0.00     0.039 C 
ENDBRANCH  15  19
ENDBRANCH   9  12
ENDBRANCH   1   8
BRANCH   6  29
HETATM   29  C8  UNL     1       5.065  60.353   0.591  1.00  0.00     0.227 C 
HETATM   30  O2  UNL     1       5.608  61.277  -0.116  1.00  0.00    -0.273 OA
HETATM   31  N2  UNL     1       3.674  60.093   0.439  1.00  0.00    -0.314 N 
HETATM   32  C9  UNL     1       2.815  59.126   1.071  1.00  0.00     0.137 C 
HETATM   33  C12 UNL     1       2.831  60.853  -0.450  1.00  0.00     0.261 C 
HETATM   34  C11 UNL     1       1.473  59.370   0.391  1.00  0.00     0.198 C 
HETATM   35  O4  UNL     1       1.855  59.911  -0.855  1.00  0.00    -0.361 OA
BRANCH  32  36
HETATM   36  C10 UNL     1       3.227  57.696   0.945  1.00  0.00     0.191 C 
BRANCH  36  37
HETATM   37  O3  UNL     1       2.760  57.052  -0.187  1.00  0.00    -0.399 OA
ATOM     38  H3  UNL     1       2.136  56.355  -0.022  1.00  0.00     0.209 HD
ENDBRANCH  36  37
ENDBRANCH  32  36
BRANCH  33  39
HETATM   39  C13 UNL     1       3.469  61.495  -1.622  1.00  0.00     0.232 C 
HETATM   40  F1  UNL     1       3.082  60.940  -2.811  1.00  0.00    -0.244 F 
BRANCH  39  41
HETATM   41  C14 UNL     1       2.855  62.932  -1.659  1.00  0.00     0.156 C 
HETATM   42 CL1  UNL     1       2.914  63.581  -0.016  1.00  0.00    -0.127 Cl
ENDBRANCH  39  41
ENDBRANCH  33  39
ENDBRANCH   6  29
TORSDOF 8
ENDMDL
MODEL 5
REMARK VINA RESULT: -7.518246394      3.069      4.132
REMARK  8 active torsions:
REMARK  status: ('A' for Active; 'I' for Inactive)
REMARK       I    between atoms: C1_2  and  N1_3 
REMARK    1  A    between atoms: C1_2  and  C16_26 
REMARK    2  A    between atoms: N1_3  and  C2_5 
REMARK    3  A    between atoms: C7_10  and  C8_11 
REMARK       I    between atoms: C8_11  and  N2_13 
REMARK    4  A    between atoms: C9_14  and  C10_15 
REMARK    5  A    between atoms: C10_15  and  O3_16 
REMARK    6  A    between atoms: C12_20  and  C13_21 
REMARK    7  A    between atoms: C13_21  and  C14_23 
REMARK    8  A    between atoms: N4_30  and  C18_31 
ROOT
HETATM    1  C2  UNL     1       7.470  61.381   3.227  1.00  0.00     0.093 C 
HETATM    2  C3  UNL     1       7.738  60.384   2.072  1.00  0.00     0.009 C 
HETATM    3  C4  UNL     1       7.771  59.162   2.955  1.00  0.00     0.007 C 
HETATM    4  C5  UNL     1       6.879  59.285   3.935  1.00  0.00     0.008 C 
HETATM    5  C6  UNL     1       6.228  60.646   3.680  1.00  0.00     0.022 C 
HETATM    6  C7  UNL     1       5.427  60.412   2.459  1.00  0.00     0.084 C 
HETATM    7  C15 UNL     1       6.468  60.505   1.322  1.00  0.00     0.021 C 
ENDROOT
BRANCH   1   8
HETATM    8  N1  UNL     1       7.325  62.715   2.812  1.00  0.00    -0.350 N 
HETATM    9  C1  UNL     1       8.534  63.511   2.784  1.00  0.00     0.271 C 
HETATM   10  O1  UNL     1       9.658  63.037   3.115  1.00  0.00    -0.266 OA
ATOM     11  H1  UNL     1       6.419  63.102   2.546  1.00  0.00     0.163 HD
BRANCH   9  12
HETATM   12  C16 UNL     1       8.520  64.922   2.365  1.00  0.00     0.134 A 
HETATM   13  C17 UNL     1       9.233  65.493   1.338  1.00  0.00     0.145 A 
HETATM   14  N3  UNL     1       8.906  66.801   1.337  1.00  0.00    -0.292 N 
HETATM   15  N4  UNL     1       8.041  67.036   2.305  1.00  0.00    -0.224 N 
ATOM     16  H3  UNL     1       9.271  67.501   0.690  1.00  0.00     0.187 HD
HETATM   17  N5  UNL     1       7.804  65.900   2.930  1.00  0.00    -0.277 N 
ATOM     18  H5  UNL     1       7.174  65.784   3.723  1.00  0.00     0.189 HD
BRANCH  15  19
HETATM   19  C18 UNL     1       7.487  68.350   2.580  1.00  0.00     0.071 C 
HETATM   20  C19 UNL     1       8.124  69.410   1.709  1.00  0.00     0.039 C 
HETATM   21  C20 UNL     1       7.494  70.731   2.054  1.00  0.00    -0.011 C 
HETATM   22  C21 UNL     1       5.994  70.731   1.813  1.00  0.00     0.009 C 
HETATM   23  C25 UNL     1       7.717  71.125   3.492  1.00  0.00     0.009 C 
HETATM   24  C22 UNL     1       5.372  69.649   2.664  1.00  0.00    -0.011 C 
HETATM   25  C23 UNL     1       5.623  70.016   4.106  1.00  0.00     0.009 C 
HETATM   26  C27 UNL     1       6.015  68.330   2.297  1.00  0.00     0.039 C 
HETATM   27  C24 UNL     1       7.107  70.017   4.356  1.00  0.00    -0.011 C 
HETATM   28  C26 UNL     1       7.749  68.705   4.034  1.00  0.00     0.039 C 
ENDBRANCH  15  19
ENDBRANCH   9  12
ENDBRANCH   1   8
BRANCH   6  29
HETATM   29  C8  UNL     1       4.258  61.216   2.200  1.00  0.00     0.227 C 
HETATM   30  O2  UNL     1       4.365  62.479   2.406  1.00  0.00    -0.273 OA
HETATM   31  N2  UNL     1       3.017  60.692   1.740  1.00  0.00    -0.314 N 
HETATM   32  C9  UNL     1       2.617  59.349   1.412  1.00  0.00     0.137 C 
HETATM   33  C12 UNL     1       1.853  61.516   1.531  1.00  0.00     0.261 C 
HETATM   34  C11 UNL     1       1.182  59.530   0.933  1.00  0.00     0.198 C 
HETATM   35  O4  UNL     1       1.181  60.863   0.471  1.00  0.00    -0.361 OA
BRANCH  32  36
HETATM   36  C10 UNL     1       3.442  58.648   0.381  1.00  0.00     0.191 C 
BRANCH  36  37
HETATM   37  O3  UNL     1       3.947  57.422   0.775  1.00  0.00    -0.399 OA
ATOM     38  H3  UNL     1       4.104  56.808   0.068  1.00  0.00     0.209 HD
ENDBRANCH  36  37
ENDBRANCH  32  36
BRANCH  33  39
HETATM   39  C13 UNL     1       2.069  62.948   1.223  1.00  0.00     0.232 C 
HETATM   40  F1  UNL     1       1.667  63.289  -0.039  1.00  0.00    -0.244 F 
BRANCH  39  41
HETATM   41  C14 UNL     1       1.065  63.700   2.156  1.00  0.00     0.156 C 
HETATM   42 CL1  UNL     1       1.222  63.013   3.777  1.00  0.00    -0.127 Cl
ENDBRANCH  39  41
ENDBRANCH  33  39
ENDBRANCH   6  29
TORSDOF 8
ENDMDL
