MODEL 1
REMARK VINA RESULT: -7.963001848      0.000      0.000
REMARK  7 active torsions:
REMARK  status: ('A' for Active; 'I' for Inactive)
REMARK    1  A    between atoms: C4_5  and  C5_7 
REMARK    2  A    between atoms: C5_7  and  N2_8 
REMARK       I    between atoms: N2_8  and  C6_10 
REMARK    3  A    between atoms: C6_10  and  C7_12 
REMARK    4  A    between atoms: N3_15  and  C10_16 
REMARK    5  A    between atoms: C10_16  and  C11_17 
REMARK    6  A    between atoms: N4_19  and  C13_20 
REMARK    7  A    between atoms: C16_26  and  C17_27 
ROOT
HETATM    1  C7  UNL     1       8.634  63.184   0.394  1.00  0.00     0.081 C 
HETATM    2  C8  UNL     1       9.649  62.361   1.118  1.00  0.00     0.033 C 
HETATM    3  C9  UNL     1      10.998  63.086   1.084  1.00  0.00     0.118 C 
HETATM    4  N3  UNL     1      10.752  64.447   0.742  1.00  0.00    -0.407 N 
HETATM    5  C19 UNL     1      10.383  64.656  -0.619  1.00  0.00     0.118 C 
HETATM    6  C20 UNL     1       9.144  63.800  -0.872  1.00  0.00     0.033 C 
ENDROOT
BRANCH   4   7
HETATM    7  C10 UNL     1      11.597  65.419   1.334  1.00  0.00     0.177 C 
BRANCH   7   8
HETATM    8  C11 UNL     1      11.020  66.119   2.512  1.00  0.00     0.061 A 
HETATM    9  C12 UNL     1      10.192  67.217   2.548  1.00  0.00     0.141 A 
HETATM   10  N4  UNL     1       9.907  67.519   3.827  1.00  0.00    -0.272 N 
HETATM   11  N6  UNL     1      10.544  66.629   4.563  1.00  0.00    -0.240 N 
HETATM   12  N7  UNL     1      11.217  65.783   3.800  1.00  0.00    -0.287 N 
ATOM     13  H6  UNL     1      10.521  66.597   5.582  1.00  0.00     0.208 HD
ATOM     14  H7  UNL     1      11.788  65.006   4.133  1.00  0.00     0.188 HD
BRANCH  10  15
HETATM   15  C13 UNL     1       9.051  68.618   4.270  1.00  0.00     0.184 C 
HETATM   16  S1  UNL     1       9.563  70.132   3.369  1.00  0.00    -0.097 SA
HETATM   17  C14 UNL     1       8.371  70.802   2.473  1.00  0.00     0.131 C 
HETATM   18  N5  UNL     1       7.124  70.131   2.517  1.00  0.00    -0.393 N 
HETATM   19  C15 UNL     1       7.085  68.719   2.721  1.00  0.00     0.131 C 
ATOM     20  H5  UNL     1       6.257  70.655   2.403  1.00  0.00     0.159 HD
HETATM   21  C16 UNL     1       7.590  68.285   4.067  1.00  0.00     0.061 C 
BRANCH  21  22
HETATM   22  C17 UNL     1       7.365  66.823   4.201  1.00  0.00    -0.010 C 
HETATM   23  C18 UNL     1       6.644  66.082   3.377  1.00  0.00     0.052 C 
HETATM   24 BR1  UNL     1       6.400  64.209   3.617  1.00  0.00    -0.064 Br
ENDBRANCH  21  22
ENDBRANCH  10  15
ENDBRANCH   7   8
ENDBRANCH   4   7
BRANCH   1  25
HETATM   25  C6  UNL     1       7.482  62.278   0.043  1.00  0.00     0.222 C 
HETATM   26  N2  UNL     1       6.941  61.465   1.028  1.00  0.00    -0.358 N 
ATOM     27  H2  UNL     1       7.354  61.536   1.958  1.00  0.00     0.162 HD
HETATM   28  O1  UNL     1       7.086  62.318  -1.127  1.00  0.00    -0.273 OA
BRANCH  26  29
HETATM   29  C5  UNL     1       5.870  60.544   0.877  1.00  0.00     0.166 C 
BRANCH  29  30
HETATM   30  C4  UNL     1       5.672  59.662   2.061  1.00  0.00     0.122 C 
HETATM   31  C3  UNL     1       7.033  59.482   2.777  1.00  0.00     0.075 C 
HETATM   32  C2  UNL     1       6.810  58.618   3.986  1.00  0.00     0.275 C 
HETATM   33  N1  UNL     1       6.207  57.334   3.616  1.00  0.00     0.084 N 
HETATM   34  C1  UNL     1       7.124  56.273   4.058  1.00  0.00     0.309 C 
HETATM   35  C22 UNL     1       6.118  57.212   2.173  1.00  0.00     0.275 C 
HETATM   36  C21 UNL     1       5.274  58.286   1.552  1.00  0.00     0.075 C 
HETATM   37  F1  UNL     1       4.836  60.133   3.008  1.00  0.00    -0.241 F 
ENDBRANCH  29  30
ENDBRANCH  26  29
ENDBRANCH   1  25
TORSDOF 7
ENDMDL
MODEL 2
REMARK VINA RESULT: -7.528742443      4.566      9.581
REMARK  7 active torsions:
REMARK  status: ('A' for Active; 'I' for Inactive)
REMARK    1  A    between atoms: C4_5  and  C5_7 
REMARK    2  A    between atoms: C5_7  and  N2_8 
REMARK       I    between atoms: N2_8  and  C6_10 
REMARK    3  A    between atoms: C6_10  and  C7_12 
REMARK    4  A    between atoms: N3_15  and  C10_16 
REMARK    5  A    between atoms: C10_16  and  C11_17 
REMARK    6  A    between atoms: N4_19  and  C13_20 
REMARK    7  A    between atoms: C16_26  and  C17_27 
ROOT
HETATM    1  C7  UNL     1       7.122  62.177   2.518  1.00  0.00     0.081 C 
HETATM    2  C8  UNL     1       8.200  61.352   1.895  1.00  0.00     0.033 C 
HETATM    3  C9  UNL     1       8.149  59.938   2.481  1.00  0.00     0.118 C 
HETATM    4  N3  UNL     1       6.877  59.769   3.101  1.00  0.00    -0.407 N 
HETATM    5  C19 UNL     1       6.712  60.492   4.318  1.00  0.00     0.118 C 
HETATM    6  C20 UNL     1       6.966  61.962   3.991  1.00  0.00     0.033 C 
ENDROOT
BRANCH   4   7
HETATM    7  C10 UNL     1       6.302  58.475   3.041  1.00  0.00     0.177 C 
BRANCH   7   8
HETATM    8  C11 UNL     1       5.186  58.328   2.070  1.00  0.00     0.061 A 
HETATM    9  C12 UNL     1       4.226  59.245   1.705  1.00  0.00     0.141 A 
HETATM   10  N4  UNL     1       3.408  58.696   0.791  1.00  0.00    -0.272 N 
HETATM   11  N6  UNL     1       3.851  57.469   0.596  1.00  0.00    -0.240 N 
HETATM   12  N7  UNL     1       4.911  57.226   1.348  1.00  0.00    -0.287 N 
ATOM     13  H6  UNL     1       3.433  56.799  -0.050  1.00  0.00     0.208 HD
ATOM     14  H7  UNL     1       5.432  56.349   1.377  1.00  0.00     0.188 HD
BRANCH  10  15
HETATM   15  C13 UNL     1       2.271  59.363   0.160  1.00  0.00     0.184 C 
HETATM   16  S1  UNL     1       2.673  59.611  -1.612  1.00  0.00    -0.097 SA
HETATM   17  C14 UNL     1       1.623  58.890  -2.636  1.00  0.00     0.131 C 
HETATM   18  N5  UNL     1       0.560  58.183  -2.021  1.00  0.00    -0.393 N 
HETATM   19  C15 UNL     1       0.753  57.585  -0.739  1.00  0.00     0.131 C 
ATOM     20  H5  UNL     1      -0.341  58.102  -2.492  1.00  0.00     0.159 HD
HETATM   21  C16 UNL     1       0.997  58.574   0.363  1.00  0.00     0.061 C 
BRANCH  21  22
HETATM   22  C17 UNL     1       1.041  57.837   1.652  1.00  0.00    -0.010 C 
HETATM   23  C18 UNL     1       0.543  56.629   1.858  1.00  0.00     0.052 C 
HETATM   24 BR1  UNL     1       0.636  55.747   3.543  1.00  0.00    -0.064 Br
ENDBRANCH  21  22
ENDBRANCH  10  15
ENDBRANCH   7   8
ENDBRANCH   4   7
BRANCH   1  25
HETATM   25  C6  UNL     1       7.472  63.626   2.290  1.00  0.00     0.222 C 
HETATM   26  N2  UNL     1       8.598  64.152   2.907  1.00  0.00    -0.358 N 
ATOM     27  H2  UNL     1       9.145  63.512   3.484  1.00  0.00     0.162 HD
HETATM   28  O1  UNL     1       6.715  64.267   1.552  1.00  0.00    -0.273 OA
BRANCH  26  29
HETATM   29  C5  UNL     1       9.069  65.488   2.819  1.00  0.00     0.166 C 
BRANCH  29  30
HETATM   30  C4  UNL     1      10.509  65.589   2.453  1.00  0.00     0.122 C 
HETATM   31  C3  UNL     1      11.124  64.168   2.468  1.00  0.00     0.075 C 
HETATM   32  C2  UNL     1      12.567  64.282   2.065  1.00  0.00     0.275 C 
HETATM   33  N1  UNL     1      13.291  65.205   2.943  1.00  0.00     0.084 N 
HETATM   34  C1  UNL     1      14.388  64.452   3.567  1.00  0.00     0.309 C 
HETATM   35  C22 UNL     1      12.437  65.645   4.031  1.00  0.00     0.275 C 
HETATM   36  C21 UNL     1      11.213  66.369   3.552  1.00  0.00     0.075 C 
HETATM   37  F1  UNL     1      10.767  66.070   1.220  1.00  0.00    -0.241 F 
ENDBRANCH  29  30
ENDBRANCH  26  29
ENDBRANCH   1  25
TORSDOF 7
ENDMDL
MODEL 3
REMARK VINA RESULT: -7.505585758      0.906      1.208
REMARK  7 active torsions:
REMARK  status: ('A' for Active; 'I' for Inactive)
REMARK    1  A    between atoms: C4_5  and  C5_7 
REMARK    2  A    between atoms: C5_7  and  N2_8 
REMARK       I    between atoms: N2_8  and  C6_10 
REMARK    3  A    between atoms: C6_10  and  C7_12 
REMARK    4  A    between atoms: N3_15  and  C10_16 
REMARK    5  A    between atoms: C10_16  and  C11_17 
REMARK    6  A    between atoms: N4_19  and  C13_20 
REMARK    7  A    between atoms: C16_26  and  C17_27 
ROOT
HETATM    1  C7  UNL     1       8.248  63.066   0.696  1.00  0.00     0.081 C 
HETATM    2  C8  UNL     1       9.306  62.181   1.271  1.00  0.00     0.033 C 
HETATM    3  C9  UNL     1      10.671  62.856   1.099  1.00  0.00     0.118 C 
HETATM    4  N3  UNL     1      10.442  64.236   0.826  1.00  0.00    -0.407 N 
HETATM    5  C19 UNL     1       9.926  64.503  -0.475  1.00  0.00     0.118 C 
HETATM    6  C20 UNL     1       8.631  63.703  -0.603  1.00  0.00     0.033 C 
ENDROOT
BRANCH   4   7
HETATM    7  C10 UNL     1      11.390  65.155   1.341  1.00  0.00     0.177 C 
BRANCH   7   8
HETATM    8  C11 UNL     1      10.905  65.991   2.471  1.00  0.00     0.061 A 
HETATM    9  C12 UNL     1      10.234  67.193   2.435  1.00  0.00     0.141 A 
HETATM   10  N4  UNL     1       9.982  67.600   3.691  1.00  0.00    -0.272 N 
HETATM   11  N6  UNL     1      10.486  66.674   4.483  1.00  0.00    -0.240 N 
HETATM   12  N7  UNL     1      11.043  65.704   3.778  1.00  0.00    -0.287 N 
ATOM     13  H6  UNL     1      10.450  66.702   5.503  1.00  0.00     0.208 HD
ATOM     14  H7  UNL     1      11.500  64.876   4.161  1.00  0.00     0.188 HD
BRANCH  10  15
HETATM   15  C13 UNL     1       9.281  68.829   4.061  1.00  0.00     0.184 C 
HETATM   16  S1  UNL     1       9.895  70.178   2.980  1.00  0.00    -0.097 SA
HETATM   17  C14 UNL     1       8.729  70.889   2.083  1.00  0.00     0.131 C 
HETATM   18  N5  UNL     1       7.422  70.373   2.263  1.00  0.00    -0.393 N 
HETATM   19  C15 UNL     1       7.242  69.002   2.616  1.00  0.00     0.131 C 
ATOM     20  H5  UNL     1       6.611  70.979   2.140  1.00  0.00     0.159 HD
HETATM   21  C16 UNL     1       7.783  68.647   3.971  1.00  0.00     0.061 C 
BRANCH  21  22
HETATM   22  C17 UNL     1       7.410  67.241   4.270  1.00  0.00    -0.010 C 
HETATM   23  C18 UNL     1       6.592  66.497   3.544  1.00  0.00     0.052 C 
HETATM   24 BR1  UNL     1       6.159  64.697   3.993  1.00  0.00    -0.064 Br
ENDBRANCH  21  22
ENDBRANCH  10  15
ENDBRANCH   7   8
ENDBRANCH   4   7
BRANCH   1  25
HETATM   25  C6  UNL     1       7.027  62.215   0.459  1.00  0.00     0.222 C 
HETATM   26  N2  UNL     1       6.261  61.819   1.545  1.00  0.00    -0.358 N 
ATOM     27  H2  UNL     1       6.567  62.142   2.463  1.00  0.00     0.162 HD
HETATM   28  O1  UNL     1       6.781  61.918  -0.716  1.00  0.00    -0.273 OA
BRANCH  26  29
HETATM   29  C5  UNL     1       5.094  61.010   1.512  1.00  0.00     0.166 C 
BRANCH  29  30
HETATM   30  C4  UNL     1       5.383  59.554   1.380  1.00  0.00     0.122 C 
HETATM   31  C3  UNL     1       4.188  58.758   1.960  1.00  0.00     0.075 C 
HETATM   32  C2  UNL     1       4.481  57.294   1.789  1.00  0.00     0.275 C 
HETATM   33  N1  UNL     1       5.748  56.928   2.426  1.00  0.00     0.084 N 
HETATM   34  C1  UNL     1       5.455  55.901   3.436  1.00  0.00     0.309 C 
HETATM   35  C22 UNL     1       6.296  58.059   3.153  1.00  0.00     0.275 C 
HETATM   36  C21 UNL     1       6.577  59.236   2.266  1.00  0.00     0.075 C 
HETATM   37  F1  UNL     1       5.529  59.099   0.119  1.00  0.00    -0.241 F 
ENDBRANCH  29  30
ENDBRANCH  26  29
ENDBRANCH   1  25
TORSDOF 7
ENDMDL
MODEL 4
REMARK VINA RESULT: -7.407128773      4.326      9.115
REMARK  7 active torsions:
REMARK  status: ('A' for Active; 'I' for Inactive)
REMARK    1  A    between atoms: C4_5  and  C5_7 
REMARK    2  A    between atoms: C5_7  and  N2_8 
REMARK       I    between atoms: N2_8  and  C6_10 
REMARK    3  A    between atoms: C6_10  and  C7_12 
REMARK    4  A    between atoms: N3_15  and  C10_16 
REMARK    5  A    between atoms: C10_16  and  C11_17 
REMARK    6  A    between atoms: N4_19  and  C13_20 
REMARK    7  A    between atoms: C16_26  and  C17_27 
ROOT
HETATM    1  C7  UNL     1       7.128  62.169   2.542  1.00  0.00     0.081 C 
HETATM    2  C8  UNL     1       8.262  61.442   1.896  1.00  0.00     0.033 C 
HETATM    3  C9  UNL     1       8.247  59.981   2.357  1.00  0.00     0.118 C 
HETATM    4  N3  UNL     1       6.960  59.712   2.908  1.00  0.00    -0.407 N 
HETATM    5  C19 UNL     1       6.722  60.319   4.175  1.00  0.00     0.118 C 
HETATM    6  C20 UNL     1       6.928  61.822   3.985  1.00  0.00     0.033 C 
ENDROOT
BRANCH   4   7
HETATM    7  C10 UNL     1       6.441  58.407   2.715  1.00  0.00     0.177 C 
BRANCH   7   8
HETATM    8  C11 UNL     1       5.308  58.317   1.757  1.00  0.00     0.061 A 
HETATM    9  C12 UNL     1       4.876  59.244   0.835  1.00  0.00     0.141 A 
HETATM   10  N4  UNL     1       3.816  58.752   0.172  1.00  0.00    -0.272 N 
HETATM   11  N6  UNL     1       3.598  57.550   0.670  1.00  0.00    -0.240 N 
HETATM   12  N7  UNL     1       4.476  57.269   1.619  1.00  0.00    -0.287 N 
ATOM     13  H6  UNL     1       2.854  56.922   0.365  1.00  0.00     0.208 HD
ATOM     14  H7  UNL     1       4.515  56.402   2.156  1.00  0.00     0.188 HD
BRANCH  10  15
HETATM   15  C13 UNL     1       3.084  59.440  -0.890  1.00  0.00     0.184 C 
HETATM   16  S1  UNL     1       2.361  58.169  -1.996  1.00  0.00    -0.097 SA
HETATM   17  C14 UNL     1       0.732  58.239  -2.109  1.00  0.00     0.131 C 
HETATM   18  N5  UNL     1       0.112  59.260  -1.347  1.00  0.00    -0.393 N 
HETATM   19  C15 UNL     1       0.712  59.701  -0.130  1.00  0.00     0.131 C 
ATOM     20  H5  UNL     1      -0.760  59.679  -1.669  1.00  0.00     0.159 HD
HETATM   21  C16 UNL     1       2.042  60.373  -0.315  1.00  0.00     0.061 C 
BRANCH  21  22
HETATM   22  C17 UNL     1       2.485  60.903   1.000  1.00  0.00    -0.010 C 
HETATM   23  C18 UNL     1       2.722  62.175   1.270  1.00  0.00     0.052 C 
HETATM   24 BR1  UNL     1       3.291  62.780   2.983  1.00  0.00    -0.064 Br
ENDBRANCH  21  22
ENDBRANCH  10  15
ENDBRANCH   7   8
ENDBRANCH   4   7
BRANCH   1  25
HETATM   25  C6  UNL     1       7.428  63.644   2.453  1.00  0.00     0.222 C 
HETATM   26  N2  UNL     1       8.670  64.105   2.864  1.00  0.00    -0.358 N 
ATOM     27  H2  UNL     1       9.330  63.404   3.200  1.00  0.00     0.162 HD
HETATM   28  O1  UNL     1       6.526  64.364   2.010  1.00  0.00    -0.273 OA
BRANCH  26  29
HETATM   29  C5  UNL     1       9.118  65.453   2.866  1.00  0.00     0.166 C 
BRANCH  29  30
HETATM   30  C4  UNL     1      10.561  65.600   2.528  1.00  0.00     0.122 C 
HETATM   31  C3  UNL     1      11.199  64.191   2.457  1.00  0.00     0.075 C 
HETATM   32  C2  UNL     1      12.645  64.355   2.084  1.00  0.00     0.275 C 
HETATM   33  N1  UNL     1      13.341  65.228   3.033  1.00  0.00     0.084 N 
HETATM   34  C1  UNL     1      14.442  64.451   3.621  1.00  0.00     0.309 C 
HETATM   35  C22 UNL     1      12.466  65.580   4.135  1.00  0.00     0.275 C 
HETATM   36  C21 UNL     1      11.237  66.315   3.687  1.00  0.00     0.075 C 
HETATM   37  F1  UNL     1      10.828  66.167   1.334  1.00  0.00    -0.241 F 
ENDBRANCH  29  30
ENDBRANCH  26  29
ENDBRANCH   1  25
TORSDOF 7
ENDMDL
MODEL 5
REMARK VINA RESULT: -7.360920748      3.919      6.622
REMARK  7 active torsions:
REMARK  status: ('A' for Active; 'I' for Inactive)
REMARK    1  A    between atoms: C4_5  and  C5_7 
REMARK    2  A    between atoms: C5_7  and  N2_8 
REMARK       I    between atoms: N2_8  and  C6_10 
REMARK    3  A    between atoms: C6_10  and  C7_12 
REMARK    4  A    between atoms: N3_15  and  C10_16 
REMARK    5  A    between atoms: C10_16  and  C11_17 
REMARK    6  A    between atoms: N4_19  and  C13_20 
REMARK    7  A    between atoms: C16_26  and  C17_27 
ROOT
HETATM    1  C7  UNL     1       6.353  57.783   2.901  1.00  0.00     0.081 C 
HETATM    2  C8  UNL     1       5.024  57.918   2.232  1.00  0.00     0.033 C 
HETATM    3  C9  UNL     1       4.792  59.389   1.871  1.00  0.00     0.118 C 
HETATM    4  N3  UNL     1       6.052  60.053   1.921  1.00  0.00    -0.407 N 
HETATM    5  C19 UNL     1       6.563  60.252   3.236  1.00  0.00     0.118 C 
HETATM    6  C20 UNL     1       6.650  58.871   3.885  1.00  0.00     0.033 C 
ENDROOT
BRANCH   4   7
HETATM    7  C10 UNL     1       6.263  61.097   0.986  1.00  0.00     0.177 C 
BRANCH   7   8
HETATM    8  C11 UNL     1       7.564  61.805   1.119  1.00  0.00     0.061 A 
HETATM    9  C12 UNL     1       7.815  63.158   1.162  1.00  0.00     0.141 A 
HETATM   10  N4  UNL     1       9.136  63.363   1.292  1.00  0.00    -0.272 N 
HETATM   11  N6  UNL     1       9.689  62.166   1.329  1.00  0.00    -0.240 N 
HETATM   12  N7  UNL     1       8.771  61.220   1.226  1.00  0.00    -0.287 N 
ATOM     13  H6  UNL     1      10.690  61.993   1.424  1.00  0.00     0.208 HD
ATOM     14  H7  UNL     1       8.948  60.215   1.228  1.00  0.00     0.188 HD
BRANCH  10  15
HETATM   15  C13 UNL     1       9.789  64.668   1.380  1.00  0.00     0.184 C 
HETATM   16  S1  UNL     1      10.799  64.694   2.911  1.00  0.00    -0.097 SA
HETATM   17  C14 UNL     1      12.390  64.958   2.648  1.00  0.00     0.131 C 
HETATM   18  N5  UNL     1      12.765  65.129   1.293  1.00  0.00    -0.393 N 
HETATM   19  C15 UNL     1      12.023  64.475   0.263  1.00  0.00     0.131 C 
ATOM     20  H5  UNL     1      13.562  65.718   1.053  1.00  0.00     0.159 HD
HETATM   21  C16 UNL     1      10.605  64.952   0.139  1.00  0.00     0.061 C 
BRANCH  21  22
HETATM   22  C17 UNL     1       9.995  64.299  -1.047  1.00  0.00    -0.010 C 
HETATM   23  C18 UNL     1      10.253  64.607  -2.307  1.00  0.00     0.052 C 
HETATM   24 BR1  UNL     1       9.427  63.723  -3.778  1.00  0.00    -0.064 Br
ENDBRANCH  21  22
ENDBRANCH  10  15
ENDBRANCH   7   8
ENDBRANCH   4   7
BRANCH   1  25
HETATM   25  C6  UNL     1       6.356  56.469   3.639  1.00  0.00     0.222 C 
HETATM   26  N2  UNL     1       5.259  55.628   3.523  1.00  0.00    -0.358 N 
ATOM     27  H2  UNL     1       4.500  55.947   2.921  1.00  0.00     0.162 HD
HETATM   28  O1  UNL     1       7.359  56.220   4.318  1.00  0.00    -0.273 OA
BRANCH  26  29
HETATM   29  C5  UNL     1       5.084  54.368   4.154  1.00  0.00     0.166 C 
BRANCH  29  30
HETATM   30  C4  UNL     1       3.686  53.857   4.085  1.00  0.00     0.122 C 
HETATM   31  C3  UNL     1       2.765  55.002   3.596  1.00  0.00     0.075 C 
HETATM   32  C2  UNL     1       1.366  54.462   3.501  1.00  0.00     0.275 C 
HETATM   33  N1  UNL     1       0.923  53.908   4.783  1.00  0.00     0.084 N 
HETATM   34  C1  UNL     1      -0.280  54.647   5.191  1.00  0.00     0.309 C 
HETATM   35  C22 UNL     1       1.914  54.156   5.813  1.00  0.00     0.275 C 
HETATM   36  C21 UNL     1       3.242  53.529   5.502  1.00  0.00     0.075 C 
HETATM   37  F1  UNL     1       3.475  52.844   3.221  1.00  0.00    -0.241 F 
ENDBRANCH  29  30
ENDBRANCH  26  29
ENDBRANCH   1  25
TORSDOF 7
ENDMDL
