MODEL 1
REMARK VINA RESULT: -9.506118752      0.000      0.000
REMARK  8 active torsions:
REMARK  status: ('A' for Active; 'I' for Inactive)
REMARK    1  A    between atoms: C3_4  and  O1_5 
REMARK    2  A    between atoms: O1_5  and  C4_6 
REMARK    3  A    between atoms: C4_6  and  C5_7 
REMARK    4  A    between atoms: C5_7  and  N2_8 
REMARK    5  A    between atoms: C7_10  and  O2_11 
REMARK    6  A    between atoms: C11_18  and  N4_21 
REMARK    7  A    between atoms: N5_26  and  C16_27 
REMARK    8  A    between atoms: C19_30  and  N6_31 
ROOT
HETATM    1  C1  UNL     1       8.200  66.626   2.922  1.00  0.00     0.152 C 
HETATM    2  N1  UNL     1       9.256  65.656   2.738  1.00  0.00    -0.351 N 
HETATM    3  C2  UNL     1      10.356  65.727   3.680  1.00  0.00     0.163 C 
HETATM    4  C3  UNL     1      11.615  65.833   2.831  1.00  0.00     0.211 C 
HETATM    5  C9  UNL     1      11.948  64.529   2.162  1.00  0.00     0.274 C 
HETATM    6  F1  UNL     1      13.194  64.126   2.692  1.00  0.00    -0.203 F 
HETATM    7  F2  UNL     1      12.176  64.642   0.806  1.00  0.00    -0.203 F 
HETATM    8  C10 UNL     1      11.021  63.404   2.406  1.00  0.00     0.139 C 
HETATM    9  C11 UNL     1       9.742  63.423   1.549  1.00  0.00     0.208 C 
HETATM   10  C12 UNL     1      10.157  63.174   0.140  1.00  0.00     0.101 C 
HETATM   11  N3  UNL     1      10.462  62.962  -0.970  1.00  0.00    -0.194 NA
HETATM   12  C27 UNL     1       9.105  64.753   1.658  1.00  0.00     0.263 C 
HETATM   13  O3  UNL     1       8.352  65.116   0.685  1.00  0.00    -0.269 OA
ENDROOT
BRANCH   9  14
HETATM   14  N4  UNL     1       8.915  62.411   2.031  1.00  0.00    -0.346 N 
HETATM   15  C13 UNL     1       7.920  61.748   1.746  1.00  0.00     0.118 A 
HETATM   16  C14 UNL     1       7.059  61.705   0.675  1.00  0.00     0.068 A 
HETATM   17  N7  UNL     1       7.462  60.763   2.604  1.00  0.00    -0.283 N 
HETATM   18  C15 UNL     1       6.114  60.720   0.888  1.00  0.00     0.114 A 
HETATM   19  N5  UNL     1       6.409  60.180   2.080  1.00  0.00    -0.297 N 
ATOM     20  H7  UNL     1       7.878  60.527   3.504  1.00  0.00     0.188 HD
ATOM     21  H4  UNL     1       9.256  62.115   2.945  1.00  0.00     0.163 HD
BRANCH  19  22
HETATM   22  C16 UNL     1       5.682  59.096   2.704  1.00  0.00     0.107 C 
HETATM   23  C17 UNL     1       5.234  58.145   1.602  1.00  0.00     0.029 C 
HETATM   24  C18 UNL     1       4.547  56.997   2.322  1.00  0.00     0.027 C 
HETATM   25  C19 UNL     1       5.666  56.179   2.937  1.00  0.00     0.079 C 
HETATM   26  C25 UNL     1       6.664  56.982   3.695  1.00  0.00     0.027 C 
HETATM   27  C26 UNL     1       6.385  58.435   3.834  1.00  0.00     0.029 C 
BRANCH  25  28
HETATM   28  N6  UNL     1       5.092  55.075   3.628  1.00  0.00    -0.408 N 
HETATM   29  C20 UNL     1       3.683  55.113   3.836  1.00  0.00     0.117 C 
HETATM   30  C21 UNL     1       3.296  53.756   4.439  1.00  0.00     0.019 C 
HETATM   31  C22 UNL     1       4.347  52.712   4.074  1.00  0.00     0.003 C 
HETATM   32  C23 UNL     1       5.692  53.046   4.711  1.00  0.00     0.019 C 
HETATM   33  C24 UNL     1       5.824  54.575   4.746  1.00  0.00     0.117 C 
ENDBRANCH  25  28
ENDBRANCH  19  22
ENDBRANCH   9  14
BRANCH   4  34
HETATM   34  O1  UNL     1      12.679  66.376   3.506  1.00  0.00    -0.376 OA
BRANCH  34  35
HETATM   35  C4  UNL     1      12.738  66.180   4.852  1.00  0.00     0.198 C 
BRANCH  35  36
HETATM   36  C5  UNL     1      14.076  65.855   5.422  1.00  0.00     0.298 C 
BRANCH  36  37
HETATM   37  N2  UNL     1      14.273  64.485   5.763  1.00  0.00     0.095 N 
HETATM   38  C6  UNL     1      14.586  64.189   7.140  1.00  0.00     0.305 A 
HETATM   39  C7  UNL     1      15.821  63.452   6.643  1.00  0.00     0.174 A 
HETATM   40  C8  UNL     1      15.362  63.765   5.211  1.00  0.00     0.305 A 
BRANCH  39  41
HETATM   41  O2  UNL     1      15.788  62.094   6.911  1.00  0.00    -0.392 OA
ATOM     42  H2  UNL     1      16.282  61.578   6.285  1.00  0.00     0.210 HD
ENDBRANCH  39  41
ENDBRANCH  36  37
ENDBRANCH  35  36
ENDBRANCH  34  35
ENDBRANCH   4  34
TORSDOF 8
ENDMDL
MODEL 2
REMARK VINA RESULT: -9.374970529      2.091      2.608
REMARK  8 active torsions:
REMARK  status: ('A' for Active; 'I' for Inactive)
REMARK    1  A    between atoms: C3_4  and  O1_5 
REMARK    2  A    between atoms: O1_5  and  C4_6 
REMARK    3  A    between atoms: C4_6  and  C5_7 
REMARK    4  A    between atoms: C5_7  and  N2_8 
REMARK    5  A    between atoms: C7_10  and  O2_11 
REMARK    6  A    between atoms: C11_18  and  N4_21 
REMARK    7  A    between atoms: N5_26  and  C16_27 
REMARK    8  A    between atoms: C19_30  and  N6_31 
ROOT
HETATM    1  C1  UNL     1       8.626  67.433   2.102  1.00  0.00     0.152 C 
HETATM    2  N1  UNL     1       9.420  66.225   2.058  1.00  0.00    -0.351 N 
HETATM    3  C2  UNL     1      10.296  65.999   3.191  1.00  0.00     0.163 C 
HETATM    4  C3  UNL     1      11.683  65.786   2.600  1.00  0.00     0.211 C 
HETATM    5  C9  UNL     1      11.802  64.449   1.926  1.00  0.00     0.274 C 
HETATM    6  F1  UNL     1      12.778  63.731   2.652  1.00  0.00    -0.203 F 
HETATM    7  F2  UNL     1      12.312  64.515   0.645  1.00  0.00    -0.203 F 
HETATM    8  C10 UNL     1      10.593  63.599   1.922  1.00  0.00     0.139 C 
HETATM    9  C11 UNL     1       9.553  63.957   0.844  1.00  0.00     0.208 C 
HETATM   10  C12 UNL     1      10.161  63.626  -0.476  1.00  0.00     0.101 C 
HETATM   11  N3  UNL     1      10.615  63.356  -1.520  1.00  0.00    -0.194 NA
HETATM   12  C27 UNL     1       9.262  65.405   0.914  1.00  0.00     0.263 C 
HETATM   13  O3  UNL     1       8.830  65.962  -0.157  1.00  0.00    -0.269 OA
ENDROOT
BRANCH   9  14
HETATM   14  N4  UNL     1       8.421  63.187   1.100  1.00  0.00    -0.346 N 
HETATM   15  C13 UNL     1       8.065  62.093   1.531  1.00  0.00     0.118 A 
HETATM   16  C14 UNL     1       8.717  60.986   2.021  1.00  0.00     0.068 A 
HETATM   17  N7  UNL     1       6.721  61.776   1.622  1.00  0.00    -0.283 N 
HETATM   18  C15 UNL     1       7.787  60.036   2.395  1.00  0.00     0.114 A 
HETATM   19  N5  UNL     1       6.586  60.573   2.128  1.00  0.00    -0.297 N 
ATOM     20  H7  UNL     1       5.953  62.384   1.338  1.00  0.00     0.188 HD
ATOM     21  H4  UNL     1       7.593  63.721   0.834  1.00  0.00     0.163 HD
BRANCH  19  22
HETATM   22  C16 UNL     1       5.315  59.928   2.372  1.00  0.00     0.107 C 
HETATM   23  C17 UNL     1       4.306  60.512   1.393  1.00  0.00     0.029 C 
HETATM   24  C18 UNL     1       3.017  59.746   1.645  1.00  0.00     0.027 C 
HETATM   25  C19 UNL     1       3.231  58.381   1.020  1.00  0.00     0.079 C 
HETATM   26  C25 UNL     1       4.515  57.731   1.397  1.00  0.00     0.027 C 
HETATM   27  C26 UNL     1       5.356  58.442   2.395  1.00  0.00     0.029 C 
BRANCH  25  28
HETATM   28  N6  UNL     1       2.053  57.606   1.214  1.00  0.00    -0.408 N 
HETATM   29  C20 UNL     1       1.753  56.636   0.214  1.00  0.00     0.117 C 
HETATM   30  C21 UNL     1       0.553  55.833   0.733  1.00  0.00     0.019 C 
HETATM   31  C22 UNL     1       0.488  55.930   2.254  1.00  0.00     0.003 C 
HETATM   32  C23 UNL     1       0.212  57.364   2.697  1.00  0.00     0.019 C 
HETATM   33  C24 UNL     1       0.906  58.302   1.700  1.00  0.00     0.117 C 
ENDBRANCH  25  28
ENDBRANCH  19  22
ENDBRANCH   9  14
BRANCH   4  34
HETATM   34  O1  UNL     1      12.695  66.029   3.493  1.00  0.00    -0.376 OA
BRANCH  34  35
HETATM   35  C4  UNL     1      12.390  65.981   4.820  1.00  0.00     0.198 C 
BRANCH  35  36
HETATM   36  C5  UNL     1      13.532  65.824   5.763  1.00  0.00     0.298 C 
BRANCH  36  37
HETATM   37  N2  UNL     1      13.955  64.481   5.984  1.00  0.00     0.095 N 
HETATM   38  C6  UNL     1      14.536  64.179   7.270  1.00  0.00     0.305 A 
HETATM   39  C7  UNL     1      15.750  63.633   6.532  1.00  0.00     0.174 A 
HETATM   40  C8  UNL     1      15.015  63.934   5.217  1.00  0.00     0.305 A 
BRANCH  39  41
HETATM   41  O2  UNL     1      15.935  62.274   6.721  1.00  0.00    -0.392 OA
ATOM     42  H2  UNL     1      16.722  61.943   6.304  1.00  0.00     0.210 HD
ENDBRANCH  39  41
ENDBRANCH  36  37
ENDBRANCH  35  36
ENDBRANCH  34  35
ENDBRANCH   4  34
TORSDOF 8
ENDMDL
MODEL 3
REMARK VINA RESULT: -9.165151705      2.450      3.043
REMARK  8 active torsions:
REMARK  status: ('A' for Active; 'I' for Inactive)
REMARK    1  A    between atoms: C3_4  and  O1_5 
REMARK    2  A    between atoms: O1_5  and  C4_6 
REMARK    3  A    between atoms: C4_6  and  C5_7 
REMARK    4  A    between atoms: C5_7  and  N2_8 
REMARK    5  A    between atoms: C7_10  and  O2_11 
REMARK    6  A    between atoms: C11_18  and  N4_21 
REMARK    7  A    between atoms: N5_26  and  C16_27 
REMARK    8  A    between atoms: C19_30  and  N6_31 
ROOT
HETATM    1  C1  UNL     1       9.296  66.553   3.392  1.00  0.00     0.152 C 
HETATM    2  N1  UNL     1       9.785  65.642   2.382  1.00  0.00    -0.351 N 
HETATM    3  C2  UNL     1      11.003  64.926   2.709  1.00  0.00     0.163 C 
HETATM    4  C3  UNL     1      11.960  65.199   1.557  1.00  0.00     0.211 C 
HETATM    5  C9  UNL     1      11.563  64.456   0.313  1.00  0.00     0.274 C 
HETATM    6  F1  UNL     1      12.618  63.557   0.042  1.00  0.00    -0.203 F 
HETATM    7  F2  UNL     1      11.496  65.251  -0.813  1.00  0.00    -0.203 F 
HETATM    8  C10 UNL     1      10.339  63.631   0.397  1.00  0.00     0.139 C 
HETATM    9  C11 UNL     1       9.021  64.413   0.252  1.00  0.00     0.208 C 
HETATM   10  C12 UNL     1       8.958  64.906  -1.153  1.00  0.00     0.101 C 
HETATM   11  N3  UNL     1       8.883  65.287  -2.257  1.00  0.00    -0.194 NA
HETATM   12  C27 UNL     1       9.031  65.558   1.187  1.00  0.00     0.263 C 
HETATM   13  O3  UNL     1       8.292  66.561   0.883  1.00  0.00    -0.269 OA
ENDROOT
BRANCH   9  14
HETATM   14  N4  UNL     1       7.987  63.522   0.533  1.00  0.00    -0.346 N 
HETATM   15  C13 UNL     1       7.565  62.765   1.404  1.00  0.00     0.118 A 
HETATM   16  C14 UNL     1       7.984  62.408   2.664  1.00  0.00     0.068 A 
HETATM   17  N7  UNL     1       6.390  62.059   1.213  1.00  0.00    -0.283 N 
HETATM   18  C15 UNL     1       7.082  61.516   3.210  1.00  0.00     0.114 A 
HETATM   19  N5  UNL     1       6.131  61.340   2.280  1.00  0.00    -0.297 N 
ATOM     20  H7  UNL     1       5.813  62.093   0.373  1.00  0.00     0.188 HD
ATOM     21  H4  UNL     1       7.357  63.486  -0.268  1.00  0.00     0.163 HD
BRANCH  19  22
HETATM   22  C16 UNL     1       4.972  60.487   2.427  1.00  0.00     0.107 C 
HETATM   23  C17 UNL     1       3.913  60.975   1.447  1.00  0.00     0.029 C 
HETATM   24  C18 UNL     1       2.756  60.000   1.594  1.00  0.00     0.027 C 
HETATM   25  C19 UNL     1       3.204  58.734   0.889  1.00  0.00     0.079 C 
HETATM   26  C25 UNL     1       4.563  58.268   1.276  1.00  0.00     0.027 C 
HETATM   27  C26 UNL     1       5.249  59.029   2.353  1.00  0.00     0.029 C 
BRANCH  25  28
HETATM   28  N6  UNL     1       2.160  57.771   0.983  1.00  0.00    -0.408 N 
HETATM   29  C20 UNL     1       1.950  56.943  -0.158  1.00  0.00     0.117 C 
HETATM   30  C21 UNL     1       0.904  55.897   0.252  1.00  0.00     0.019 C 
HETATM   31  C22 UNL     1       0.903  55.736   1.769  1.00  0.00     0.003 C 
HETATM   32  C23 UNL     1       0.449  57.022   2.453  1.00  0.00     0.019 C 
HETATM   33  C24 UNL     1       0.952  58.202   1.609  1.00  0.00     0.117 C 
ENDBRANCH  25  28
ENDBRANCH  19  22
ENDBRANCH   9  14
BRANCH   4  34
HETATM   34  O1  UNL     1      13.277  65.017   1.893  1.00  0.00    -0.376 OA
BRANCH  34  35
HETATM   35  C4  UNL     1      13.547  64.453   3.103  1.00  0.00     0.198 C 
BRANCH  35  36
HETATM   36  C5  UNL     1      14.980  64.387   3.506  1.00  0.00     0.298 C 
BRANCH  36  37
HETATM   37  N2  UNL     1      15.253  64.799   4.843  1.00  0.00     0.095 N 
HETATM   38  C6  UNL     1      15.694  63.781   5.765  1.00  0.00     0.305 A 
HETATM   39  C7  UNL     1      14.552  64.195   6.682  1.00  0.00     0.174 A 
HETATM   40  C8  UNL     1      14.206  65.291   5.663  1.00  0.00     0.305 A 
BRANCH  39  41
HETATM   41  O2  UNL     1      14.986  64.726   7.885  1.00  0.00    -0.392 OA
ATOM     42  H2  UNL     1      14.506  65.505   8.144  1.00  0.00     0.210 HD
ENDBRANCH  39  41
ENDBRANCH  36  37
ENDBRANCH  35  36
ENDBRANCH  34  35
ENDBRANCH   4  34
TORSDOF 8
ENDMDL
MODEL 4
REMARK VINA RESULT: -8.864794610      2.652      4.345
REMARK  8 active torsions:
REMARK  status: ('A' for Active; 'I' for Inactive)
REMARK    1  A    between atoms: C3_4  and  O1_5 
REMARK    2  A    between atoms: O1_5  and  C4_6 
REMARK    3  A    between atoms: C4_6  and  C5_7 
REMARK    4  A    between atoms: C5_7  and  N2_8 
REMARK    5  A    between atoms: C7_10  and  O2_11 
REMARK    6  A    between atoms: C11_18  and  N4_21 
REMARK    7  A    between atoms: N5_26  and  C16_27 
REMARK    8  A    between atoms: C19_30  and  N6_31 
ROOT
HETATM    1  C1  UNL     1       7.205  66.395   0.760  1.00  0.00     0.152 C 
HETATM    2  N1  UNL     1       8.343  65.832   1.453  1.00  0.00    -0.351 N 
HETATM    3  C2  UNL     1       8.796  66.557   2.623  1.00  0.00     0.163 C 
HETATM    4  C3  UNL     1      10.279  66.816   2.395  1.00  0.00     0.211 C 
HETATM    5  C9  UNL     1      11.094  65.563   2.550  1.00  0.00     0.274 C 
HETATM    6  F1  UNL     1      11.951  65.787   3.651  1.00  0.00    -0.203 F 
HETATM    7  F2  UNL     1      11.952  65.324   1.496  1.00  0.00    -0.203 F 
HETATM    8  C10 UNL     1      10.351  64.324   2.861  1.00  0.00     0.139 C 
HETATM    9  C11 UNL     1       9.689  63.645   1.647  1.00  0.00     0.208 C 
HETATM   10  C12 UNL     1      10.787  63.131   0.782  1.00  0.00     0.101 C 
HETATM   11  N3  UNL     1      11.635  62.704   0.098  1.00  0.00    -0.194 NA
HETATM   12  C27 UNL     1       8.891  64.646   0.907  1.00  0.00     0.263 C 
HETATM   13  O3  UNL     1       8.684  64.417  -0.337  1.00  0.00    -0.269 OA
ENDROOT
BRANCH   9  14
HETATM   14  N4  UNL     1       8.895  62.613   2.143  1.00  0.00    -0.346 N 
HETATM   15  C13 UNL     1       7.956  61.879   1.845  1.00  0.00     0.118 A 
HETATM   16  C14 UNL     1       7.157  61.728   0.736  1.00  0.00     0.068 A 
HETATM   17  N7  UNL     1       7.507  60.916   2.733  1.00  0.00    -0.283 N 
HETATM   18  C15 UNL     1       6.259  60.702   0.955  1.00  0.00     0.114 A 
HETATM   19  N5  UNL     1       6.519  60.244   2.189  1.00  0.00    -0.297 N 
ATOM     20  H7  UNL     1       7.886  60.753   3.665  1.00  0.00     0.188 HD
ATOM     21  H4  UNL     1       9.202  62.387   3.089  1.00  0.00     0.163 HD
BRANCH  19  22
HETATM   22  C16 UNL     1       5.820  59.155   2.836  1.00  0.00     0.107 C 
HETATM   23  C17 UNL     1       5.287  58.236   1.745  1.00  0.00     0.029 C 
HETATM   24  C18 UNL     1       4.634  57.079   2.483  1.00  0.00     0.027 C 
HETATM   25  C19 UNL     1       5.781  56.233   3.002  1.00  0.00     0.079 C 
HETATM   26  C25 UNL     1       6.838  57.006   3.709  1.00  0.00     0.027 C 
HETATM   27  C26 UNL     1       6.588  58.459   3.901  1.00  0.00     0.029 C 
BRANCH  25  28
HETATM   28  N6  UNL     1       5.240  55.120   3.704  1.00  0.00    -0.408 N 
HETATM   29  C20 UNL     1       3.834  55.134   3.941  1.00  0.00     0.117 C 
HETATM   30  C21 UNL     1       3.482  53.771   4.551  1.00  0.00     0.019 C 
HETATM   31  C22 UNL     1       4.543  52.745   4.165  1.00  0.00     0.003 C 
HETATM   32  C23 UNL     1       5.895  53.102   4.775  1.00  0.00     0.019 C 
HETATM   33  C24 UNL     1       6.002  54.633   4.808  1.00  0.00     0.117 C 
ENDBRANCH  25  28
ENDBRANCH  19  22
ENDBRANCH   9  14
BRANCH   4  34
HETATM   34  O1  UNL     1      10.766  67.866   3.132  1.00  0.00    -0.376 OA
BRANCH  34  35
HETATM   35  C4  UNL     1       9.890  68.848   3.482  1.00  0.00     0.198 C 
BRANCH  35  36
HETATM   36  C5  UNL     1       9.959  70.115   2.702  1.00  0.00     0.298 C 
BRANCH  36  37
HETATM   37  N2  UNL     1       8.699  70.710   2.401  1.00  0.00     0.095 N 
HETATM   38  C6  UNL     1       7.775  70.879   3.496  1.00  0.00     0.305 A 
HETATM   39  C7  UNL     1       6.748  70.113   2.675  1.00  0.00     0.174 A 
HETATM   40  C8  UNL     1       7.785  70.047   1.544  1.00  0.00     0.305 A 
BRANCH  39  41
HETATM   41  O2  UNL     1       5.650  70.881   2.325  1.00  0.00    -0.392 OA
ATOM     42  H2  UNL     1       4.822  70.462   2.530  1.00  0.00     0.210 HD
ENDBRANCH  39  41
ENDBRANCH  36  37
ENDBRANCH  35  36
ENDBRANCH  34  35
ENDBRANCH   4  34
TORSDOF 8
ENDMDL
MODEL 5
REMARK VINA RESULT: -8.839378225      2.219      2.866
REMARK  8 active torsions:
REMARK  status: ('A' for Active; 'I' for Inactive)
REMARK    1  A    between atoms: C3_4  and  O1_5 
REMARK    2  A    between atoms: O1_5  and  C4_6 
REMARK    3  A    between atoms: C4_6  and  C5_7 
REMARK    4  A    between atoms: C5_7  and  N2_8 
REMARK    5  A    between atoms: C7_10  and  O2_11 
REMARK    6  A    between atoms: C11_18  and  N4_21 
REMARK    7  A    between atoms: N5_26  and  C16_27 
REMARK    8  A    between atoms: C19_30  and  N6_31 
ROOT
HETATM    1  C1  UNL     1       8.579  66.454   3.119  1.00  0.00     0.152 C 
HETATM    2  N1  UNL     1       9.583  65.621   2.496  1.00  0.00    -0.351 N 
HETATM    3  C2  UNL     1      10.641  65.143   3.364  1.00  0.00     0.163 C 
HETATM    4  C3  UNL     1      11.942  65.556   2.688  1.00  0.00     0.211 C 
HETATM    5  C9  UNL     1      12.227  64.723   1.470  1.00  0.00     0.274 C 
HETATM    6  F1  UNL     1      13.421  64.022   1.748  1.00  0.00    -0.203 F 
HETATM    7  F2  UNL     1      12.522  65.465   0.345  1.00  0.00    -0.203 F 
HETATM    8  C10 UNL     1      11.225  63.693   1.123  1.00  0.00     0.139 C 
HETATM    9  C11 UNL     1       9.989  64.222   0.372  1.00  0.00     0.208 C 
HETATM   10  C12 UNL     1      10.452  64.661  -0.975  1.00  0.00     0.101 C 
HETATM   11  N3  UNL     1      10.793  64.994  -2.044  1.00  0.00    -0.194 NA
HETATM   12  C27 UNL     1       9.427  65.373   1.110  1.00  0.00     0.263 C 
HETATM   13  O3  UNL     1       8.742  66.218   0.432  1.00  0.00    -0.269 OA
ENDROOT
BRANCH   9  14
HETATM   14  N4  UNL     1       9.082  63.167   0.288  1.00  0.00    -0.346 N 
HETATM   15  C13 UNL     1       8.364  62.444   0.975  1.00  0.00     0.118 A 
HETATM   16  C14 UNL     1       8.097  62.340   2.319  1.00  0.00     0.068 A 
HETATM   17  N7  UNL     1       7.564  61.482   0.383  1.00  0.00    -0.283 N 
HETATM   18  C15 UNL     1       7.163  61.344   2.524  1.00  0.00     0.114 A 
HETATM   19  N5  UNL     1       6.875  60.855   1.308  1.00  0.00    -0.297 N 
ATOM     20  H7  UNL     1       7.517  61.289  -0.617  1.00  0.00     0.188 HD
ATOM     21  H4  UNL     1       8.979  62.899  -0.691  1.00  0.00     0.163 HD
BRANCH  19  22
HETATM   22  C16 UNL     1       5.928  59.794   1.041  1.00  0.00     0.107 C 
HETATM   23  C17 UNL     1       5.466  59.240   2.382  1.00  0.00     0.029 C 
HETATM   24  C18 UNL     1       4.425  58.188   2.040  1.00  0.00     0.027 C 
HETATM   25  C19 UNL     1       3.186  58.963   1.635  1.00  0.00     0.079 C 
HETATM   26  C25 UNL     1       3.439  60.044   0.644  1.00  0.00     0.027 C 
HETATM   27  C26 UNL     1       4.824  60.153   0.114  1.00  0.00     0.029 C 
BRANCH  25  28
HETATM   28  N6  UNL     1       2.159  58.035   1.304  1.00  0.00    -0.408 N 
HETATM   29  C20 UNL     1       2.268  57.384   0.040  1.00  0.00     0.117 C 
HETATM   30  C21 UNL     1       1.154  56.329  -0.002  1.00  0.00     0.019 C 
HETATM   31  C22 UNL     1       0.745  55.956   1.419  1.00  0.00     0.003 C 
HETATM   32  C23 UNL     1       0.118  57.147   2.137  1.00  0.00     0.019 C 
HETATM   33  C24 UNL     1       0.826  58.416   1.640  1.00  0.00     0.117 C 
ENDBRANCH  25  28
ENDBRANCH  19  22
ENDBRANCH   9  14
BRANCH   4  34
HETATM   34  O1  UNL     1      13.004  65.622   3.553  1.00  0.00    -0.376 OA
BRANCH  34  35
HETATM   35  C4  UNL     1      12.733  65.846   4.868  1.00  0.00     0.198 C 
BRANCH  35  36
HETATM   36  C5  UNL     1      13.862  65.668   5.824  1.00  0.00     0.298 C 
BRANCH  36  37
HETATM   37  N2  UNL     1      14.230  64.315   6.082  1.00  0.00     0.095 N 
HETATM   38  C6  UNL     1      14.715  64.008   7.406  1.00  0.00     0.305 A 
HETATM   39  C7  UNL     1      15.958  63.420   6.754  1.00  0.00     0.174 A 
HETATM   40  C8  UNL     1      15.321  63.730   5.391  1.00  0.00     0.305 A 
BRANCH  39  41
HETATM   41  O2  UNL     1      16.089  62.058   6.964  1.00  0.00    -0.392 OA
ATOM     42  H2  UNL     1      15.255  61.614   7.067  1.00  0.00     0.210 HD
ENDBRANCH  39  41
ENDBRANCH  36  37
ENDBRANCH  35  36
ENDBRANCH  34  35
ENDBRANCH   4  34
TORSDOF 8
ENDMDL
