MODEL 1
REMARK VINA RESULT: -7.547313995      0.000      0.000
REMARK  8 active torsions:
REMARK  status: ('A' for Active; 'I' for Inactive)
REMARK       I    between atoms: N2_9  and  C6_10 
REMARK    1  A    between atoms: C6_10  and  O3_12 
REMARK    2  A    between atoms: O3_12  and  C7_13 
REMARK    3  A    between atoms: C7_13  and  C8_14 
REMARK    4  A    between atoms: C8_14  and  C9_15 
REMARK    5  A    between atoms: C9_15  and  C10_16 
REMARK    6  A    between atoms: C10_16  and  C11_17 
REMARK    7  A    between atoms: C10_16  and  C16_26 
REMARK       I    between atoms: C11_17  and  N3_19 
REMARK    8  A    between atoms: N3_19  and  C12_21 
ROOT
HETATM    1  C12 UNL     1       8.481  66.669   2.884  1.00  0.00     0.122 A 
HETATM    2  C13 UNL     1       8.127  67.829   3.710  1.00  0.00     0.091 C 
HETATM    3  N4  UNL     1       7.848  68.726   4.374  1.00  0.00    -0.195 NA
HETATM    4  C14 UNL     1       9.767  66.837   2.038  1.00  0.00     0.050 A 
HETATM    5  C15 UNL     1       9.795  66.034   3.263  1.00  0.00     0.050 A 
ENDROOT
BRANCH   1   6
HETATM    6  N3  UNL     1       7.451  65.866   2.276  1.00  0.00    -0.339 N 
HETATM    7  C11 UNL     1       6.639  64.944   2.972  1.00  0.00     0.224 C 
HETATM    8  O4  UNL     1       6.867  64.877   4.224  1.00  0.00    -0.273 OA
ATOM      9  H3  UNL     1       7.298  65.971   1.273  1.00  0.00     0.164 HD
BRANCH   7  10
HETATM   10  C10 UNL     1       5.578  64.083   2.341  1.00  0.00     0.088 C 
BRANCH  10  11
HETATM   11  C9  UNL     1       5.635  62.672   2.715  1.00  0.00     0.055 C 
BRANCH  11  12
HETATM   12  C8  UNL     1       6.342  61.622   1.962  1.00  0.00     0.092 C 
HETATM   13  O5  UNL     1       7.368  61.268   2.933  1.00  0.00    -0.371 OA
HETATM   14  C20 UNL     1       7.824  60.007   2.856  1.00  0.00     0.247 C 
HETATM   15  C21 UNL     1       6.819  58.932   3.202  1.00  0.00     0.265 C 
HETATM   16  F1  UNL     1       6.912  58.576   4.529  1.00  0.00    -0.204 F 
HETATM   17  F2  UNL     1       7.034  57.775   2.479  1.00  0.00    -0.204 F 
HETATM   18  C22 UNL     1       5.436  59.505   3.000  1.00  0.00     0.094 C 
HETATM   19  C23 UNL     1       5.391  60.435   1.785  1.00  0.00     0.002 C 
HETATM   20  C24 UNL     1       3.926  60.900   1.770  1.00  0.00     0.039 C 
HETATM   21  C27 UNL     1       5.514  59.686   0.522  1.00  0.00     0.039 C 
HETATM   22  C25 UNL     1       3.009  59.770   1.365  1.00  0.00     0.168 C 
HETATM   23  O6  UNL     1       3.173  59.408   0.055  1.00  0.00    -0.391 OA
HETATM   24  C26 UNL     1       4.341  59.908  -0.447  1.00  0.00     0.168 C 
BRANCH  12  25
HETATM   25  C7  UNL     1       7.130  61.872   0.745  1.00  0.00     0.219 C 
BRANCH  25  26
HETATM   26  O3  UNL     1       8.296  62.541   0.624  1.00  0.00    -0.301 OA
BRANCH  26  27
HETATM   27  C6  UNL     1       8.653  63.469  -0.290  1.00  0.00     0.363 C 
HETATM   28  N2  UNL     1       9.939  64.072  -0.355  1.00  0.00    -0.313 N 
HETATM   29  C2  UNL     1      10.924  63.675   0.618  1.00  0.00     0.177 C 
HETATM   30  C5  UNL     1      10.263  65.047  -1.353  1.00  0.00     0.149 C 
HETATM   31  C1  UNL     1      11.254  62.196   0.543  1.00  0.00     0.043 C 
HETATM   32  C3  UNL     1      12.191  64.415   0.514  1.00  0.00     0.240 C 
HETATM   33  O1  UNL     1      12.923  64.504   1.549  1.00  0.00    -0.271 OA
HETATM   34  N1  UNL     1      12.556  64.998  -0.719  1.00  0.00    -0.358 N 
HETATM   35  C4  UNL     1      11.682  64.814  -1.858  1.00  0.00     0.142 C 
ATOM     36  H1  UNL     1      13.416  65.539  -0.805  1.00  0.00     0.162 HD
HETATM   37  O2  UNL     1       7.801  63.850  -1.166  1.00  0.00    -0.238 OA
ENDBRANCH  26  27
ENDBRANCH  25  26
ENDBRANCH  12  25
ENDBRANCH  11  12
ENDBRANCH  10  11
BRANCH  10  38
HETATM   38  C16 UNL     1       4.208  64.659   2.681  1.00  0.00    -0.039 C 
HETATM   39  C17 UNL     1       3.247  64.402   1.513  1.00  0.00     0.015 C 
HETATM   40  C18 UNL     1       3.597  63.894   3.856  1.00  0.00     0.015 C 
HETATM   41  C19 UNL     1       4.231  66.084   3.072  1.00  0.00     0.015 C 
ENDBRANCH  10  38
ENDBRANCH   7  10
ENDBRANCH   1   6
TORSDOF 8
ENDMDL
MODEL 2
REMARK VINA RESULT: -7.467570604      3.098      6.614
REMARK  8 active torsions:
REMARK  status: ('A' for Active; 'I' for Inactive)
REMARK       I    between atoms: N2_9  and  C6_10 
REMARK    1  A    between atoms: C6_10  and  O3_12 
REMARK    2  A    between atoms: O3_12  and  C7_13 
REMARK    3  A    between atoms: C7_13  and  C8_14 
REMARK    4  A    between atoms: C8_14  and  C9_15 
REMARK    5  A    between atoms: C9_15  and  C10_16 
REMARK    6  A    between atoms: C10_16  and  C11_17 
REMARK    7  A    between atoms: C10_16  and  C16_26 
REMARK       I    between atoms: C11_17  and  N3_19 
REMARK    8  A    between atoms: N3_19  and  C12_21 
ROOT
HETATM    1  C12 UNL     1       5.405  64.829   5.079  1.00  0.00     0.122 A 
HETATM    2  C13 UNL     1       4.882  65.897   5.937  1.00  0.00     0.091 C 
HETATM    3  N4  UNL     1       4.464  66.745   6.593  1.00  0.00    -0.195 NA
HETATM    4  C14 UNL     1       4.975  63.397   5.482  1.00  0.00     0.050 A 
HETATM    5  C15 UNL     1       4.334  64.062   4.346  1.00  0.00     0.050 A 
ENDROOT
BRANCH   1   6
HETATM    6  N3  UNL     1       6.724  64.931   4.509  1.00  0.00    -0.339 N 
HETATM    7  C11 UNL     1       7.037  65.661   3.341  1.00  0.00     0.224 C 
HETATM    8  O4  UNL     1       6.047  66.264   2.812  1.00  0.00    -0.273 OA
ATOM      9  H3  UNL     1       7.485  64.443   4.982  1.00  0.00     0.164 HD
BRANCH   7  10
HETATM   10  C10 UNL     1       8.407  65.754   2.725  1.00  0.00     0.088 C 
BRANCH  10  11
HETATM   11  C9  UNL     1       8.430  65.639   1.269  1.00  0.00     0.055 C 
BRANCH  11  12
HETATM   12  C8  UNL     1       8.514  64.374   0.518  1.00  0.00     0.092 C 
HETATM   13  O5  UNL     1       7.463  64.598  -0.464  1.00  0.00    -0.371 OA
HETATM   14  C20 UNL     1       7.619  63.954  -1.632  1.00  0.00     0.247 C 
HETATM   15  C21 UNL     1       8.795  64.404  -2.469  1.00  0.00     0.265 C 
HETATM   16  F1  UNL     1       8.415  65.363  -3.382  1.00  0.00    -0.204 F 
HETATM   17  F2  UNL     1       9.331  63.365  -3.204  1.00  0.00    -0.204 F 
HETATM   18  C22 UNL     1       9.801  65.053  -1.547  1.00  0.00     0.094 C 
HETATM   19  C23 UNL     1       9.867  64.331  -0.199  1.00  0.00     0.002 C 
HETATM   20  C24 UNL     1      10.923  65.143   0.567  1.00  0.00     0.039 C 
HETATM   21  C27 UNL     1      10.494  63.004  -0.323  1.00  0.00     0.039 C 
HETATM   22  C25 UNL     1      12.300  64.910  -0.008  1.00  0.00     0.168 C 
HETATM   23  O6  UNL     1      12.750  63.637   0.213  1.00  0.00    -0.391 OA
HETATM   24  C26 UNL     1      11.724  62.812   0.580  1.00  0.00     0.168 C 
BRANCH  12  25
HETATM   25  C7  UNL     1       8.153  63.062   1.075  1.00  0.00     0.219 C 
BRANCH  25  26
HETATM   26  O3  UNL     1       6.951  62.643   1.523  1.00  0.00    -0.301 OA
BRANCH  26  27
HETATM   27  C6  UNL     1       6.120  61.719   0.992  1.00  0.00     0.363 C 
HETATM   28  N2  UNL     1       6.038  60.371   1.437  1.00  0.00    -0.313 N 
HETATM   29  C2  UNL     1       6.898  59.959   2.517  1.00  0.00     0.177 C 
HETATM   30  C5  UNL     1       5.133  59.436   0.840  1.00  0.00     0.149 C 
HETATM   31  C1  UNL     1       6.644  60.739   3.793  1.00  0.00     0.043 C 
HETATM   32  C3  UNL     1       6.793  58.529   2.846  1.00  0.00     0.240 C 
HETATM   33  O1  UNL     1       7.783  57.968   3.412  1.00  0.00    -0.271 OA
HETATM   34  N1  UNL     1       5.610  57.829   2.529  1.00  0.00    -0.358 N 
HETATM   35  C4  UNL     1       4.516  58.556   1.921  1.00  0.00     0.142 C 
ATOM     36  H1  UNL     1       5.527  56.831   2.723  1.00  0.00     0.162 HD
HETATM   37  O2  UNL     1       5.347  62.048   0.027  1.00  0.00    -0.238 OA
ENDBRANCH  26  27
ENDBRANCH  25  26
ENDBRANCH  12  25
ENDBRANCH  11  12
ENDBRANCH  10  11
BRANCH  10  38
HETATM   38  C16 UNL     1       9.054  67.066   3.156  1.00  0.00    -0.039 C 
HETATM   39  C17 UNL     1       8.292  67.633   4.360  1.00  0.00     0.015 C 
HETATM   40  C18 UNL     1      10.465  66.802   3.684  1.00  0.00     0.015 C 
HETATM   41  C19 UNL     1       9.189  68.058   2.070  1.00  0.00     0.015 C 
ENDBRANCH  10  38
ENDBRANCH   7  10
ENDBRANCH   1   6
TORSDOF 8
ENDMDL
MODEL 3
REMARK VINA RESULT: -7.421353865      1.244      1.893
REMARK  8 active torsions:
REMARK  status: ('A' for Active; 'I' for Inactive)
REMARK       I    between atoms: N2_9  and  C6_10 
REMARK    1  A    between atoms: C6_10  and  O3_12 
REMARK    2  A    between atoms: O3_12  and  C7_13 
REMARK    3  A    between atoms: C7_13  and  C8_14 
REMARK    4  A    between atoms: C8_14  and  C9_15 
REMARK    5  A    between atoms: C9_15  and  C10_16 
REMARK    6  A    between atoms: C10_16  and  C11_17 
REMARK    7  A    between atoms: C10_16  and  C16_26 
REMARK       I    between atoms: C11_17  and  N3_19 
REMARK    8  A    between atoms: N3_19  and  C12_21 
ROOT
HETATM    1  C12 UNL     1       7.599  67.280   3.423  1.00  0.00     0.122 A 
HETATM    2  C13 UNL     1       7.224  68.518   4.113  1.00  0.00     0.091 C 
HETATM    3  N4  UNL     1       6.929  69.479   4.673  1.00  0.00    -0.195 NA
HETATM    4  C14 UNL     1       8.836  67.396   2.497  1.00  0.00     0.050 A 
HETATM    5  C15 UNL     1       8.960  66.759   3.810  1.00  0.00     0.050 A 
ENDROOT
BRANCH   1   6
HETATM    6  N3  UNL     1       6.586  66.360   2.973  1.00  0.00    -0.339 N 
HETATM    7  C11 UNL     1       5.975  65.382   3.788  1.00  0.00     0.224 C 
HETATM    8  O4  UNL     1       6.374  65.374   4.998  1.00  0.00    -0.273 OA
ATOM      9  H3  UNL     1       6.290  66.418   1.999  1.00  0.00     0.164 HD
BRANCH   7  10
HETATM   10  C10 UNL     1       4.933  64.400   3.321  1.00  0.00     0.088 C 
BRANCH  10  11
HETATM   11  C9  UNL     1       5.294  62.996   3.500  1.00  0.00     0.055 C 
BRANCH  11  12
HETATM   12  C8  UNL     1       6.197  62.232   2.622  1.00  0.00     0.092 C 
HETATM   13  O5  UNL     1       7.175  61.782   3.602  1.00  0.00    -0.371 OA
HETATM   14  C20 UNL     1       7.801  60.631   3.304  1.00  0.00     0.247 C 
HETATM   15  C21 UNL     1       6.924  59.400   3.293  1.00  0.00     0.265 C 
HETATM   16  F1  UNL     1       6.952  58.761   4.513  1.00  0.00    -0.204 F 
HETATM   17  F2  UNL     1       7.351  58.472   2.364  1.00  0.00    -0.204 F 
HETATM   18  C22 UNL     1       5.498  59.846   3.067  1.00  0.00     0.094 C 
HETATM   19  C23 UNL     1       5.432  61.019   2.085  1.00  0.00     0.002 C 
HETATM   20  C24 UNL     1       3.924  61.309   2.007  1.00  0.00     0.039 C 
HETATM   21  C27 UNL     1       5.760  60.599   0.712  1.00  0.00     0.039 C 
HETATM   22  C25 UNL     1       3.204  60.207   1.266  1.00  0.00     0.168 C 
HETATM   23  O6  UNL     1       3.524  60.176  -0.064  1.00  0.00    -0.391 OA
HETATM   24  C26 UNL     1       4.654  60.905  -0.312  1.00  0.00     0.168 C 
BRANCH  12  25
HETATM   25  C7  UNL     1       7.044  62.841   1.584  1.00  0.00     0.219 C 
BRANCH  25  26
HETATM   26  O3  UNL     1       7.965  63.819   1.721  1.00  0.00    -0.301 OA
BRANCH  26  27
HETATM   27  C6  UNL     1       9.309  63.742   1.614  1.00  0.00     0.363 C 
HETATM   28  N2  UNL     1      10.017  63.824   0.384  1.00  0.00    -0.313 N 
HETATM   29  C2  UNL     1       9.256  63.993  -0.827  1.00  0.00     0.177 C 
HETATM   30  C5  UNL     1      11.446  63.743   0.331  1.00  0.00     0.149 C 
HETATM   31  C1  UNL     1       8.446  65.276  -0.832  1.00  0.00     0.043 C 
HETATM   32  C3  UNL     1      10.075  63.985  -2.049  1.00  0.00     0.240 C 
HETATM   33  O1  UNL     1       9.520  63.657  -3.144  1.00  0.00    -0.271 OA
HETATM   34  N1  UNL     1      11.439  64.339  -1.972  1.00  0.00    -0.358 N 
HETATM   35  C4  UNL     1      11.980  64.740  -0.690  1.00  0.00     0.142 C 
ATOM     36  H1  UNL     1      12.032  64.314  -2.802  1.00  0.00     0.162 HD
HETATM   37  O2  UNL     1      10.017  63.585   2.669  1.00  0.00    -0.238 OA
ENDBRANCH  26  27
ENDBRANCH  25  26
ENDBRANCH  12  25
ENDBRANCH  11  12
ENDBRANCH  10  11
BRANCH  10  38
HETATM   38  C16 UNL     1       3.619  64.697   4.035  1.00  0.00    -0.039 C 
HETATM   39  C17 UNL     1       2.450  64.358   3.102  1.00  0.00     0.015 C 
HETATM   40  C18 UNL     1       3.447  63.752   5.226  1.00  0.00     0.015 C 
HETATM   41  C19 UNL     1       3.519  66.071   4.569  1.00  0.00     0.015 C 
ENDBRANCH  10  38
ENDBRANCH   7  10
ENDBRANCH   1   6
TORSDOF 8
ENDMDL
MODEL 4
REMARK VINA RESULT: -7.371877104      2.083      3.077
REMARK  8 active torsions:
REMARK  status: ('A' for Active; 'I' for Inactive)
REMARK       I    between atoms: N2_9  and  C6_10 
REMARK    1  A    between atoms: C6_10  and  O3_12 
REMARK    2  A    between atoms: O3_12  and  C7_13 
REMARK    3  A    between atoms: C7_13  and  C8_14 
REMARK    4  A    between atoms: C8_14  and  C9_15 
REMARK    5  A    between atoms: C9_15  and  C10_16 
REMARK    6  A    between atoms: C10_16  and  C11_17 
REMARK    7  A    between atoms: C10_16  and  C16_26 
REMARK       I    between atoms: C11_17  and  N3_19 
REMARK    8  A    between atoms: N3_19  and  C12_21 
ROOT
HETATM    1  C12 UNL     1      11.332  65.022   2.943  1.00  0.00     0.122 A 
HETATM    2  C13 UNL     1      12.130  64.441   1.858  1.00  0.00     0.091 C 
HETATM    3  N4  UNL     1      12.749  64.001   0.994  1.00  0.00    -0.195 NA
HETATM    4  C14 UNL     1      12.105  65.268   4.263  1.00  0.00     0.050 A 
HETATM    5  C15 UNL     1      11.798  66.390   3.372  1.00  0.00     0.050 A 
ENDROOT
BRANCH   1   6
HETATM    6  N3  UNL     1       9.948  64.658   3.106  1.00  0.00    -0.339 N 
HETATM    7  C11 UNL     1       8.897  65.120   2.284  1.00  0.00     0.224 C 
HETATM    8  O4  UNL     1       9.262  65.894   1.341  1.00  0.00    -0.273 OA
ATOM      9  H3  UNL     1       9.711  64.021   3.867  1.00  0.00     0.164 HD
BRANCH   7  10
HETATM   10  C10 UNL     1       7.445  64.764   2.462  1.00  0.00     0.088 C 
BRANCH  10  11
HETATM   11  C9  UNL     1       7.199  63.379   2.856  1.00  0.00     0.055 C 
BRANCH  11  12
HETATM   12  C8  UNL     1       7.178  62.226   1.939  1.00  0.00     0.092 C 
HETATM   13  O5  UNL     1       8.202  61.397   2.559  1.00  0.00    -0.371 OA
HETATM   14  C20 UNL     1       8.068  60.075   2.365  1.00  0.00     0.247 C 
HETATM   15  C21 UNL     1       6.858  59.444   3.015  1.00  0.00     0.265 C 
HETATM   16  F1  UNL     1       7.171  58.936   4.256  1.00  0.00    -0.204 F 
HETATM   17  F2  UNL     1       6.373  58.382   2.278  1.00  0.00    -0.204 F 
HETATM   18  C22 UNL     1       5.829  60.529   3.234  1.00  0.00     0.094 C 
HETATM   19  C23 UNL     1       5.820  61.529   2.076  1.00  0.00     0.002 C 
HETATM   20  C24 UNL     1       4.730  62.526   2.500  1.00  0.00     0.039 C 
HETATM   21  C27 UNL     1       5.268  60.936   0.847  1.00  0.00     0.039 C 
HETATM   22  C25 UNL     1       3.361  61.894   2.409  1.00  0.00     0.168 C 
HETATM   23  O6  UNL     1       2.987  61.643   1.117  1.00  0.00    -0.391 OA
HETATM   24  C26 UNL     1       4.062  61.701   0.276  1.00  0.00     0.168 C 
BRANCH  12  25
HETATM   25  C7  UNL     1       7.619  62.282   0.537  1.00  0.00     0.219 C 
BRANCH  25  26
HETATM   26  O3  UNL     1       7.440  63.275  -0.360  1.00  0.00    -0.301 OA
BRANCH  26  27
HETATM   27  C6  UNL     1       7.203  63.189  -1.687  1.00  0.00     0.363 C 
HETATM   28  N2  UNL     1       8.043  63.753  -2.685  1.00  0.00    -0.313 N 
HETATM   29  C2  UNL     1       9.219  64.467  -2.258  1.00  0.00     0.177 C 
HETATM   30  C5  UNL     1       7.746  63.624  -4.080  1.00  0.00     0.149 C 
HETATM   31  C1  UNL     1      10.182  63.592  -1.479  1.00  0.00     0.043 C 
HETATM   32  C3  UNL     1       9.975  65.079  -3.362  1.00  0.00     0.240 C 
HETATM   33  O1  UNL     1      10.712  66.082  -3.104  1.00  0.00    -0.271 OA
HETATM   34  N1  UNL     1       9.862  64.541  -4.662  1.00  0.00    -0.358 N 
HETATM   35  C4  UNL     1       9.031  63.373  -4.859  1.00  0.00     0.142 C 
ATOM     36  H1  UNL     1      10.356  64.967  -5.446  1.00  0.00     0.162 HD
HETATM   37  O2  UNL     1       6.164  62.567  -2.102  1.00  0.00    -0.238 OA
ENDBRANCH  26  27
ENDBRANCH  25  26
ENDBRANCH  12  25
ENDBRANCH  11  12
ENDBRANCH  10  11
BRANCH  10  38
HETATM   38  C16 UNL     1       6.824  65.715   3.479  1.00  0.00    -0.039 C 
HETATM   39  C17 UNL     1       5.569  66.355   2.872  1.00  0.00     0.015 C 
HETATM   40  C18 UNL     1       6.308  64.927   4.683  1.00  0.00     0.015 C 
HETATM   41  C19 UNL     1       7.759  66.730   4.007  1.00  0.00     0.015 C 
ENDBRANCH  10  38
ENDBRANCH   7  10
ENDBRANCH   1   6
TORSDOF 8
ENDMDL
MODEL 5
REMARK VINA RESULT: -7.341383271      1.151      1.301
REMARK  8 active torsions:
REMARK  status: ('A' for Active; 'I' for Inactive)
REMARK       I    between atoms: N2_9  and  C6_10 
REMARK    1  A    between atoms: C6_10  and  O3_12 
REMARK    2  A    between atoms: O3_12  and  C7_13 
REMARK    3  A    between atoms: C7_13  and  C8_14 
REMARK    4  A    between atoms: C8_14  and  C9_15 
REMARK    5  A    between atoms: C9_15  and  C10_16 
REMARK    6  A    between atoms: C10_16  and  C11_17 
REMARK    7  A    between atoms: C10_16  and  C16_26 
REMARK       I    between atoms: C11_17  and  N3_19 
REMARK    8  A    between atoms: N3_19  and  C12_21 
ROOT
HETATM    1  C12 UNL     1       7.026  67.475   3.513  1.00  0.00     0.122 A 
HETATM    2  C13 UNL     1       6.465  68.539   4.352  1.00  0.00     0.091 C 
HETATM    3  N4  UNL     1       6.024  69.360   5.027  1.00  0.00    -0.195 NA
HETATM    4  C14 UNL     1       8.304  67.866   2.730  1.00  0.00     0.050 A 
HETATM    5  C15 UNL     1       8.406  67.037   3.933  1.00  0.00     0.050 A 
ENDROOT
BRANCH   1   6
HETATM    6  N3  UNL     1       6.158  66.546   2.837  1.00  0.00    -0.339 N 
HETATM    7  C11 UNL     1       5.631  65.373   3.421  1.00  0.00     0.224 C 
HETATM    8  O4  UNL     1       5.967  65.189   4.636  1.00  0.00    -0.273 OA
ATOM      9  H3  UNL     1       5.906  66.748   1.869  1.00  0.00     0.164 HD
BRANCH   7  10
HETATM   10  C10 UNL     1       4.744  64.382   2.716  1.00  0.00     0.088 C 
BRANCH  10  11
HETATM   11  C9  UNL     1       5.063  62.981   2.978  1.00  0.00     0.055 C 
BRANCH  11  12
HETATM   12  C8  UNL     1       5.970  62.150   2.169  1.00  0.00     0.092 C 
HETATM   13  O5  UNL     1       7.027  61.916   3.143  1.00  0.00    -0.371 OA
HETATM   14  C20 UNL     1       7.717  60.775   2.981  1.00  0.00     0.247 C 
HETATM   15  C21 UNL     1       6.930  59.505   3.208  1.00  0.00     0.265 C 
HETATM   16  F1  UNL     1       7.066  59.063   4.505  1.00  0.00    -0.204 F 
HETATM   17  F2  UNL     1       7.374  58.474   2.403  1.00  0.00    -0.204 F 
HETATM   18  C22 UNL     1       5.467  59.821   3.007  1.00  0.00     0.094 C 
HETATM   19  C23 UNL     1       5.266  60.824   1.867  1.00  0.00     0.002 C 
HETATM   20  C24 UNL     1       3.740  61.004   1.841  1.00  0.00     0.039 C 
HETATM   21  C27 UNL     1       5.552  60.221   0.555  1.00  0.00     0.039 C 
HETATM   22  C25 UNL     1       3.062  59.759   1.318  1.00  0.00     0.168 C 
HETATM   23  O6  UNL     1       3.315  59.546  -0.010  1.00  0.00    -0.391 OA
HETATM   24  C26 UNL     1       4.375  60.297  -0.433  1.00  0.00     0.168 C 
BRANCH  12  25
HETATM   25  C7  UNL     1       6.717  62.645   1.002  1.00  0.00     0.219 C 
BRANCH  25  26
HETATM   26  O3  UNL     1       7.697  63.573   0.966  1.00  0.00    -0.301 OA
BRANCH  26  27
HETATM   27  C6  UNL     1       8.689  63.727   0.061  1.00  0.00     0.363 C 
HETATM   28  N2  UNL     1       9.948  64.321   0.351  1.00  0.00    -0.313 N 
HETATM   29  C2  UNL     1      10.181  64.796   1.691  1.00  0.00     0.177 C 
HETATM   30  C5  UNL     1      10.966  64.451  -0.647  1.00  0.00     0.149 C 
HETATM   31  C1  UNL     1      10.098  63.689   2.724  1.00  0.00     0.043 C 
HETATM   32  C3  UNL     1      11.480  65.465   1.864  1.00  0.00     0.240 C 
HETATM   33  O1  UNL     1      11.601  66.308   2.809  1.00  0.00    -0.271 OA
HETATM   34  N1  UNL     1      12.543  65.156   0.989  1.00  0.00    -0.358 N 
HETATM   35  C4  UNL     1      12.329  64.154  -0.034  1.00  0.00     0.142 C 
ATOM     36  H1  UNL     1      13.442  65.628   1.075  1.00  0.00     0.162 HD
HETATM   37  O2  UNL     1       8.514  63.321  -1.140  1.00  0.00    -0.238 OA
ENDBRANCH  26  27
ENDBRANCH  25  26
ENDBRANCH  12  25
ENDBRANCH  11  12
ENDBRANCH  10  11
BRANCH  10  38
HETATM   38  C16 UNL     1       3.293  64.667   3.087  1.00  0.00    -0.039 C 
HETATM   39  C17 UNL     1       2.392  64.350   1.887  1.00  0.00     0.015 C 
HETATM   40  C18 UNL     1       2.834  63.699   4.179  1.00  0.00     0.015 C 
HETATM   41  C19 UNL     1       3.059  66.030   3.607  1.00  0.00     0.015 C 
ENDBRANCH  10  38
ENDBRANCH   7  10
ENDBRANCH   1   6
TORSDOF 8
ENDMDL
