MODEL 1
REMARK VINA RESULT: -8.221228757      0.000      0.000
REMARK  8 active torsions:
REMARK  status: ('A' for Active; 'I' for Inactive)
REMARK    1  A    between atoms: C2_2  and  C3_4 
REMARK    2  A    between atoms: C3_4  and  N1_5 
REMARK    3  A    between atoms: C3_4  and  C14_27 
REMARK    4  A    between atoms: C3_4  and  C22_35 
REMARK       I    between atoms: N1_5  and  C4_7 
REMARK    5  A    between atoms: C4_7  and  C5_9 
REMARK       I    between atoms: N3_16  and  C9_17 
REMARK    6  A    between atoms: C9_17  and  C10_19 
REMARK    7  A    between atoms: C10_19  and  C11_20 
REMARK    8  A    between atoms: C11_20  and  N4_23 
ROOT
HETATM    1  N1  UNL     1      -5.494  10.171  21.467  1.00  0.00    -0.339 N 
ATOM      2  H1  UNL     1      -5.632   9.454  22.179  1.00  0.00     0.163 HD
HETATM    3  C4  UNL     1      -4.289  10.787  21.597  1.00  0.00     0.269 C 
HETATM    4  O1  UNL     1      -3.829  11.691  20.894  1.00  0.00    -0.269 OA
ENDROOT
BRANCH   3   5
HETATM    5  C5  UNL     1      -3.340  10.371  22.709  1.00  0.00     0.382 C 
HETATM    6  N2  UNL     1      -2.031  10.003  22.112  1.00  0.00    -0.039 N 
HETATM    7  C6  UNL     1      -1.178  10.500  23.144  1.00  0.00     0.213 A 
ATOM      8  H22 UNL     1      -1.909   9.024  21.856  1.00  0.00     0.280 HD
ATOM      9  H21 UNL     1      -1.851  10.347  21.169  1.00  0.00     0.280 HD
HETATM   10  C7  UNL     1      -0.450  11.681  23.353  1.00  0.00     0.062 A 
HETATM   11  C8  UNL     1      -1.779  11.953  23.013  1.00  0.00     0.122 A 
HETATM   12  N3  UNL     1      -3.046  11.531  23.542  1.00  0.00    -0.309 N 
HETATM   13  C9  UNL     1      -3.811  12.077  24.592  1.00  0.00     0.224 C 
HETATM   14  O2  UNL     1      -4.893  11.549  24.908  1.00  0.00    -0.273 OA
BRANCH  13  15
HETATM   15  C10 UNL     1      -3.297  13.283  25.301  1.00  0.00     0.140 C 
BRANCH  15  16
HETATM   16  C11 UNL     1      -4.188  14.482  25.173  1.00  0.00     0.124 C 
HETATM   17  C12 UNL     1      -4.259  15.060  23.795  1.00  0.00     0.046 C 
HETATM   18  C13 UNL     1      -3.603  15.547  26.097  1.00  0.00     0.046 C 
BRANCH  16  19
HETATM   19  N4  UNL     1      -5.505  14.162  25.699  1.00  0.00    -0.071 N 
ATOM     20  H43 UNL     1      -5.456  13.602  26.550  1.00  0.00     0.275 HD
ATOM     21  H42 UNL     1      -5.975  14.979  26.091  1.00  0.00     0.275 HD
ATOM     22  H41 UNL     1      -6.060  13.710  24.972  1.00  0.00     0.275 HD
ENDBRANCH  16  19
ENDBRANCH  15  16
ENDBRANCH  13  15
ENDBRANCH   3   5
BRANCH   1  23
HETATM   23  C3  UNL     1      -6.645  10.274  20.567  1.00  0.00     0.147 C 
BRANCH  23  24
HETATM   24  C2  UNL     1      -6.879  11.628  20.037  1.00  0.00     0.091 C 
HETATM   25  C1  UNL     1      -8.275  12.119  19.857  1.00  0.00     0.025 C 
HETATM   26 BR1  UNL     1      -6.121  11.858  18.225  1.00  0.00    -0.089 Br
ENDBRANCH  23  24
BRANCH  23  27
HETATM   27  C14 UNL     1      -6.211   9.354  19.422  1.00  0.00     0.024 C 
HETATM   28  C15 UNL     1      -7.445   8.611  18.997  1.00  0.00     0.008 C 
HETATM   29  C16 UNL     1      -7.319   7.122  19.015  1.00  0.00     0.009 C 
HETATM   30  C17 UNL     1      -6.065   6.660  18.296  1.00  0.00    -0.048 C 
HETATM   31  C18 UNL     1      -6.067   7.085  16.847  1.00  0.00     0.015 C 
HETATM   32  C19 UNL     1      -6.078   5.142  18.375  1.00  0.00     0.015 C 
HETATM   33  C20 UNL     1      -4.936   7.170  19.098  1.00  0.00     0.009 C 
HETATM   34  C21 UNL     1      -4.962   8.640  19.457  1.00  0.00     0.008 C 
ENDBRANCH  23  27
BRANCH  23  35
HETATM   35  C22 UNL     1      -7.766   9.626  21.312  1.00  0.00     0.414 C 
HETATM   36  F1  UNL     1      -7.543   8.395  21.834  1.00  0.00    -0.168 F 
HETATM   37  F2  UNL     1      -8.969   9.554  20.647  1.00  0.00    -0.168 F 
HETATM   38  F3  UNL     1      -8.045  10.446  22.428  1.00  0.00    -0.168 F 
ENDBRANCH  23  35
ENDBRANCH   1  23
TORSDOF 8
ENDMDL
MODEL 2
REMARK VINA RESULT: -8.142213248      1.676      3.231
REMARK  8 active torsions:
REMARK  status: ('A' for Active; 'I' for Inactive)
REMARK    1  A    between atoms: C2_2  and  C3_4 
REMARK    2  A    between atoms: C3_4  and  N1_5 
REMARK    3  A    between atoms: C3_4  and  C14_27 
REMARK    4  A    between atoms: C3_4  and  C22_35 
REMARK       I    between atoms: N1_5  and  C4_7 
REMARK    5  A    between atoms: C4_7  and  C5_9 
REMARK       I    between atoms: N3_16  and  C9_17 
REMARK    6  A    between atoms: C9_17  and  C10_19 
REMARK    7  A    between atoms: C10_19  and  C11_20 
REMARK    8  A    between atoms: C11_20  and  N4_23 
ROOT
HETATM    1  N1  UNL     1      -6.418  11.558  20.921  1.00  0.00    -0.339 N 
ATOM      2  H1  UNL     1      -6.203  11.332  21.892  1.00  0.00     0.163 HD
HETATM    3  C4  UNL     1      -5.608  12.538  20.438  1.00  0.00     0.269 C 
HETATM    4  O1  UNL     1      -5.618  13.029  19.305  1.00  0.00    -0.269 OA
ENDROOT
BRANCH   3   5
HETATM    5  C5  UNL     1      -4.541  13.148  21.331  1.00  0.00     0.382 C 
HETATM    6  N2  UNL     1      -5.169  14.183  22.192  1.00  0.00    -0.039 N 
HETATM    7  C6  UNL     1      -4.400  13.971  23.377  1.00  0.00     0.213 A 
ATOM      8  H22 UNL     1      -5.180  15.134  21.823  1.00  0.00     0.280 HD
ATOM      9  H21 UNL     1      -6.182  14.134  22.293  1.00  0.00     0.280 HD
HETATM   10  C7  UNL     1      -4.581  13.252  24.567  1.00  0.00     0.062 A 
HETATM   11  C8  UNL     1      -4.827  12.454  23.445  1.00  0.00     0.122 A 
HETATM   12  N3  UNL     1      -4.069  12.135  22.267  1.00  0.00    -0.309 N 
HETATM   13  C9  UNL     1      -3.113  11.122  22.058  1.00  0.00     0.224 C 
HETATM   14  O2  UNL     1      -2.553  11.018  20.951  1.00  0.00    -0.273 OA
BRANCH  13  15
HETATM   15  C10 UNL     1      -2.796  10.194  23.181  1.00  0.00     0.140 C 
BRANCH  15  16
HETATM   16  C11 UNL     1      -1.361  10.245  23.616  1.00  0.00     0.124 C 
HETATM   17  C12 UNL     1      -1.057   9.453  24.849  1.00  0.00     0.046 C 
HETATM   18  C13 UNL     1      -1.060  11.711  23.916  1.00  0.00     0.046 C 
BRANCH  16  19
HETATM   19  N4  UNL     1      -0.506   9.870  22.502  1.00  0.00    -0.071 N 
ATOM     20  H43 UNL     1      -1.037   9.688  21.651  1.00  0.00     0.275 HD
ATOM     21  H42 UNL     1       0.051  10.654  22.161  1.00  0.00     0.275 HD
ATOM     22  H41 UNL     1       0.073   9.074  22.773  1.00  0.00     0.275 HD
ENDBRANCH  16  19
ENDBRANCH  15  16
ENDBRANCH  13  15
ENDBRANCH   3   5
BRANCH   1  23
HETATM   23  C3  UNL     1      -7.521  10.744  20.404  1.00  0.00     0.147 C 
BRANCH  23  24
HETATM   24  C2  UNL     1      -8.591  11.519  19.754  1.00  0.00     0.091 C 
HETATM   25  C1  UNL     1      -8.384  12.060  18.381  1.00  0.00     0.025 C 
HETATM   26 BR1  UNL     1      -9.052  13.149  20.776  1.00  0.00    -0.089 Br
ENDBRANCH  23  24
BRANCH  23  27
HETATM   27  C14 UNL     1      -6.800   9.900  19.349  1.00  0.00     0.024 C 
HETATM   28  C15 UNL     1      -7.806   8.895  18.865  1.00  0.00     0.008 C 
HETATM   29  C16 UNL     1      -7.372   7.470  18.973  1.00  0.00     0.009 C 
HETATM   30  C17 UNL     1      -5.987   7.263  18.385  1.00  0.00    -0.048 C 
HETATM   31  C18 UNL     1      -5.946   7.626  16.920  1.00  0.00     0.015 C 
HETATM   32  C19 UNL     1      -5.688   5.781  18.544  1.00  0.00     0.015 C 
HETATM   33  C20 UNL     1      -5.069   8.030  19.249  1.00  0.00     0.009 C 
HETATM   34  C21 UNL     1      -5.437   9.472  19.525  1.00  0.00     0.008 C 
ENDBRANCH  23  27
BRANCH  23  35
HETATM   35  C22 UNL     1      -7.909   9.865  21.547  1.00  0.00     0.414 C 
HETATM   36  F1  UNL     1      -7.125   8.791  21.807  1.00  0.00    -0.168 F 
HETATM   37  F2  UNL     1      -9.206   9.405  21.540  1.00  0.00    -0.168 F 
HETATM   38  F3  UNL     1      -7.837  10.656  22.716  1.00  0.00    -0.168 F 
ENDBRANCH  23  35
ENDBRANCH   1  23
TORSDOF 8
ENDMDL
MODEL 3
REMARK VINA RESULT: -8.051999042      1.206      1.658
REMARK  8 active torsions:
REMARK  status: ('A' for Active; 'I' for Inactive)
REMARK    1  A    between atoms: C2_2  and  C3_4 
REMARK    2  A    between atoms: C3_4  and  N1_5 
REMARK    3  A    between atoms: C3_4  and  C14_27 
REMARK    4  A    between atoms: C3_4  and  C22_35 
REMARK       I    between atoms: N1_5  and  C4_7 
REMARK    5  A    between atoms: C4_7  and  C5_9 
REMARK       I    between atoms: N3_16  and  C9_17 
REMARK    6  A    between atoms: C9_17  and  C10_19 
REMARK    7  A    between atoms: C10_19  and  C11_20 
REMARK    8  A    between atoms: C11_20  and  N4_23 
ROOT
HETATM    1  N1  UNL     1      -4.736  10.427  21.814  1.00  0.00    -0.339 N 
ATOM      2  H1  UNL     1      -5.213  10.586  22.701  1.00  0.00     0.163 HD
HETATM    3  C4  UNL     1      -3.413  10.168  21.990  1.00  0.00     0.269 C 
HETATM    4  O1  UNL     1      -2.572   9.935  21.117  1.00  0.00    -0.269 OA
ENDROOT
BRANCH   3   5
HETATM    5  C5  UNL     1      -2.825  10.143  23.391  1.00  0.00     0.382 C 
HETATM    6  N2  UNL     1      -1.419   9.671  23.314  1.00  0.00    -0.039 N 
HETATM    7  C6  UNL     1      -0.862  10.489  24.344  1.00  0.00     0.213 A 
ATOM      8  H22 UNL     1      -1.273   8.666  23.405  1.00  0.00     0.280 HD
ATOM      9  H21 UNL     1      -0.972   9.726  22.399  1.00  0.00     0.280 HD
HETATM   10  C7  UNL     1      -0.171  11.709  24.384  1.00  0.00     0.062 A 
HETATM   11  C8  UNL     1      -1.342  11.810  23.627  1.00  0.00     0.122 A 
HETATM   12  N3  UNL     1      -2.722  11.510  23.887  1.00  0.00    -0.309 N 
HETATM   13  C9  UNL     1      -3.723  12.310  24.475  1.00  0.00     0.224 C 
HETATM   14  O2  UNL     1      -4.872  11.853  24.624  1.00  0.00    -0.273 OA
BRANCH  13  15
HETATM   15  C10 UNL     1      -3.372  13.693  24.906  1.00  0.00     0.140 C 
BRANCH  15  16
HETATM   16  C11 UNL     1      -4.297  14.744  24.365  1.00  0.00     0.124 C 
HETATM   17  C12 UNL     1      -4.383  14.788  22.872  1.00  0.00     0.046 C 
HETATM   18  C13 UNL     1      -3.742  16.083  24.842  1.00  0.00     0.046 C 
BRANCH  16  19
HETATM   19  N4  UNL     1      -5.605  14.599  24.983  1.00  0.00    -0.071 N 
ATOM     20  H43 UNL     1      -5.738  15.242  25.763  1.00  0.00     0.275 HD
ATOM     21  H42 UNL     1      -6.356  14.942  24.383  1.00  0.00     0.275 HD
ATOM     22  H41 UNL     1      -5.744  13.626  25.257  1.00  0.00     0.275 HD
ENDBRANCH  16  19
ENDBRANCH  15  16
ENDBRANCH  13  15
ENDBRANCH   3   5
BRANCH   1  23
HETATM   23  C3  UNL     1      -5.653  10.535  20.676  1.00  0.00     0.147 C 
BRANCH  23  24
HETATM   24  C2  UNL     1      -5.134  11.338  19.557  1.00  0.00     0.091 C 
HETATM   25  C1  UNL     1      -4.421  12.618  19.832  1.00  0.00     0.025 C 
HETATM   26 BR1  UNL     1      -6.573  11.921  18.332  1.00  0.00    -0.089 Br
ENDBRANCH  23  24
BRANCH  23  27
HETATM   27  C14 UNL     1      -5.761   9.072  20.238  1.00  0.00     0.024 C 
HETATM   28  C15 UNL     1      -4.884   8.936  19.026  1.00  0.00     0.008 C 
HETATM   29  C16 UNL     1      -5.568   8.390  17.815  1.00  0.00     0.009 C 
HETATM   30  C17 UNL     1      -6.346   7.127  18.136  1.00  0.00    -0.048 C 
HETATM   31  C18 UNL     1      -5.443   6.037  18.662  1.00  0.00     0.015 C 
HETATM   32  C19 UNL     1      -6.965   6.677  16.823  1.00  0.00     0.015 C 
HETATM   33  C20 UNL     1      -7.424   7.545  19.053  1.00  0.00     0.009 C 
HETATM   34  C21 UNL     1      -7.016   8.368  20.256  1.00  0.00     0.008 C 
ENDBRANCH  23  27
BRANCH  23  35
HETATM   35  C22 UNL     1      -6.953  10.959  21.278  1.00  0.00     0.414 C 
HETATM   36  F1  UNL     1      -7.433  10.226  22.312  1.00  0.00    -0.168 F 
HETATM   37  F2  UNL     1      -7.999  11.121  20.399  1.00  0.00    -0.168 F 
HETATM   38  F3  UNL     1      -6.756  12.251  21.812  1.00  0.00    -0.168 F 
ENDBRANCH  23  35
ENDBRANCH   1  23
TORSDOF 8
ENDMDL
MODEL 4
REMARK VINA RESULT: -8.046575046      2.184      2.517
REMARK  8 active torsions:
REMARK  status: ('A' for Active; 'I' for Inactive)
REMARK    1  A    between atoms: C2_2  and  C3_4 
REMARK    2  A    between atoms: C3_4  and  N1_5 
REMARK    3  A    between atoms: C3_4  and  C14_27 
REMARK    4  A    between atoms: C3_4  and  C22_35 
REMARK       I    between atoms: N1_5  and  C4_7 
REMARK    5  A    between atoms: C4_7  and  C5_9 
REMARK       I    between atoms: N3_16  and  C9_17 
REMARK    6  A    between atoms: C9_17  and  C10_19 
REMARK    7  A    between atoms: C10_19  and  C11_20 
REMARK    8  A    between atoms: C11_20  and  N4_23 
ROOT
HETATM    1  N1  UNL     1      -5.011  10.338  19.912  1.00  0.00    -0.339 N 
ATOM      2  H1  UNL     1      -4.762  10.370  20.901  1.00  0.00     0.163 HD
HETATM    3  C4  UNL     1      -4.055  10.908  19.131  1.00  0.00     0.269 C 
HETATM    4  O1  UNL     1      -4.061  11.024  17.903  1.00  0.00    -0.269 OA
ENDROOT
BRANCH   3   5
HETATM    5  C5  UNL     1      -2.804  11.490  19.767  1.00  0.00     0.382 C 
HETATM    6  N2  UNL     1      -2.107  12.340  18.769  1.00  0.00    -0.039 N 
HETATM    7  C6  UNL     1      -1.630  13.359  19.650  1.00  0.00     0.213 A 
ATOM      8  H22 UNL     1      -1.407  11.878  18.190  1.00  0.00     0.280 HD
ATOM      9  H21 UNL     1      -2.663  12.653  17.973  1.00  0.00     0.280 HD
HETATM   10  C7  UNL     1      -2.073  14.633  20.032  1.00  0.00     0.062 A 
HETATM   11  C8  UNL     1      -3.091  13.682  20.152  1.00  0.00     0.122 A 
HETATM   12  N3  UNL     1      -3.195  12.417  20.823  1.00  0.00    -0.309 N 
HETATM   13  C9  UNL     1      -3.566  12.130  22.152  1.00  0.00     0.224 C 
HETATM   14  O2  UNL     1      -3.582  10.950  22.549  1.00  0.00    -0.273 OA
BRANCH  13  15
HETATM   15  C10 UNL     1      -3.930  13.260  23.053  1.00  0.00     0.140 C 
BRANCH  15  16
HETATM   16  C11 UNL     1      -5.135  12.986  23.904  1.00  0.00     0.124 C 
HETATM   17  C12 UNL     1      -6.386  12.698  23.135  1.00  0.00     0.046 C 
HETATM   18  C13 UNL     1      -5.371  14.251  24.725  1.00  0.00     0.046 C 
BRANCH  16  19
HETATM   19  N4  UNL     1      -4.824  11.931  24.855  1.00  0.00    -0.071 N 
ATOM     20  H43 UNL     1      -5.299  12.064  25.748  1.00  0.00     0.275 HD
ATOM     21  H42 UNL     1      -5.248  11.040  24.597  1.00  0.00     0.275 HD
ATOM     22  H41 UNL     1      -3.812  11.861  24.963  1.00  0.00     0.275 HD
ENDBRANCH  16  19
ENDBRANCH  15  16
ENDBRANCH  13  15
ENDBRANCH   3   5
BRANCH   1  23
HETATM   23  C3  UNL     1      -6.307   9.690  19.698  1.00  0.00     0.147 C 
BRANCH  23  24
HETATM   24  C2  UNL     1      -7.325  10.561  19.088  1.00  0.00     0.091 C 
HETATM   25  C1  UNL     1      -7.176  12.042  19.168  1.00  0.00     0.025 C 
HETATM   26 BR1  UNL     1      -9.114  10.282  19.884  1.00  0.00    -0.089 Br
ENDBRANCH  23  24
BRANCH  23  27
HETATM   27  C14 UNL     1      -5.929   8.587  18.705  1.00  0.00     0.024 C 
HETATM   28  C15 UNL     1      -7.224   8.052  18.166  1.00  0.00     0.008 C 
HETATM   29  C16 UNL     1      -7.408   6.578  18.321  1.00  0.00     0.009 C 
HETATM   30  C17 UNL     1      -6.194   5.810  17.832  1.00  0.00    -0.048 C 
HETATM   31  C18 UNL     1      -5.925   6.069  16.368  1.00  0.00     0.015 C 
HETATM   32  C19 UNL     1      -6.527   4.340  18.028  1.00  0.00     0.015 C 
HETATM   33  C20 UNL     1      -5.096   6.177  18.746  1.00  0.00     0.009 C 
HETATM   34  C21 UNL     1      -4.866   7.655  18.979  1.00  0.00     0.008 C 
ENDBRANCH  23  27
BRANCH  23  35
HETATM   35  C22 UNL     1      -6.639   9.065  21.014  1.00  0.00     0.414 C 
HETATM   36  F1  UNL     1      -7.420   7.958  21.003  1.00  0.00    -0.168 F 
HETATM   37  F2  UNL     1      -7.173   9.907  21.962  1.00  0.00    -0.168 F 
HETATM   38  F3  UNL     1      -5.419   8.641  21.586  1.00  0.00    -0.168 F 
ENDBRANCH  23  35
ENDBRANCH   1  23
TORSDOF 8
ENDMDL
MODEL 5
REMARK VINA RESULT: -7.953700179      1.798      2.244
REMARK  8 active torsions:
REMARK  status: ('A' for Active; 'I' for Inactive)
REMARK    1  A    between atoms: C2_2  and  C3_4 
REMARK    2  A    between atoms: C3_4  and  N1_5 
REMARK    3  A    between atoms: C3_4  and  C14_27 
REMARK    4  A    between atoms: C3_4  and  C22_35 
REMARK       I    between atoms: N1_5  and  C4_7 
REMARK    5  A    between atoms: C4_7  and  C5_9 
REMARK       I    between atoms: N3_16  and  C9_17 
REMARK    6  A    between atoms: C9_17  and  C10_19 
REMARK    7  A    between atoms: C10_19  and  C11_20 
REMARK    8  A    between atoms: C11_20  and  N4_23 
ROOT
HETATM    1  N1  UNL     1      -4.772   9.690  20.479  1.00  0.00    -0.339 N 
ATOM      2  H1  UNL     1      -4.637   9.169  21.345  1.00  0.00     0.163 HD
HETATM    3  C4  UNL     1      -3.613  10.248  20.038  1.00  0.00     0.269 C 
HETATM    4  O1  UNL     1      -3.449  10.933  19.025  1.00  0.00    -0.269 OA
ENDROOT
BRANCH   3   5
HETATM    5  C5  UNL     1      -2.328  10.048  20.824  1.00  0.00     0.382 C 
HETATM    6  N2  UNL     1      -1.174  10.385  19.954  1.00  0.00    -0.039 N 
HETATM    7  C6  UNL     1      -0.325  10.973  20.941  1.00  0.00     0.213 A 
ATOM      8  H22 UNL     1      -0.776   9.619  19.412  1.00  0.00     0.280 HD
ATOM      9  H21 UNL     1      -1.377  10.956  19.133  1.00  0.00     0.280 HD
HETATM   10  C7  UNL     1      -0.046  12.280  21.366  1.00  0.00     0.062 A 
HETATM   11  C8  UNL     1      -1.423  12.038  21.327  1.00  0.00     0.122 A 
HETATM   12  N3  UNL     1      -2.272  11.031  21.899  1.00  0.00    -0.309 N 
HETATM   13  C9  UNL     1      -2.887  10.985  23.166  1.00  0.00     0.224 C 
HETATM   14  O2  UNL     1      -3.586  10.004  23.479  1.00  0.00    -0.273 OA
BRANCH  13  15
HETATM   15  C10 UNL     1      -2.681  12.126  24.104  1.00  0.00     0.140 C 
BRANCH  15  16
HETATM   16  C11 UNL     1      -3.917  12.943  24.339  1.00  0.00     0.124 C 
HETATM   17  C12 UNL     1      -4.322  13.803  23.183  1.00  0.00     0.046 C 
HETATM   18  C13 UNL     1      -3.602  13.860  25.518  1.00  0.00     0.046 C 
BRANCH  16  19
HETATM   19  N4  UNL     1      -4.996  12.071  24.774  1.00  0.00    -0.071 N 
ATOM     20  H43 UNL     1      -5.570  12.499  25.499  1.00  0.00     0.275 HD
ATOM     21  H42 UNL     1      -5.718  11.964  24.062  1.00  0.00     0.275 HD
ATOM     22  H41 UNL     1      -4.608  11.174  25.069  1.00  0.00     0.275 HD
ENDBRANCH  16  19
ENDBRANCH  15  16
ENDBRANCH  13  15
ENDBRANCH   3   5
BRANCH   1  23
HETATM   23  C3  UNL     1      -6.166   9.647  20.029  1.00  0.00     0.147 C 
BRANCH  23  24
HETATM   24  C2  UNL     1      -6.867  10.939  20.108  1.00  0.00     0.091 C 
HETATM   25  C1  UNL     1      -6.525  11.901  21.193  1.00  0.00     0.025 C 
HETATM   26 BR1  UNL     1      -8.816  10.712  20.355  1.00  0.00    -0.089 Br
ENDBRANCH  23  24
BRANCH  23  27
HETATM   27  C14 UNL     1      -5.993   9.256  18.559  1.00  0.00     0.024 C 
HETATM   28  C15 UNL     1      -7.091   9.958  17.812  1.00  0.00     0.008 C 
HETATM   29  C16 UNL     1      -7.964   9.064  16.993  1.00  0.00     0.009 C 
HETATM   30  C17 UNL     1      -7.144   8.134  16.118  1.00  0.00    -0.048 C 
HETATM   31  C18 UNL     1      -6.272   8.902  15.154  1.00  0.00     0.015 C 
HETATM   32  C19 UNL     1      -8.152   7.308  15.334  1.00  0.00     0.015 C 
HETATM   33  C20 UNL     1      -6.420   7.247  17.048  1.00  0.00     0.009 C 
HETATM   34  C21 UNL     1      -5.651   7.914  18.168  1.00  0.00     0.008 C 
ENDBRANCH  23  27
BRANCH  23  35
HETATM   35  C22 UNL     1      -6.766   8.496  20.770  1.00  0.00     0.414 C 
HETATM   36  F1  UNL     1      -7.472   7.589  20.052  1.00  0.00    -0.168 F 
HETATM   37  F2  UNL     1      -7.542   8.819  21.859  1.00  0.00    -0.168 F 
HETATM   38  F3  UNL     1      -5.694   7.761  21.324  1.00  0.00    -0.168 F 
ENDBRANCH  23  35
ENDBRANCH   1  23
TORSDOF 8
ENDMDL
