MODEL 1
REMARK VINA RESULT: -8.967908619      0.000      0.000
REMARK  9 active torsions:
REMARK  status: ('A' for Active; 'I' for Inactive)
REMARK    1  A    between atoms: C4_5  and  N2_6 
REMARK       I    between atoms: N2_6  and  C5_8 
REMARK    2  A    between atoms: C5_8  and  C6_10 
REMARK    3  A    between atoms: C6_10  and  N3_11 
REMARK    4  A    between atoms: C6_10  and  C10_22 
REMARK       I    between atoms: N3_11  and  C7_13 
REMARK    5  A    between atoms: C7_13  and  C8_15 
REMARK    6  A    between atoms: C8_15  and  C9_18 
REMARK    7  A    between atoms: N4_25  and  C13_26 
REMARK    8  A    between atoms: C13_26  and  N5_28 
REMARK    9  A    between atoms: N5_28  and  C14_30 
ROOT
HETATM    1  C6  UNL     1      -3.110  11.890  23.360  1.00  0.00     0.181 C 
ENDROOT
BRANCH   1   2
HETATM    2  C5  UNL     1      -3.908  13.020  23.878  1.00  0.00     0.241 C 
HETATM    3  N2  UNL     1      -3.731  14.382  23.533  1.00  0.00    -0.355 N 
ATOM      4  H2  UNL     1      -2.989  14.624  22.877  1.00  0.00     0.162 HD
HETATM    5  O1  UNL     1      -4.860  12.817  24.724  1.00  0.00    -0.271 OA
BRANCH   3   6
HETATM    6  C4  UNL     1      -4.561  15.457  24.071  1.00  0.00     0.087 C 
HETATM    7  C3  UNL     1      -5.639  15.695  23.059  1.00  0.00     0.055 C 
HETATM    8  C2  UNL     1      -6.489  16.861  23.416  1.00  0.00     0.274 C 
HETATM    9  N1  UNL     1      -5.855  17.844  24.239  1.00  0.00     0.084 N 
HETATM   10  C1  UNL     1      -6.214  17.758  25.627  1.00  0.00     0.309 C 
HETATM   11  C23 UNL     1      -4.439  17.975  24.006  1.00  0.00     0.274 C 
HETATM   12  C22 UNL     1      -3.689  16.691  24.138  1.00  0.00     0.055 C 
ENDBRANCH   3   6
ENDBRANCH   1   2
BRANCH   1  13
HETATM   13  N3  UNL     1      -3.075  10.818  24.388  1.00  0.00    -0.342 N 
HETATM   14  C7  UNL     1      -2.010  10.677  25.302  1.00  0.00     0.300 C 
HETATM   15  O2  UNL     1      -1.062  11.505  25.226  1.00  0.00    -0.266 OA
ATOM     16  H3  UNL     1      -3.851  10.157  24.434  1.00  0.00     0.163 HD
BRANCH  14  17
HETATM   17  C8  UNL     1      -1.962   9.629  26.317  1.00  0.00     0.417 C 
HETATM   18  F1  UNL     1      -3.103   8.812  26.242  1.00  0.00    -0.185 F 
HETATM   19  F2  UNL     1      -1.911  10.090  27.619  1.00  0.00    -0.185 F 
BRANCH  17  20
HETATM   20  C9  UNL     1      -0.801   8.675  26.130  1.00  0.00     0.464 C 
HETATM   21  F3  UNL     1       0.251   9.158  26.890  1.00  0.00    -0.165 F 
HETATM   22  F4  UNL     1      -1.101   7.420  26.653  1.00  0.00    -0.165 F 
HETATM   23  F5  UNL     1      -0.377   8.546  24.846  1.00  0.00    -0.165 F 
ENDBRANCH  17  20
ENDBRANCH  14  17
ENDBRANCH   1  13
BRANCH   1  24
HETATM   24  C10 UNL     1      -3.511  11.321  22.063  1.00  0.00     0.021 C 
HETATM   25  C11 UNL     1      -3.381  12.183  20.842  1.00  0.00     0.027 C 
HETATM   26  C12 UNL     1      -4.068  11.502  19.654  1.00  0.00     0.125 C 
HETATM   27  N4  UNL     1      -4.313  10.104  19.857  1.00  0.00    -0.358 N 
HETATM   28  C20 UNL     1      -3.443   9.281  20.641  1.00  0.00     0.125 C 
HETATM   29  C21 UNL     1      -2.771  10.045  21.764  1.00  0.00     0.027 C 
BRANCH  27  30
HETATM   30  C13 UNL     1      -5.445   9.510  19.243  1.00  0.00     0.170 C 
HETATM   31  S1  UNL     1      -6.897  10.278  19.494  1.00  0.00    -0.041 SA
BRANCH  30  32
HETATM   32  N5  UNL     1      -5.383   8.335  18.469  1.00  0.00    -0.363 N 
ATOM     33  H5  UNL     1      -4.480   7.926  18.230  1.00  0.00     0.162 HD
BRANCH  32  34
HETATM   34  C14 UNL     1      -6.630   7.701  18.007  1.00  0.00     0.083 C 
HETATM   35  C15 UNL     1      -6.863   6.527  18.932  1.00  0.00     0.025 C 
HETATM   36  C16 UNL     1      -5.883   5.441  18.462  1.00  0.00     0.002 C 
HETATM   37  C17 UNL     1      -6.532   4.878  17.215  1.00  0.00     0.000 C 
HETATM   38  C18 UNL     1      -6.941   5.921  16.240  1.00  0.00     0.002 C 
HETATM   39  C19 UNL     1      -6.553   7.318  16.571  1.00  0.00     0.025 C 
ENDBRANCH  32  34
ENDBRANCH  30  32
ENDBRANCH  27  30
ENDBRANCH   1  24
TORSDOF 9
ENDMDL
MODEL 2
REMARK VINA RESULT: -8.909670924      1.056      1.621
REMARK  9 active torsions:
REMARK  status: ('A' for Active; 'I' for Inactive)
REMARK    1  A    between atoms: C4_5  and  N2_6 
REMARK       I    between atoms: N2_6  and  C5_8 
REMARK    2  A    between atoms: C5_8  and  C6_10 
REMARK    3  A    between atoms: C6_10  and  N3_11 
REMARK    4  A    between atoms: C6_10  and  C10_22 
REMARK       I    between atoms: N3_11  and  C7_13 
REMARK    5  A    between atoms: C7_13  and  C8_15 
REMARK    6  A    between atoms: C8_15  and  C9_18 
REMARK    7  A    between atoms: N4_25  and  C13_26 
REMARK    8  A    between atoms: C13_26  and  N5_28 
REMARK    9  A    between atoms: N5_28  and  C14_30 
ROOT
HETATM    1  C6  UNL     1      -2.207  11.724  23.334  1.00  0.00     0.181 C 
ENDROOT
BRANCH   1   2
HETATM    2  C5  UNL     1      -2.978  12.736  24.085  1.00  0.00     0.241 C 
HETATM    3  N2  UNL     1      -3.927  13.628  23.533  1.00  0.00    -0.355 N 
ATOM      4  H2  UNL     1      -4.103  13.589  22.529  1.00  0.00     0.162 HD
HETATM    5  O1  UNL     1      -2.815  12.871  25.358  1.00  0.00    -0.271 OA
BRANCH   3   6
HETATM    6  C4  UNL     1      -4.669  14.602  24.330  1.00  0.00     0.087 C 
HETATM    7  C3  UNL     1      -5.986  13.963  24.645  1.00  0.00     0.055 C 
HETATM    8  C2  UNL     1      -6.903  14.898  25.349  1.00  0.00     0.274 C 
HETATM    9  N1  UNL     1      -6.662  16.285  25.100  1.00  0.00     0.084 N 
HETATM   10  C1  UNL     1      -5.944  16.948  26.153  1.00  0.00     0.309 C 
HETATM   11  C23 UNL     1      -6.156  16.562  23.779  1.00  0.00     0.274 C 
HETATM   12  C22 UNL     1      -4.920  15.798  23.439  1.00  0.00     0.055 C 
ENDBRANCH   3   6
ENDBRANCH   1   2
BRANCH   1  13
HETATM   13  N3  UNL     1      -1.938  10.566  24.225  1.00  0.00    -0.342 N 
HETATM   14  C7  UNL     1      -0.702  10.382  24.878  1.00  0.00     0.300 C 
HETATM   15  O2  UNL     1       0.196  11.245  24.683  1.00  0.00    -0.266 OA
ATOM     16  H3  UNL     1      -2.677   9.878  24.371  1.00  0.00     0.163 HD
BRANCH  14  17
HETATM   17  C8  UNL     1      -0.424   9.249  25.756  1.00  0.00     0.417 C 
HETATM   18  F1  UNL     1       0.781   9.444  26.452  1.00  0.00    -0.185 F 
HETATM   19  F2  UNL     1      -0.294   8.036  25.107  1.00  0.00    -0.185 F 
BRANCH  17  20
HETATM   20  C9  UNL     1      -1.465   9.072  26.842  1.00  0.00     0.464 C 
HETATM   21  F3  UNL     1      -0.832   8.475  27.919  1.00  0.00    -0.165 F 
HETATM   22  F4  UNL     1      -1.915  10.306  27.303  1.00  0.00    -0.165 F 
HETATM   23  F5  UNL     1      -2.525   8.301  26.488  1.00  0.00    -0.165 F 
ENDBRANCH  17  20
ENDBRANCH  14  17
ENDBRANCH   1  13
BRANCH   1  24
HETATM   24  C10 UNL     1      -2.779  11.250  22.063  1.00  0.00     0.021 C 
HETATM   25  C11 UNL     1      -2.836  12.210  20.911  1.00  0.00     0.027 C 
HETATM   26  C12 UNL     1      -3.673  11.607  19.778  1.00  0.00     0.125 C 
HETATM   27  N4  UNL     1      -3.865  10.191  19.897  1.00  0.00    -0.358 N 
HETATM   28  C20 UNL     1      -2.880   9.333  20.481  1.00  0.00     0.125 C 
HETATM   29  C21 UNL     1      -2.068  10.022  21.558  1.00  0.00     0.027 C 
BRANCH  27  30
HETATM   30  C13 UNL     1      -5.062   9.617  19.400  1.00  0.00     0.170 C 
HETATM   31  S1  UNL     1      -6.454  10.484  19.673  1.00  0.00    -0.041 SA
BRANCH  30  32
HETATM   32  N5  UNL     1      -5.111   8.384  18.721  1.00  0.00    -0.363 N 
ATOM     33  H5  UNL     1      -4.266   7.822  18.619  1.00  0.00     0.162 HD
BRANCH  32  34
HETATM   34  C14 UNL     1      -6.388   7.910  18.161  1.00  0.00     0.083 C 
HETATM   35  C15 UNL     1      -6.783   6.709  18.991  1.00  0.00     0.025 C 
HETATM   36  C16 UNL     1      -5.891   5.562  18.491  1.00  0.00     0.002 C 
HETATM   37  C17 UNL     1      -6.527   5.149  17.180  1.00  0.00     0.000 C 
HETATM   38  C18 UNL     1      -6.781   6.289  16.263  1.00  0.00     0.002 C 
HETATM   39  C19 UNL     1      -6.276   7.615  16.707  1.00  0.00     0.025 C 
ENDBRANCH  32  34
ENDBRANCH  30  32
ENDBRANCH  27  30
ENDBRANCH   1  24
TORSDOF 9
ENDMDL
MODEL 3
REMARK VINA RESULT: -8.835455860      1.528      2.314
REMARK  9 active torsions:
REMARK  status: ('A' for Active; 'I' for Inactive)
REMARK    1  A    between atoms: C4_5  and  N2_6 
REMARK       I    between atoms: N2_6  and  C5_8 
REMARK    2  A    between atoms: C5_8  and  C6_10 
REMARK    3  A    between atoms: C6_10  and  N3_11 
REMARK    4  A    between atoms: C6_10  and  C10_22 
REMARK       I    between atoms: N3_11  and  C7_13 
REMARK    5  A    between atoms: C7_13  and  C8_15 
REMARK    6  A    between atoms: C8_15  and  C9_18 
REMARK    7  A    between atoms: N4_25  and  C13_26 
REMARK    8  A    between atoms: C13_26  and  N5_28 
REMARK    9  A    between atoms: N5_28  and  C14_30 
ROOT
HETATM    1  C6  UNL     1      -3.235  11.913  21.970  1.00  0.00     0.181 C 
ENDROOT
BRANCH   1   2
HETATM    2  C5  UNL     1      -3.921  13.152  22.389  1.00  0.00     0.241 C 
HETATM    3  N2  UNL     1      -4.276  13.491  23.717  1.00  0.00    -0.355 N 
ATOM      4  H2  UNL     1      -4.052  12.831  24.462  1.00  0.00     0.162 HD
HETATM    5  O1  UNL     1      -4.257  14.041  21.517  1.00  0.00    -0.271 OA
BRANCH   3   6
HETATM    6  C4  UNL     1      -4.945  14.740  24.072  1.00  0.00     0.087 C 
HETATM    7  C3  UNL     1      -4.358  15.166  25.382  1.00  0.00     0.055 C 
HETATM    8  C2  UNL     1      -5.043  16.365  25.935  1.00  0.00     0.274 C 
HETATM    9  N1  UNL     1      -6.395  16.542  25.503  1.00  0.00     0.084 N 
HETATM   10  C1  UNL     1      -6.548  17.520  24.462  1.00  0.00     0.309 C 
HETATM   11  C23 UNL     1      -7.096  15.308  25.258  1.00  0.00     0.274 C 
HETATM   12  C22 UNL     1      -6.404  14.408  24.290  1.00  0.00     0.055 C 
ENDBRANCH   3   6
ENDBRANCH   1   2
BRANCH   1  13
HETATM   13  N3  UNL     1      -2.798  11.173  23.183  1.00  0.00    -0.342 N 
HETATM   14  C7  UNL     1      -1.440  11.026  23.534  1.00  0.00     0.300 C 
HETATM   15  O2  UNL     1      -0.580  11.550  22.775  1.00  0.00    -0.266 OA
ATOM     16  H3  UNL     1      -3.508  10.756  23.785  1.00  0.00     0.163 HD
BRANCH  14  17
HETATM   17  C8  UNL     1      -0.996  10.302  24.721  1.00  0.00     0.417 C 
HETATM   18  F1  UNL     1       0.207  10.839  25.210  1.00  0.00    -0.185 F 
HETATM   19  F2  UNL     1      -0.755   8.956  24.519  1.00  0.00    -0.185 F 
BRANCH  17  20
HETATM   20  C9  UNL     1      -1.962  10.418  25.882  1.00  0.00     0.464 C 
HETATM   21  F3  UNL     1      -3.065   9.640  25.574  1.00  0.00    -0.165 F 
HETATM   22  F4  UNL     1      -1.418   9.863  27.038  1.00  0.00    -0.165 F 
HETATM   23  F5  UNL     1      -2.388  11.682  26.138  1.00  0.00    -0.165 F 
ENDBRANCH  17  20
ENDBRANCH  14  17
ENDBRANCH   1  13
BRANCH   1  24
HETATM   24  C10 UNL     1      -3.972  11.006  21.075  1.00  0.00     0.021 C 
HETATM   25  C11 UNL     1      -3.366   9.667  20.770  1.00  0.00     0.027 C 
HETATM   26  C12 UNL     1      -4.156   8.987  19.647  1.00  0.00     0.125 C 
HETATM   27  N4  UNL     1      -5.453   9.559  19.430  1.00  0.00    -0.358 N 
HETATM   28  C20 UNL     1      -6.225  10.129  20.493  1.00  0.00     0.125 C 
HETATM   29  C21 UNL     1      -5.365  10.738  21.580  1.00  0.00     0.027 C 
BRANCH  27  30
HETATM   30  C13 UNL     1      -5.999   9.544  18.122  1.00  0.00     0.170 C 
HETATM   31  S1  UNL     1      -6.812  10.916  17.654  1.00  0.00    -0.041 SA
BRANCH  30  32
HETATM   32  N5  UNL     1      -5.889   8.446  17.246  1.00  0.00    -0.363 N 
ATOM     33  H5  UNL     1      -5.070   8.350  16.646  1.00  0.00     0.162 HD
BRANCH  32  34
HETATM   34  C14 UNL     1      -6.962   7.438  17.202  1.00  0.00     0.083 C 
HETATM   35  C15 UNL     1      -6.999   6.814  18.579  1.00  0.00     0.025 C 
HETATM   36  C16 UNL     1      -5.802   5.852  18.619  1.00  0.00     0.002 C 
HETATM   37  C17 UNL     1      -6.268   4.655  17.817  1.00  0.00     0.000 C 
HETATM   38  C18 UNL     1      -6.832   5.016  16.492  1.00  0.00     0.002 C 
HETATM   39  C19 UNL     1      -6.746   6.451  16.110  1.00  0.00     0.025 C 
ENDBRANCH  32  34
ENDBRANCH  30  32
ENDBRANCH  27  30
ENDBRANCH   1  24
TORSDOF 9
ENDMDL
MODEL 4
REMARK VINA RESULT: -8.765013041      0.917      1.312
REMARK  9 active torsions:
REMARK  status: ('A' for Active; 'I' for Inactive)
REMARK    1  A    between atoms: C4_5  and  N2_6 
REMARK       I    between atoms: N2_6  and  C5_8 
REMARK    2  A    between atoms: C5_8  and  C6_10 
REMARK    3  A    between atoms: C6_10  and  N3_11 
REMARK    4  A    between atoms: C6_10  and  C10_22 
REMARK       I    between atoms: N3_11  and  C7_13 
REMARK    5  A    between atoms: C7_13  and  C8_15 
REMARK    6  A    between atoms: C8_15  and  C9_18 
REMARK    7  A    between atoms: N4_25  and  C13_26 
REMARK    8  A    between atoms: C13_26  and  N5_28 
REMARK    9  A    between atoms: N5_28  and  C14_30 
ROOT
HETATM    1  C6  UNL     1      -3.441  11.913  22.586  1.00  0.00     0.181 C 
ENDROOT
BRANCH   1   2
HETATM    2  C5  UNL     1      -4.275  13.071  22.969  1.00  0.00     0.241 C 
HETATM    3  N2  UNL     1      -3.805  14.270  23.556  1.00  0.00    -0.355 N 
ATOM      4  H2  UNL     1      -2.806  14.358  23.743  1.00  0.00     0.162 HD
HETATM    5  O1  UNL     1      -5.552  13.048  22.784  1.00  0.00    -0.271 OA
BRANCH   3   6
HETATM    6  C4  UNL     1      -4.679  15.387  23.904  1.00  0.00     0.087 C 
HETATM    7  C3  UNL     1      -3.861  16.627  23.715  1.00  0.00     0.055 C 
HETATM    8  C2  UNL     1      -4.587  17.846  24.160  1.00  0.00     0.274 C 
HETATM    9  N1  UNL     1      -5.588  17.623  25.157  1.00  0.00     0.084 N 
HETATM   10  C1  UNL     1      -6.927  17.591  24.638  1.00  0.00     0.309 C 
HETATM   11  C23 UNL     1      -5.283  16.544  26.061  1.00  0.00     0.274 C 
HETATM   12  C22 UNL     1      -5.002  15.249  25.374  1.00  0.00     0.055 C 
ENDBRANCH   3   6
ENDBRANCH   1   2
BRANCH   1  13
HETATM   13  N3  UNL     1      -3.336  10.993  23.748  1.00  0.00    -0.342 N 
HETATM   14  C7  UNL     1      -2.315  11.103  24.715  1.00  0.00     0.300 C 
HETATM   15  O2  UNL     1      -1.469  12.027  24.567  1.00  0.00    -0.266 OA
ATOM     16  H3  UNL     1      -4.030  10.251  23.850  1.00  0.00     0.163 HD
BRANCH  14  17
HETATM   17  C8  UNL     1      -2.200  10.206  25.860  1.00  0.00     0.417 C 
HETATM   18  F1  UNL     1      -3.334   9.383  25.963  1.00  0.00    -0.185 F 
HETATM   19  F2  UNL     1      -2.083  10.843  27.081  1.00  0.00    -0.185 F 
BRANCH  17  20
HETATM   20  C9  UNL     1      -1.040   9.239  25.742  1.00  0.00     0.464 C 
HETATM   21  F3  UNL     1      -1.459   8.033  26.276  1.00  0.00    -0.165 F 
HETATM   22  F4  UNL     1      -0.744   8.981  24.406  1.00  0.00    -0.165 F 
HETATM   23  F5  UNL     1       0.087   9.627  26.393  1.00  0.00    -0.165 F 
ENDBRANCH  17  20
ENDBRANCH  14  17
ENDBRANCH   1  13
BRANCH   1  24
HETATM   24  C10 UNL     1      -3.847  11.158  21.390  1.00  0.00     0.021 C 
HETATM   25  C11 UNL     1      -3.085  11.387  20.118  1.00  0.00     0.027 C 
HETATM   26  C12 UNL     1      -3.807  10.700  18.953  1.00  0.00     0.125 C 
HETATM   27  N4  UNL     1      -4.764   9.718  19.371  1.00  0.00    -0.358 N 
HETATM   28  C20 UNL     1      -4.589   8.935  20.556  1.00  0.00     0.125 C 
HETATM   29  C21 UNL     1      -3.826   9.673  21.637  1.00  0.00     0.027 C 
BRANCH  27  30
HETATM   30  C13 UNL     1      -5.915   9.499  18.572  1.00  0.00     0.170 C 
HETATM   31  S1  UNL     1      -7.251  10.411  18.953  1.00  0.00    -0.041 SA
BRANCH  30  32
HETATM   32  N5  UNL     1      -5.964   8.566  17.517  1.00  0.00    -0.363 N 
ATOM     33  H5  UNL     1      -5.265   8.595  16.775  1.00  0.00     0.162 HD
BRANCH  32  34
HETATM   34  C14 UNL     1      -7.030   7.549  17.493  1.00  0.00     0.083 C 
HETATM   35  C15 UNL     1      -6.911   6.796  18.798  1.00  0.00     0.025 C 
HETATM   36  C16 UNL     1      -5.712   5.854  18.614  1.00  0.00     0.002 C 
HETATM   37  C17 UNL     1      -6.257   4.732  17.755  1.00  0.00     0.000 C 
HETATM   38  C18 UNL     1      -6.965   5.210  16.541  1.00  0.00     0.002 C 
HETATM   39  C19 UNL     1      -6.929   6.675  16.293  1.00  0.00     0.025 C 
ENDBRANCH  32  34
ENDBRANCH  30  32
ENDBRANCH  27  30
ENDBRANCH   1  24
TORSDOF 9
ENDMDL
MODEL 5
REMARK VINA RESULT: -8.750324894      3.523      4.607
REMARK  9 active torsions:
REMARK  status: ('A' for Active; 'I' for Inactive)
REMARK    1  A    between atoms: C4_5  and  N2_6 
REMARK       I    between atoms: N2_6  and  C5_8 
REMARK    2  A    between atoms: C5_8  and  C6_10 
REMARK    3  A    between atoms: C6_10  and  N3_11 
REMARK    4  A    between atoms: C6_10  and  C10_22 
REMARK       I    between atoms: N3_11  and  C7_13 
REMARK    5  A    between atoms: C7_13  and  C8_15 
REMARK    6  A    between atoms: C8_15  and  C9_18 
REMARK    7  A    between atoms: N4_25  and  C13_26 
REMARK    8  A    between atoms: C13_26  and  N5_28 
REMARK    9  A    between atoms: N5_28  and  C14_30 
ROOT
HETATM    1  C6  UNL     1      -1.963  11.864  20.131  1.00  0.00     0.181 C 
ENDROOT
BRANCH   1   2
HETATM    2  C5  UNL     1      -1.799  13.194  19.509  1.00  0.00     0.241 C 
HETATM    3  N2  UNL     1      -2.012  13.498  18.144  1.00  0.00    -0.355 N 
ATOM      4  H2  UNL     1      -2.297  12.745  17.518  1.00  0.00     0.162 HD
HETATM    5  O1  UNL     1      -1.427  14.207  20.217  1.00  0.00    -0.271 OA
BRANCH   3   6
HETATM    6  C4  UNL     1      -1.844  14.838  17.587  1.00  0.00     0.087 C 
HETATM    7  C3  UNL     1      -3.224  15.401  17.438  1.00  0.00     0.055 C 
HETATM    8  C2  UNL     1      -3.216  16.721  16.755  1.00  0.00     0.274 C 
HETATM    9  N1  UNL     1      -2.099  16.949  15.890  1.00  0.00     0.084 N 
HETATM   10  C1  UNL     1      -1.075  17.772  16.470  1.00  0.00     0.309 C 
HETATM   11  C23 UNL     1      -1.603  15.757  15.251  1.00  0.00     0.274 C 
HETATM   12  C22 UNL     1      -1.247  14.668  16.208  1.00  0.00     0.055 C 
ENDBRANCH   3   6
ENDBRANCH   1   2
BRANCH   1  13
HETATM   13  N3  UNL     1      -1.882  12.012  21.608  1.00  0.00    -0.342 N 
HETATM   14  C7  UNL     1      -0.955  11.296  22.393  1.00  0.00     0.300 C 
HETATM   15  O2  UNL     1      -0.175  10.504  21.798  1.00  0.00    -0.266 OA
ATOM     16  H3  UNL     1      -2.521  12.658  22.072  1.00  0.00     0.163 HD
BRANCH  14  17
HETATM   17  C8  UNL     1      -0.865  11.431  23.844  1.00  0.00     0.417 C 
HETATM   18  F1  UNL     1      -1.665  12.495  24.294  1.00  0.00    -0.185 F 
HETATM   19  F2  UNL     1       0.407  11.686  24.320  1.00  0.00    -0.185 F 
BRANCH  17  20
HETATM   20  C9  UNL     1      -1.391  10.221  24.587  1.00  0.00     0.464 C 
HETATM   21  F3  UNL     1      -1.579  10.600  25.904  1.00  0.00    -0.165 F 
HETATM   22  F4  UNL     1      -2.650   9.858  24.114  1.00  0.00    -0.165 F 
HETATM   23  F5  UNL     1      -0.566   9.142  24.565  1.00  0.00    -0.165 F 
ENDBRANCH  17  20
ENDBRANCH  14  17
ENDBRANCH   1  13
BRANCH   1  24
HETATM   24  C10 UNL     1      -3.168  11.098  19.775  1.00  0.00     0.021 C 
HETATM   25  C11 UNL     1      -3.268   9.678  20.248  1.00  0.00     0.027 C 
HETATM   26  C12 UNL     1      -4.464   8.994  19.577  1.00  0.00     0.125 C 
HETATM   27  N4  UNL     1      -5.400   9.913  18.998  1.00  0.00    -0.358 N 
HETATM   28  C20 UNL     1      -5.643  11.209  19.554  1.00  0.00     0.125 C 
HETATM   29  C21 UNL     1      -4.422  11.790  20.237  1.00  0.00     0.027 C 
BRANCH  27  30
HETATM   30  C13 UNL     1      -6.126   9.517  17.846  1.00  0.00     0.170 C 
HETATM   31  S1  UNL     1      -7.282  10.584  17.310  1.00  0.00    -0.041 SA
BRANCH  30  32
HETATM   32  N5  UNL     1      -5.914   8.298  17.174  1.00  0.00    -0.363 N 
ATOM     33  H5  UNL     1      -5.031   8.123  16.695  1.00  0.00     0.162 HD
BRANCH  32  34
HETATM   34  C14 UNL     1      -6.976   7.276  17.167  1.00  0.00     0.083 C 
HETATM   35  C15 UNL     1      -7.001   6.699  18.564  1.00  0.00     0.025 C 
HETATM   36  C16 UNL     1      -5.793   5.752  18.634  1.00  0.00     0.002 C 
HETATM   37  C17 UNL     1      -6.248   4.524  17.873  1.00  0.00     0.000 C 
HETATM   38  C18 UNL     1      -6.819   4.833  16.539  1.00  0.00     0.002 C 
HETATM   39  C19 UNL     1      -6.750   6.255  16.108  1.00  0.00     0.025 C 
ENDBRANCH  32  34
ENDBRANCH  30  32
ENDBRANCH  27  30
ENDBRANCH   1  24
TORSDOF 9
ENDMDL
