MODEL 1
REMARK VINA RESULT: -8.060103377      0.000      0.000
REMARK  11 active torsions:
REMARK  status: ('A' for Active; 'I' for Inactive)
REMARK    1  A    between atoms: C2_3  and  N2_4 
REMARK    2  A    between atoms: N2_4  and  C3_6 
REMARK    3  A    between atoms: C3_6  and  O1_7 
REMARK    4  A    between atoms: C3_6  and  C4_9 
REMARK       I    between atoms: C4_9  and  N3_11 
REMARK    5  A    between atoms: N3_11  and  C5_13 
REMARK    6  A    between atoms: C5_13  and  C6_14 
REMARK    7  A    between atoms: C6_14  and  N4_15 
REMARK    8  A    between atoms: C15_30  and  N7_31 
REMARK    9  A    between atoms: N7_31  and  C16_33 
REMARK   10  A    between atoms: C19_36  and  C20_37 
REMARK   11  A    between atoms: C20_37  and  C23_40 
ROOT
HETATM    1  C1  UNL     1      -3.165  14.635  20.374  1.00  0.00     0.175 C 
HETATM    2  N1  UNL     1      -2.677  13.315  20.206  1.00  0.00    -0.185 N 
HETATM    3  C2  UNL     1      -1.916  12.940  19.098  1.00  0.00     0.683 A 
HETATM    4  N5  UNL     1      -1.427  11.727  19.281  1.00  0.00    -0.188 N 
ATOM      5  H5  UNL     1      -0.835  11.219  18.624  1.00  0.00     0.184 HD
HETATM    6  C13 UNL     1      -1.840  11.276  20.475  1.00  0.00     0.092 A 
HETATM    7  C14 UNL     1      -1.506  10.126  21.157  1.00  0.00     0.122 A 
HETATM    8  N6  UNL     1      -1.954   9.966  22.392  1.00  0.00    -0.350 N 
ATOM      9  H6  UNL     1      -1.705   9.120  22.905  1.00  0.00     0.166 HD
HETATM   10  C15 UNL     1      -2.743  10.909  22.996  1.00  0.00     0.111 A 
HETATM   11  C19 UNL     1      -3.137  12.079  22.391  1.00  0.00     0.032 A 
HETATM   12  C24 UNL     1      -2.641  12.282  21.055  1.00  0.00     0.091 A 
ENDROOT
BRANCH   3  13
HETATM   13  N2  UNL     1      -1.801  13.747  18.114  1.00  0.00    -0.190 N 
ATOM     14  H2  UNL     1      -1.496  14.698  18.322  1.00  0.00     0.181 HD
BRANCH  13  15
HETATM   15  C3  UNL     1      -2.065  13.428  16.745  1.00  0.00     0.327 C 
BRANCH  15  16
HETATM   16  O1  UNL     1      -1.141  12.594  16.168  1.00  0.00    -0.368 OA
ATOM     17  H1  UNL     1      -0.675  12.973  15.432  1.00  0.00     0.212 HD
ENDBRANCH  15  16
BRANCH  15  18
HETATM   18  C4  UNL     1      -3.452  12.903  16.658  1.00  0.00     0.267 C 
HETATM   19  O2  UNL     1      -4.429  13.674  16.721  1.00  0.00    -0.269 OA
HETATM   20  N3  UNL     1      -3.649  11.520  16.503  1.00  0.00    -0.356 N 
ATOM     21  H3  UNL     1      -2.839  10.903  16.462  1.00  0.00     0.162 HD
BRANCH  20  22
HETATM   22  C5  UNL     1      -4.959  10.959  16.403  1.00  0.00     0.150 C 
BRANCH  22  23
HETATM   23  C6  UNL     1      -5.501  10.548  17.727  1.00  0.00     0.256 C 
BRANCH  23  24
HETATM   24  N4  UNL     1      -6.408   9.457  17.752  1.00  0.00    -0.069 N 
HETATM   25  C7  UNL     1      -7.749   9.908  17.448  1.00  0.00     0.272 C 
HETATM   26  C8  UNL     1      -5.998   8.390  16.891  1.00  0.00     0.243 C 
HETATM   27  C9  UNL     1      -6.717   7.091  17.313  1.00  0.00     0.107 C 
HETATM   28  C10 UNL     1      -6.202   6.632  18.657  1.00  0.00     0.246 C 
HETATM   29  F1  UNL     1      -5.286   5.618  18.538  1.00  0.00    -0.206 F 
HETATM   30  F2  UNL     1      -7.259   6.279  19.486  1.00  0.00    -0.206 F 
HETATM   31  C11 UNL     1      -5.526   7.821  19.308  1.00  0.00     0.107 C 
HETATM   32  C12 UNL     1      -6.451   9.001  19.156  1.00  0.00     0.243 C 
ENDBRANCH  23  24
ENDBRANCH  22  23
ENDBRANCH  20  22
ENDBRANCH  15  18
ENDBRANCH  13  15
ENDBRANCH   3  13
BRANCH  11  33
HETATM   33  C20 UNL     1      -4.019  13.114  22.931  1.00  0.00     0.083 C 
HETATM   34  C21 UNL     1      -3.786  13.726  24.245  1.00  0.00     0.029 C 
HETATM   35  C22 UNL     1      -4.981  13.753  21.942  1.00  0.00     0.029 C 
BRANCH  33  36
HETATM   36  C23 UNL     1      -5.250  12.196  23.540  1.00  0.00     0.399 C 
HETATM   37  F3  UNL     1      -5.751  11.390  22.657  1.00  0.00    -0.170 F 
HETATM   38  F4  UNL     1      -6.333  13.240  23.610  1.00  0.00    -0.170 F 
HETATM   39  F5  UNL     1      -5.236  12.102  24.864  1.00  0.00    -0.170 F 
ENDBRANCH  33  36
ENDBRANCH  11  33
BRANCH  10  40
HETATM   40  N7  UNL     1      -3.045  10.708  24.211  1.00  0.00    -0.371 N 
ATOM     41  H7  UNL     1      -4.009  10.516  24.484  1.00  0.00     0.161 HD
BRANCH  40  42
HETATM   42  C16 UNL     1      -1.980  10.756  25.215  1.00  0.00     0.083 A 
HETATM   43  C17 UNL     1      -1.512   9.412  25.711  1.00  0.00     0.027 A 
HETATM   44  C18 UNL     1      -2.328  10.319  26.586  1.00  0.00     0.027 A 
ENDBRANCH  40  42
ENDBRANCH  10  40
TORSDOF 11
ENDMDL
MODEL 2
REMARK VINA RESULT: -7.876071254      2.279      7.368
REMARK  11 active torsions:
REMARK  status: ('A' for Active; 'I' for Inactive)
REMARK    1  A    between atoms: C2_3  and  N2_4 
REMARK    2  A    between atoms: N2_4  and  C3_6 
REMARK    3  A    between atoms: C3_6  and  O1_7 
REMARK    4  A    between atoms: C3_6  and  C4_9 
REMARK       I    between atoms: C4_9  and  N3_11 
REMARK    5  A    between atoms: N3_11  and  C5_13 
REMARK    6  A    between atoms: C5_13  and  C6_14 
REMARK    7  A    between atoms: C6_14  and  N4_15 
REMARK    8  A    between atoms: C15_30  and  N7_31 
REMARK    9  A    between atoms: N7_31  and  C16_33 
REMARK   10  A    between atoms: C19_36  and  C20_37 
REMARK   11  A    between atoms: C20_37  and  C23_40 
ROOT
HETATM    1  C1  UNL     1      -3.179  10.160  20.031  1.00  0.00     0.175 C 
HETATM    2  N1  UNL     1      -3.872  10.863  19.014  1.00  0.00    -0.185 N 
HETATM    3  C2  UNL     1      -3.418  12.084  18.514  1.00  0.00     0.683 A 
HETATM    4  N5  UNL     1      -4.127  12.424  17.453  1.00  0.00    -0.188 N 
ATOM      5  H5  UNL     1      -3.998  13.270  16.897  1.00  0.00     0.184 HD
HETATM    6  C13 UNL     1      -5.044  11.470  17.228  1.00  0.00     0.092 A 
HETATM    7  C14 UNL     1      -5.931  11.316  16.185  1.00  0.00     0.122 A 
HETATM    8  N6  UNL     1      -6.654  10.209  16.125  1.00  0.00    -0.350 N 
ATOM      9  H6  UNL     1      -7.309  10.084  15.352  1.00  0.00     0.166 HD
HETATM   10  C15 UNL     1      -6.546   9.229  17.075  1.00  0.00     0.111 A 
HETATM   11  C19 UNL     1      -5.698   9.301  18.156  1.00  0.00     0.032 A 
HETATM   12  C24 UNL     1      -4.886  10.487  18.227  1.00  0.00     0.091 A 
ENDROOT
BRANCH   3  13
HETATM   13  N2  UNL     1      -2.456  12.684  19.102  1.00  0.00    -0.190 N 
ATOM     14  H2  UNL     1      -1.538  12.238  19.073  1.00  0.00     0.181 HD
BRANCH  13  15
HETATM   15  C3  UNL     1      -2.556  13.929  19.798  1.00  0.00     0.327 C 
BRANCH  15  16
HETATM   16  O1  UNL     1      -3.031  14.968  19.038  1.00  0.00    -0.368 OA
ATOM     17  H1  UNL     1      -2.357  15.489  18.618  1.00  0.00     0.212 HD
ENDBRANCH  15  16
BRANCH  15  18
HETATM   18  C4  UNL     1      -3.355  13.701  21.029  1.00  0.00     0.267 C 
HETATM   19  O2  UNL     1      -4.454  14.266  21.188  1.00  0.00    -0.269 OA
HETATM   20  N3  UNL     1      -2.854  12.835  22.017  1.00  0.00    -0.356 N 
ATOM     21  H3  UNL     1      -1.950  12.387  21.874  1.00  0.00     0.162 HD
BRANCH  20  22
HETATM   22  C5  UNL     1      -3.582  12.568  23.216  1.00  0.00     0.150 C 
BRANCH  22  23
HETATM   23  C6  UNL     1      -3.331  11.197  23.737  1.00  0.00     0.256 C 
BRANCH  23  24
HETATM   24  N4  UNL     1      -2.537  11.078  24.907  1.00  0.00    -0.069 N 
HETATM   25  C7  UNL     1      -2.524  12.326  25.639  1.00  0.00     0.272 C 
HETATM   26  C8  UNL     1      -2.946   9.983  25.733  1.00  0.00     0.243 C 
HETATM   27  C9  UNL     1      -1.796   9.610  26.692  1.00  0.00     0.107 C 
HETATM   28  C10 UNL     1      -0.651   9.010  25.911  1.00  0.00     0.246 C 
HETATM   29  F1  UNL     1      -0.634   7.641  25.992  1.00  0.00    -0.206 F 
HETATM   30  F2  UNL     1       0.556   9.566  26.315  1.00  0.00    -0.206 F 
HETATM   31  C11 UNL     1      -0.840   9.406  24.461  1.00  0.00     0.107 C 
HETATM   32  C12 UNL     1      -1.152  10.879  24.436  1.00  0.00     0.243 C 
ENDBRANCH  23  24
ENDBRANCH  22  23
ENDBRANCH  20  22
ENDBRANCH  15  18
ENDBRANCH  13  15
ENDBRANCH   3  13
BRANCH  11  33
HETATM   33  C20 UNL     1      -5.554   8.336  19.247  1.00  0.00     0.083 C 
HETATM   34  C21 UNL     1      -5.160   6.942  19.006  1.00  0.00     0.029 C 
HETATM   35  C22 UNL     1      -5.507   8.920  20.650  1.00  0.00     0.029 C 
BRANCH  33  36
HETATM   36  C23 UNL     1      -7.126   7.887  19.483  1.00  0.00     0.399 C 
HETATM   37  F3  UNL     1      -7.940   8.894  19.448  1.00  0.00    -0.170 F 
HETATM   38  F4  UNL     1      -7.089   7.610  20.964  1.00  0.00    -0.170 F 
HETATM   39  F5  UNL     1      -7.352   6.602  19.237  1.00  0.00    -0.170 F 
ENDBRANCH  33  36
ENDBRANCH  11  33
BRANCH  10  40
HETATM   40  N7  UNL     1      -7.212   8.168  16.881  1.00  0.00    -0.371 N 
ATOM     41  H7  UNL     1      -7.985   7.917  17.497  1.00  0.00     0.161 HD
BRANCH  40  42
HETATM   42  C16 UNL     1      -6.848   7.309  15.752  1.00  0.00     0.083 A 
HETATM   43  C17 UNL     1      -7.950   6.408  15.257  1.00  0.00     0.027 A 
HETATM   44  C18 UNL     1      -6.777   5.853  16.011  1.00  0.00     0.027 A 
ENDBRANCH  40  42
ENDBRANCH  10  40
TORSDOF 11
ENDMDL
MODEL 3
REMARK VINA RESULT: -7.638440220      3.928      7.844
REMARK  11 active torsions:
REMARK  status: ('A' for Active; 'I' for Inactive)
REMARK    1  A    between atoms: C2_3  and  N2_4 
REMARK    2  A    between atoms: N2_4  and  C3_6 
REMARK    3  A    between atoms: C3_6  and  O1_7 
REMARK    4  A    between atoms: C3_6  and  C4_9 
REMARK       I    between atoms: C4_9  and  N3_11 
REMARK    5  A    between atoms: N3_11  and  C5_13 
REMARK    6  A    between atoms: C5_13  and  C6_14 
REMARK    7  A    between atoms: C6_14  and  N4_15 
REMARK    8  A    between atoms: C15_30  and  N7_31 
REMARK    9  A    between atoms: N7_31  and  C16_33 
REMARK   10  A    between atoms: C19_36  and  C20_37 
REMARK   11  A    between atoms: C20_37  and  C23_40 
ROOT
HETATM    1  C1  UNL     1      -6.439  13.416  19.937  1.00  0.00     0.175 C 
HETATM    2  N1  UNL     1      -7.240  12.569  20.742  1.00  0.00    -0.185 N 
HETATM    3  C2  UNL     1      -8.372  13.034  21.413  1.00  0.00     0.683 A 
HETATM    4  N5  UNL     1      -9.041  12.016  21.923  1.00  0.00    -0.188 N 
ATOM      5  H5  UNL     1      -9.907  12.081  22.458  1.00  0.00     0.184 HD
HETATM    6  C13 UNL     1      -8.391  10.882  21.617  1.00  0.00     0.092 A 
HETATM    7  C14 UNL     1      -8.747   9.567  21.824  1.00  0.00     0.122 A 
HETATM    8  N6  UNL     1      -7.986   8.615  21.311  1.00  0.00    -0.350 N 
ATOM      9  H6  UNL     1      -8.247   7.639  21.454  1.00  0.00     0.166 HD
HETATM   10  C15 UNL     1      -6.857   8.907  20.593  1.00  0.00     0.111 A 
HETATM   11  C19 UNL     1      -6.416  10.186  20.346  1.00  0.00     0.032 A 
HETATM   12  C24 UNL     1      -7.243  11.238  20.877  1.00  0.00     0.091 A 
ENDROOT
BRANCH   3  13
HETATM   13  N2  UNL     1      -8.601  14.291  21.459  1.00  0.00    -0.190 N 
ATOM     14  H2  UNL     1      -8.156  14.874  20.750  1.00  0.00     0.181 HD
BRANCH  13  15
HETATM   15  C3  UNL     1      -9.430  14.947  22.422  1.00  0.00     0.327 C 
BRANCH  15  16
HETATM   16  O1  UNL     1     -10.695  14.429  22.530  1.00  0.00    -0.368 OA
ATOM     17  H1  UNL     1     -11.002  14.323  23.423  1.00  0.00     0.212 HD
ENDBRANCH  15  16
BRANCH  15  18
HETATM   18  C4  UNL     1      -8.700  14.966  23.715  1.00  0.00     0.267 C 
HETATM   19  O2  UNL     1      -8.745  13.988  24.486  1.00  0.00    -0.269 OA
HETATM   20  N3  UNL     1      -7.953  16.106  24.061  1.00  0.00    -0.356 N 
ATOM     21  H3  UNL     1      -7.933  16.900  23.422  1.00  0.00     0.162 HD
BRANCH  20  22
HETATM   22  C5  UNL     1      -7.222  16.177  25.285  1.00  0.00     0.150 C 
BRANCH  22  23
HETATM   23  C6  UNL     1      -5.785  16.500  25.068  1.00  0.00     0.256 C 
BRANCH  23  24
HETATM   24  N4  UNL     1      -4.848  15.445  25.216  1.00  0.00    -0.069 N 
HETATM   25  C7  UNL     1      -3.764  15.849  26.086  1.00  0.00     0.272 C 
HETATM   26  C8  UNL     1      -5.462  14.232  25.661  1.00  0.00     0.243 C 
HETATM   27  C9  UNL     1      -4.532  13.042  25.342  1.00  0.00     0.107 C 
HETATM   28  C10 UNL     1      -4.459  12.834  23.847  1.00  0.00     0.246 C 
HETATM   29  F1  UNL     1      -5.265  11.804  23.432  1.00  0.00    -0.206 F 
HETATM   30  F2  UNL     1      -3.142  12.654  23.446  1.00  0.00    -0.206 F 
HETATM   31  C11 UNL     1      -4.936  14.114  23.192  1.00  0.00     0.107 C 
HETATM   32  C12 UNL     1      -4.239  15.257  23.884  1.00  0.00     0.243 C 
ENDBRANCH  23  24
ENDBRANCH  22  23
ENDBRANCH  20  22
ENDBRANCH  15  18
ENDBRANCH  13  15
ENDBRANCH   3  13
BRANCH  11  33
HETATM   33  C20 UNL     1      -5.199  10.595  19.644  1.00  0.00     0.083 C 
HETATM   34  C21 UNL     1      -4.920  10.175  18.264  1.00  0.00     0.029 C 
HETATM   35  C22 UNL     1      -4.411  11.728  20.280  1.00  0.00     0.029 C 
BRANCH  33  36
HETATM   36  C23 UNL     1      -4.110   9.502  20.232  1.00  0.00     0.399 C 
HETATM   37  F3  UNL     1      -4.017   9.542  21.524  1.00  0.00    -0.170 F 
HETATM   38  F4  UNL     1      -2.828  10.187  19.839  1.00  0.00    -0.170 F 
HETATM   39  F5  UNL     1      -3.851   8.507  19.392  1.00  0.00    -0.170 F 
ENDBRANCH  33  36
ENDBRANCH  11  33
BRANCH  10  40
HETATM   40  N7  UNL     1      -6.245   7.929  20.065  1.00  0.00    -0.371 N 
ATOM     41  H7  UNL     1      -5.243   7.804  20.206  1.00  0.00     0.161 HD
BRANCH  40  42
HETATM   42  C16 UNL     1      -7.010   6.984  19.248  1.00  0.00     0.083 A 
HETATM   43  C17 UNL     1      -6.190   5.903  18.593  1.00  0.00     0.027 A 
HETATM   44  C18 UNL     1      -6.781   7.022  17.786  1.00  0.00     0.027 A 
ENDBRANCH  40  42
ENDBRANCH  10  40
TORSDOF 11
ENDMDL
MODEL 4
REMARK VINA RESULT: -7.607627270      1.108      1.321
REMARK  11 active torsions:
REMARK  status: ('A' for Active; 'I' for Inactive)
REMARK    1  A    between atoms: C2_3  and  N2_4 
REMARK    2  A    between atoms: N2_4  and  C3_6 
REMARK    3  A    between atoms: C3_6  and  O1_7 
REMARK    4  A    between atoms: C3_6  and  C4_9 
REMARK       I    between atoms: C4_9  and  N3_11 
REMARK    5  A    between atoms: N3_11  and  C5_13 
REMARK    6  A    between atoms: C5_13  and  C6_14 
REMARK    7  A    between atoms: C6_14  and  N4_15 
REMARK    8  A    between atoms: C15_30  and  N7_31 
REMARK    9  A    between atoms: N7_31  and  C16_33 
REMARK   10  A    between atoms: C19_36  and  C20_37 
REMARK   11  A    between atoms: C20_37  and  C23_40 
ROOT
HETATM    1  C1  UNL     1      -4.073  14.313  19.044  1.00  0.00     0.175 C 
HETATM    2  N1  UNL     1      -3.270  13.160  19.228  1.00  0.00    -0.185 N 
HETATM    3  C2  UNL     1      -2.180  12.875  18.404  1.00  0.00     0.683 A 
HETATM    4  N5  UNL     1      -1.493  11.865  18.905  1.00  0.00    -0.188 N 
ATOM      5  H5  UNL     1      -0.649  11.459  18.499  1.00  0.00     0.184 HD
HETATM    6  C13 UNL     1      -2.089  11.461  20.037  1.00  0.00     0.092 A 
HETATM    7  C14 UNL     1      -1.692  10.528  20.970  1.00  0.00     0.122 A 
HETATM    8  N6  UNL     1      -2.399  10.400  22.081  1.00  0.00    -0.350 N 
ATOM      9  H6  UNL     1      -2.108   9.716  22.780  1.00  0.00     0.166 HD
HETATM   10  C15 UNL     1      -3.513  11.162  22.315  1.00  0.00     0.111 A 
HETATM   11  C19 UNL     1      -3.991  12.108  21.438  1.00  0.00     0.032 A 
HETATM   12  C24 UNL     1      -3.223  12.279  20.234  1.00  0.00     0.091 A 
ENDROOT
BRANCH   3  13
HETATM   13  N2  UNL     1      -1.999  13.563  17.343  1.00  0.00    -0.190 N 
ATOM     14  H2  UNL     1      -1.717  14.537  17.459  1.00  0.00     0.181 HD
BRANCH  13  15
HETATM   15  C3  UNL     1      -2.159  13.083  16.006  1.00  0.00     0.327 C 
BRANCH  15  16
HETATM   16  O1  UNL     1      -1.222  12.158  15.619  1.00  0.00    -0.368 OA
ATOM     17  H1  UNL     1      -0.325  12.466  15.658  1.00  0.00     0.212 HD
ENDBRANCH  15  16
BRANCH  15  18
HETATM   18  C4  UNL     1      -3.552  12.591  15.861  1.00  0.00     0.267 C 
HETATM   19  O2  UNL     1      -4.474  13.372  15.558  1.00  0.00    -0.269 OA
HETATM   20  N3  UNL     1      -3.819  11.227  16.071  1.00  0.00    -0.356 N 
ATOM     21  H3  UNL     1      -3.054  10.603  16.326  1.00  0.00     0.162 HD
BRANCH  20  22
HETATM   22  C5  UNL     1      -5.137  10.694  15.935  1.00  0.00     0.150 C 
BRANCH  22  23
HETATM   23  C6  UNL     1      -5.808  10.504  17.251  1.00  0.00     0.256 C 
BRANCH  23  24
HETATM   24  N4  UNL     1      -6.630   9.357  17.405  1.00  0.00    -0.069 N 
HETATM   25  C7  UNL     1      -7.998   9.664  17.047  1.00  0.00     0.272 C 
HETATM   26  C8  UNL     1      -6.132   8.230  16.680  1.00  0.00     0.243 C 
HETATM   27  C9  UNL     1      -6.755   6.939  17.254  1.00  0.00     0.107 C 
HETATM   28  C10 UNL     1      -6.221   6.686  18.644  1.00  0.00     0.246 C 
HETATM   29  F1  UNL     1      -5.229   5.738  18.650  1.00  0.00    -0.206 F 
HETATM   30  F2  UNL     1      -7.257   6.355  19.508  1.00  0.00    -0.206 F 
HETATM   31  C11 UNL     1      -5.644   7.992  19.149  1.00  0.00     0.107 C 
HETATM   32  C12 UNL     1      -6.654   9.071  18.853  1.00  0.00     0.243 C 
ENDBRANCH  23  24
ENDBRANCH  22  23
ENDBRANCH  20  22
ENDBRANCH  15  18
ENDBRANCH  13  15
ENDBRANCH   3  13
BRANCH  11  33
HETATM   33  C20 UNL     1      -5.197  12.926  21.573  1.00  0.00     0.083 C 
HETATM   34  C21 UNL     1      -5.363  13.891  22.667  1.00  0.00     0.029 C 
HETATM   35  C22 UNL     1      -6.111  12.971  20.360  1.00  0.00     0.029 C 
BRANCH  33  36
HETATM   36  C23 UNL     1      -6.222  11.862  22.311  1.00  0.00     0.399 C 
HETATM   37  F3  UNL     1      -6.293  10.729  21.688  1.00  0.00    -0.170 F 
HETATM   38  F4  UNL     1      -7.542  12.476  21.925  1.00  0.00    -0.170 F 
HETATM   39  F5  UNL     1      -6.450  12.145  23.588  1.00  0.00    -0.170 F 
ENDBRANCH  33  36
ENDBRANCH  11  33
BRANCH  10  40
HETATM   40  N7  UNL     1      -4.069  11.030  23.447  1.00  0.00    -0.371 N 
ATOM     41  H7  UNL     1      -5.053  10.771  23.517  1.00  0.00     0.161 HD
BRANCH  40  42
HETATM   42  C16 UNL     1      -3.268  11.259  24.651  1.00  0.00     0.083 A 
HETATM   43  C17 UNL     1      -3.784  12.342  25.562  1.00  0.00     0.027 A 
HETATM   44  C18 UNL     1      -2.544  12.547  24.743  1.00  0.00     0.027 A 
ENDBRANCH  40  42
ENDBRANCH  10  40
TORSDOF 11
ENDMDL
MODEL 5
REMARK VINA RESULT: -7.560958179      3.577      7.326
REMARK  11 active torsions:
REMARK  status: ('A' for Active; 'I' for Inactive)
REMARK    1  A    between atoms: C2_3  and  N2_4 
REMARK    2  A    between atoms: N2_4  and  C3_6 
REMARK    3  A    between atoms: C3_6  and  O1_7 
REMARK    4  A    between atoms: C3_6  and  C4_9 
REMARK       I    between atoms: C4_9  and  N3_11 
REMARK    5  A    between atoms: N3_11  and  C5_13 
REMARK    6  A    between atoms: C5_13  and  C6_14 
REMARK    7  A    between atoms: C6_14  and  N4_15 
REMARK    8  A    between atoms: C15_30  and  N7_31 
REMARK    9  A    between atoms: N7_31  and  C16_33 
REMARK   10  A    between atoms: C19_36  and  C20_37 
REMARK   11  A    between atoms: C20_37  and  C23_40 
ROOT
HETATM    1  C1  UNL     1      -8.778  12.442  19.145  1.00  0.00     0.175 C 
HETATM    2  N1  UNL     1      -8.303  11.499  20.090  1.00  0.00    -0.185 N 
HETATM    3  C2  UNL     1      -8.454  11.687  21.465  1.00  0.00     0.683 A 
HETATM    4  N5  UNL     1      -8.108  10.585  22.107  1.00  0.00    -0.188 N 
ATOM      5  H5  UNL     1      -8.128  10.455  23.119  1.00  0.00     0.184 HD
HETATM    6  C13 UNL     1      -7.728   9.667  21.205  1.00  0.00     0.092 A 
HETATM    7  C14 UNL     1      -7.394   8.340  21.372  1.00  0.00     0.122 A 
HETATM    8  N6  UNL     1      -7.175   7.601  20.297  1.00  0.00    -0.350 N 
ATOM      9  H6  UNL     1      -6.933   6.616  20.411  1.00  0.00     0.166 HD
HETATM   10  C15 UNL     1      -7.264   8.125  19.035  1.00  0.00     0.111 A 
HETATM   11  C19 UNL     1      -7.579   9.438  18.772  1.00  0.00     0.032 A 
HETATM   12  C24 UNL     1      -7.844  10.254  19.927  1.00  0.00     0.091 A 
ENDROOT
BRANCH   3  13
HETATM   13  N2  UNL     1      -8.864  12.814  21.903  1.00  0.00    -0.190 N 
ATOM     14  H2  UNL     1      -9.458  13.368  21.286  1.00  0.00     0.181 HD
BRANCH  13  15
HETATM   15  C3  UNL     1      -8.560  13.366  23.187  1.00  0.00     0.327 C 
BRANCH  15  16
HETATM   16  O1  UNL     1      -9.196  12.749  24.235  1.00  0.00    -0.368 OA
ATOM     17  H1  UNL     1      -9.725  11.999  23.988  1.00  0.00     0.212 HD
ENDBRANCH  15  16
BRANCH  15  18
HETATM   18  C4  UNL     1      -7.083  13.384  23.338  1.00  0.00     0.267 C 
HETATM   19  O2  UNL     1      -6.514  12.603  24.124  1.00  0.00    -0.269 OA
HETATM   20  N3  UNL     1      -6.330  14.297  22.578  1.00  0.00    -0.356 N 
ATOM     21  H3  UNL     1      -6.813  14.934  21.946  1.00  0.00     0.162 HD
BRANCH  20  22
HETATM   22  C5  UNL     1      -4.907  14.353  22.673  1.00  0.00     0.150 C 
BRANCH  22  23
HETATM   23  C6  UNL     1      -4.237  13.562  21.604  1.00  0.00     0.256 C 
BRANCH  23  24
HETATM   24  N4  UNL     1      -3.653  12.323  21.976  1.00  0.00    -0.069 N 
HETATM   25  C7  UNL     1      -3.106  12.404  23.314  1.00  0.00     0.272 C 
HETATM   26  C8  UNL     1      -4.567  11.230  21.842  1.00  0.00     0.243 C 
HETATM   27  C9  UNL     1      -3.773   9.907  21.784  1.00  0.00     0.107 C 
HETATM   28  C10 UNL     1      -2.993   9.833  20.493  1.00  0.00     0.246 C 
HETATM   29  F1  UNL     1      -3.615   9.040  19.561  1.00  0.00    -0.206 F 
HETATM   30  F2  UNL     1      -1.690   9.418  20.736  1.00  0.00    -0.206 F 
HETATM   31  C11 UNL     1      -2.898  11.241  19.943  1.00  0.00     0.107 C 
HETATM   32  C12 UNL     1      -2.493  12.140  21.082  1.00  0.00     0.243 C 
ENDBRANCH  23  24
ENDBRANCH  22  23
ENDBRANCH  20  22
ENDBRANCH  15  18
ENDBRANCH  13  15
ENDBRANCH   3  13
BRANCH  11  33
HETATM   33  C20 UNL     1      -7.642  10.100  17.469  1.00  0.00     0.083 C 
HETATM   34  C21 UNL     1      -8.482   9.590  16.377  1.00  0.00     0.029 C 
HETATM   35  C22 UNL     1      -7.066  11.506  17.406  1.00  0.00     0.029 C 
BRANCH  33  36
HETATM   36  C23 UNL     1      -6.282   9.507  16.744  1.00  0.00     0.399 C 
HETATM   37  F3  UNL     1      -5.228   9.640  17.484  1.00  0.00    -0.170 F 
HETATM   38  F4  UNL     1      -6.046  10.590  15.725  1.00  0.00    -0.170 F 
HETATM   39  F5  UNL     1      -6.535   8.634  15.776  1.00  0.00    -0.170 F 
ENDBRANCH  33  36
ENDBRANCH  11  33
BRANCH  10  40
HETATM   40  N7  UNL     1      -7.127   7.316  18.068  1.00  0.00    -0.371 N 
ATOM     41  H7  UNL     1      -7.736   7.371  17.252  1.00  0.00     0.161 HD
BRANCH  40  42
HETATM   42  C16 UNL     1      -6.074   6.301  18.148  1.00  0.00     0.083 A 
HETATM   43  C17 UNL     1      -6.125   5.247  17.073  1.00  0.00     0.027 A 
HETATM   44  C18 UNL     1      -6.494   4.924  18.491  1.00  0.00     0.027 A 
ENDBRANCH  40  42
ENDBRANCH  10  40
TORSDOF 11
ENDMDL
