MODEL 1
REMARK VINA RESULT: -8.977558451      0.000      0.000
REMARK  8 active torsions:
REMARK  status: ('A' for Active; 'I' for Inactive)
REMARK    1  A    between atoms: N2_5  and  C4_6 
REMARK    2  A    between atoms: N3_9  and  C7_10 
REMARK    3  A    between atoms: C7_10  and  C8_14 
REMARK    4  A    between atoms: C8_14  and  N5_15 
REMARK       I    between atoms: N5_15  and  C9_17 
REMARK    5  A    between atoms: C9_17  and  C10_19 
REMARK    6  A    between atoms: C10_19  and  C11_20 
REMARK    7  A    between atoms: C10_19  and  C16_30 
REMARK    8  A    between atoms: C11_20  and  C12_21 
ROOT
HETATM    1  C8  UNL     1      -5.111  12.443  21.925  1.00  0.00     0.198 C 
ENDROOT
BRANCH   1   2
HETATM    2  C7  UNL     1      -3.685  12.699  22.059  1.00  0.00     0.090 C 
HETATM    3  N4  UNL     1      -3.015  13.425  21.255  1.00  0.00    -0.388 N 
ATOM      4  H42 UNL     1      -2.015  13.604  21.349  1.00  0.00     0.157 HD
ATOM      5  H41 UNL     1      -3.539  13.837  20.483  1.00  0.00     0.157 HD
BRANCH   2   6
HETATM    6  N3  UNL     1      -2.949  12.120  23.145  1.00  0.00    -0.370 N 
HETATM    7  C6  UNL     1      -3.225  12.605  24.483  1.00  0.00     0.126 C 
HETATM    8  C5  UNL     1      -3.175  11.376  25.375  1.00  0.00     0.055 C 
HETATM    9  C4  UNL     1      -1.815  10.752  25.398  1.00  0.00     0.226 C 
HETATM   10  C18 UNL     1      -1.093  10.818  24.081  1.00  0.00     0.055 C 
HETATM   11  C17 UNL     1      -1.982  11.102  22.901  1.00  0.00     0.126 C 
BRANCH   9  12
HETATM   12  N2  UNL     1      -1.843   9.424  25.937  1.00  0.00     0.096 N 
HETATM   13  C3  UNL     1      -2.385   9.317  27.256  1.00  0.00     0.303 C 
HETATM   14  C2  UNL     1      -2.279   7.840  27.652  1.00  0.00     0.302 C 
HETATM   15  N1  UNL     1      -0.882   7.450  27.771  1.00  0.00     0.087 N 
HETATM   16  C1  UNL     1      -0.628   6.172  27.104  1.00  0.00     0.310 C 
HETATM   17  C20 UNL     1      -0.006   8.452  27.191  1.00  0.00     0.302 C 
HETATM   18  C19 UNL     1      -0.537   8.805  25.815  1.00  0.00     0.303 C 
ENDBRANCH   9  12
ENDBRANCH   2   6
ENDBRANCH   1   2
BRANCH   1  19
HETATM   19  N5  UNL     1      -5.512  11.069  21.858  1.00  0.00    -0.354 N 
HETATM   20  C9  UNL     1      -5.252  10.329  20.671  1.00  0.00     0.225 C 
HETATM   21  O1  UNL     1      -4.665  10.947  19.723  1.00  0.00    -0.273 OA
ATOM     22  H5  UNL     1      -5.977  10.628  22.652  1.00  0.00     0.162 HD
BRANCH  20  23
HETATM   23  C10 UNL     1      -5.630   8.904  20.507  1.00  0.00     0.116 C 
BRANCH  23  24
HETATM   24  C11 UNL     1      -4.766   8.198  19.510  1.00  0.00     0.075 C 
BRANCH  24  25
HETATM   25  C12 UNL     1      -5.495   8.178  18.200  1.00  0.00     0.035 A 
HETATM   26  N6  UNL     1      -5.592   9.146  17.276  1.00  0.00    -0.347 N 
HETATM   27  C13 UNL     1      -6.330   8.731  16.246  1.00  0.00     0.127 A 
ATOM     28  H6  UNL     1      -5.163  10.068  17.352  1.00  0.00     0.167 HD
HETATM   29 CL1  UNL     1      -6.766   9.609  14.775  1.00  0.00    -0.063 Cl
HETATM   30  C14 UNL     1      -6.738   7.453  16.484  1.00  0.00     0.096 A 
HETATM   31 CL2  UNL     1      -7.728   6.391  15.492  1.00  0.00    -0.079 Cl
HETATM   32  C15 UNL     1      -6.219   7.099  17.707  1.00  0.00     0.081 A 
HETATM   33 CL3  UNL     1      -6.412   5.551  18.543  1.00  0.00    -0.080 Cl
ENDBRANCH  24  25
ENDBRANCH  23  24
BRANCH  23  34
HETATM   34  C16 UNL     1      -7.075   8.723  20.194  1.00  0.00     0.191 C 
HETATM   35 CL4  UNL     1      -7.856   8.092  21.685  1.00  0.00    -0.107 Cl
HETATM   36 CL5  UNL     1      -7.917  10.161  19.656  1.00  0.00    -0.107 Cl
ENDBRANCH  23  34
ENDBRANCH  20  23
ENDBRANCH   1  19
TORSDOF 8
ENDMDL
MODEL 2
REMARK VINA RESULT: -8.682882234      1.989      3.716
REMARK  8 active torsions:
REMARK  status: ('A' for Active; 'I' for Inactive)
REMARK    1  A    between atoms: N2_5  and  C4_6 
REMARK    2  A    between atoms: N3_9  and  C7_10 
REMARK    3  A    between atoms: C7_10  and  C8_14 
REMARK    4  A    between atoms: C8_14  and  N5_15 
REMARK       I    between atoms: N5_15  and  C9_17 
REMARK    5  A    between atoms: C9_17  and  C10_19 
REMARK    6  A    between atoms: C10_19  and  C11_20 
REMARK    7  A    between atoms: C10_19  and  C16_30 
REMARK    8  A    between atoms: C11_20  and  C12_21 
ROOT
HETATM    1  C8  UNL     1      -2.289  11.049  20.089  1.00  0.00     0.198 C 
ENDROOT
BRANCH   1   2
HETATM    2  C7  UNL     1      -2.034  12.082  21.082  1.00  0.00     0.090 C 
HETATM    3  N4  UNL     1      -1.923  13.320  20.807  1.00  0.00    -0.388 N 
ATOM      4  H42 UNL     1      -1.744  14.044  21.503  1.00  0.00     0.157 HD
ATOM      5  H41 UNL     1      -2.022  13.570  19.823  1.00  0.00     0.157 HD
BRANCH   2   6
HETATM    6  N3  UNL     1      -1.895  11.731  22.466  1.00  0.00    -0.370 N 
HETATM    7  C6  UNL     1      -2.954  12.127  23.373  1.00  0.00     0.126 C 
HETATM    8  C5  UNL     1      -3.116  10.961  24.336  1.00  0.00     0.055 C 
HETATM    9  C4  UNL     1      -1.886  10.734  25.156  1.00  0.00     0.226 C 
HETATM   10  C18 UNL     1      -0.603  10.990  24.414  1.00  0.00     0.055 C 
HETATM   11  C17 UNL     1      -0.749  11.015  22.918  1.00  0.00     0.126 C 
BRANCH   9  12
HETATM   12  N2  UNL     1      -1.897   9.450  25.796  1.00  0.00     0.096 N 
HETATM   13  C3  UNL     1      -2.432   9.440  27.122  1.00  0.00     0.303 C 
HETATM   14  C2  UNL     1      -2.310   7.999  27.629  1.00  0.00     0.302 C 
HETATM   15  N1  UNL     1      -0.909   7.632  27.770  1.00  0.00     0.087 N 
HETATM   16  C1  UNL     1      -0.645   6.309  27.203  1.00  0.00     0.310 C 
HETATM   17  C20 UNL     1      -0.046   8.595  27.110  1.00  0.00     0.302 C 
HETATM   18  C19 UNL     1      -0.586   8.837  25.715  1.00  0.00     0.303 C 
ENDBRANCH   9  12
ENDBRANCH   2   6
ENDBRANCH   1   2
BRANCH   1  19
HETATM   19  N5  UNL     1      -3.489  10.284  20.254  1.00  0.00    -0.354 N 
HETATM   20  C9  UNL     1      -4.415  10.208  19.177  1.00  0.00     0.225 C 
HETATM   21  O1  UNL     1      -4.112  10.835  18.109  1.00  0.00    -0.273 OA
ATOM     22  H5  UNL     1      -3.676   9.801  21.133  1.00  0.00     0.162 HD
BRANCH  20  23
HETATM   23  C10 UNL     1      -5.685   9.443  19.254  1.00  0.00     0.116 C 
BRANCH  23  24
HETATM   24  C11 UNL     1      -5.928   8.881  20.619  1.00  0.00     0.075 C 
BRANCH  24  25
HETATM   25  C12 UNL     1      -7.204   9.472  21.141  1.00  0.00     0.035 A 
HETATM   26  N6  UNL     1      -8.430   8.930  21.176  1.00  0.00    -0.347 N 
HETATM   27  C13 UNL     1      -9.298   9.781  21.723  1.00  0.00     0.127 A 
ATOM     28  H6  UNL     1      -8.665   7.999  20.832  1.00  0.00     0.167 HD
HETATM   29 CL1  UNL     1     -11.030   9.564  22.005  1.00  0.00    -0.063 Cl
HETATM   30  C14 UNL     1      -8.637  10.923  22.064  1.00  0.00     0.096 A 
HETATM   31 CL2  UNL     1      -9.252  12.389  22.815  1.00  0.00    -0.079 Cl
HETATM   32  C15 UNL     1      -7.325  10.737  21.701  1.00  0.00     0.081 A 
HETATM   33 CL3  UNL     1      -5.990  11.883  21.898  1.00  0.00    -0.080 Cl
ENDBRANCH  24  25
ENDBRANCH  23  24
BRANCH  23  34
HETATM   34  C16 UNL     1      -5.788   8.389  18.208  1.00  0.00     0.191 C 
HETATM   35 CL4  UNL     1      -5.185   6.863  18.943  1.00  0.00    -0.107 Cl
HETATM   36 CL5  UNL     1      -7.392   8.128  17.553  1.00  0.00    -0.107 Cl
ENDBRANCH  23  34
ENDBRANCH  20  23
ENDBRANCH   1  19
TORSDOF 8
ENDMDL
MODEL 3
REMARK VINA RESULT: -8.629718594      1.355      2.256
REMARK  8 active torsions:
REMARK  status: ('A' for Active; 'I' for Inactive)
REMARK    1  A    between atoms: N2_5  and  C4_6 
REMARK    2  A    between atoms: N3_9  and  C7_10 
REMARK    3  A    between atoms: C7_10  and  C8_14 
REMARK    4  A    between atoms: C8_14  and  N5_15 
REMARK       I    between atoms: N5_15  and  C9_17 
REMARK    5  A    between atoms: C9_17  and  C10_19 
REMARK    6  A    between atoms: C10_19  and  C11_20 
REMARK    7  A    between atoms: C10_19  and  C16_30 
REMARK    8  A    between atoms: C11_20  and  C12_21 
ROOT
HETATM    1  C8  UNL     1      -2.688  11.204  20.248  1.00  0.00     0.198 C 
ENDROOT
BRANCH   1   2
HETATM    2  C7  UNL     1      -2.720  12.174  21.333  1.00  0.00     0.090 C 
HETATM    3  N4  UNL     1      -3.049  13.395  21.185  1.00  0.00    -0.388 N 
ATOM      4  H42 UNL     1      -3.072  14.075  21.945  1.00  0.00     0.157 HD
ATOM      5  H41 UNL     1      -3.300  13.678  20.237  1.00  0.00     0.157 HD
BRANCH   2   6
HETATM    6  N3  UNL     1      -2.369  11.774  22.665  1.00  0.00    -0.370 N 
HETATM    7  C6  UNL     1      -3.231  12.203  23.748  1.00  0.00     0.126 C 
HETATM    8  C5  UNL     1      -3.298  11.021  24.702  1.00  0.00     0.055 C 
HETATM    9  C4  UNL     1      -1.962  10.700  25.294  1.00  0.00     0.226 C 
HETATM   10  C18 UNL     1      -0.811  10.904  24.348  1.00  0.00     0.055 C 
HETATM   11  C17 UNL     1      -1.208  10.981  22.899  1.00  0.00     0.126 C 
BRANCH   9  12
HETATM   12  N2  UNL     1      -1.943   9.401  25.902  1.00  0.00     0.096 N 
HETATM   13  C3  UNL     1      -2.433   9.354  27.244  1.00  0.00     0.303 C 
HETATM   14  C2  UNL     1      -2.283   7.902  27.710  1.00  0.00     0.302 C 
HETATM   15  N1  UNL     1      -0.875   7.543  27.795  1.00  0.00     0.087 N 
HETATM   16  C1  UNL     1      -0.621   6.236  27.186  1.00  0.00     0.310 C 
HETATM   17  C20 UNL     1      -0.042   8.529  27.132  1.00  0.00     0.302 C 
HETATM   18  C19 UNL     1      -0.631   8.800  25.761  1.00  0.00     0.303 C 
ENDBRANCH   9  12
ENDBRANCH   2   6
ENDBRANCH   1   2
BRANCH   1  19
HETATM   19  N5  UNL     1      -3.730  10.221  20.238  1.00  0.00    -0.354 N 
HETATM   20  C9  UNL     1      -4.456   9.993  19.036  1.00  0.00     0.225 C 
HETATM   21  O1  UNL     1      -4.126  10.692  18.022  1.00  0.00    -0.273 OA
ATOM     22  H5  UNL     1      -3.947   9.690  21.082  1.00  0.00     0.162 HD
BRANCH  20  23
HETATM   23  C10 UNL     1      -5.553   8.999  18.928  1.00  0.00     0.116 C 
BRANCH  23  24
HETATM   24  C11 UNL     1      -5.948   8.741  17.508  1.00  0.00     0.075 C 
BRANCH  24  25
HETATM   25  C12 UNL     1      -6.231   7.275  17.368  1.00  0.00     0.035 A 
HETATM   26  N6  UNL     1      -5.825   6.261  18.147  1.00  0.00    -0.347 N 
HETATM   27  C13 UNL     1      -6.294   5.102  17.683  1.00  0.00     0.127 A 
ATOM     28  H6  UNL     1      -5.240   6.362  18.977  1.00  0.00     0.167 HD
HETATM   29 CL1  UNL     1      -6.058   3.475  18.332  1.00  0.00    -0.063 Cl
HETATM   30  C14 UNL     1      -7.033   5.345  16.564  1.00  0.00     0.096 A 
HETATM   31 CL2  UNL     1      -7.893   4.217  15.526  1.00  0.00    -0.079 Cl
HETATM   32  C15 UNL     1      -6.997   6.704  16.360  1.00  0.00     0.081 A 
HETATM   33 CL3  UNL     1      -7.779   7.609  15.055  1.00  0.00    -0.080 Cl
ENDBRANCH  24  25
ENDBRANCH  23  24
BRANCH  23  34
HETATM   34  C16 UNL     1      -6.734   9.350  19.763  1.00  0.00     0.191 C 
HETATM   35 CL4  UNL     1      -8.025   9.897  18.638  1.00  0.00    -0.107 Cl
HETATM   36 CL5  UNL     1      -7.351   8.063  20.779  1.00  0.00    -0.107 Cl
ENDBRANCH  23  34
ENDBRANCH  20  23
ENDBRANCH   1  19
TORSDOF 8
ENDMDL
MODEL 4
REMARK VINA RESULT: -8.535608129      1.462      2.258
REMARK  8 active torsions:
REMARK  status: ('A' for Active; 'I' for Inactive)
REMARK    1  A    between atoms: N2_5  and  C4_6 
REMARK    2  A    between atoms: N3_9  and  C7_10 
REMARK    3  A    between atoms: C7_10  and  C8_14 
REMARK    4  A    between atoms: C8_14  and  N5_15 
REMARK       I    between atoms: N5_15  and  C9_17 
REMARK    5  A    between atoms: C9_17  and  C10_19 
REMARK    6  A    between atoms: C10_19  and  C11_20 
REMARK    7  A    between atoms: C10_19  and  C16_30 
REMARK    8  A    between atoms: C11_20  and  C12_21 
ROOT
HETATM    1  C8  UNL     1      -3.250  11.162  20.179  1.00  0.00     0.198 C 
ENDROOT
BRANCH   1   2
HETATM    2  C7  UNL     1      -2.692  12.158  21.081  1.00  0.00     0.090 C 
HETATM    3  N4  UNL     1      -2.461  13.366  20.750  1.00  0.00    -0.388 N 
ATOM      4  H42 UNL     1      -2.070  14.065  21.382  1.00  0.00     0.157 HD
ATOM      5  H41 UNL     1      -2.692  13.617  19.788  1.00  0.00     0.157 HD
BRANCH   2   6
HETATM    6  N3  UNL     1      -2.369  11.804  22.433  1.00  0.00    -0.370 N 
HETATM    7  C6  UNL     1      -3.276  12.233  23.479  1.00  0.00     0.126 C 
HETATM    8  C5  UNL     1      -3.334  11.073  24.461  1.00  0.00     0.055 C 
HETATM    9  C4  UNL     1      -2.007  10.811  25.100  1.00  0.00     0.226 C 
HETATM   10  C18 UNL     1      -0.836  11.028  24.183  1.00  0.00     0.055 C 
HETATM   11  C17 UNL     1      -1.191  11.055  22.722  1.00  0.00     0.126 C 
BRANCH   9  12
HETATM   12  N2  UNL     1      -1.966   9.529  25.742  1.00  0.00     0.096 N 
HETATM   13  C3  UNL     1      -2.440   9.511  27.090  1.00  0.00     0.303 C 
HETATM   14  C2  UNL     1      -2.267   8.074  27.594  1.00  0.00     0.302 C 
HETATM   15  N1  UNL     1      -0.854   7.735  27.672  1.00  0.00     0.087 N 
HETATM   16  C1  UNL     1      -0.591   6.416  27.096  1.00  0.00     0.310 C 
HETATM   17  C20 UNL     1      -0.041   8.713  26.973  1.00  0.00     0.302 C 
HETATM   18  C19 UNL     1      -0.648   8.940  25.603  1.00  0.00     0.303 C 
ENDBRANCH   9  12
ENDBRANCH   2   6
ENDBRANCH   1   2
BRANCH   1  19
HETATM   19  N5  UNL     1      -4.679  11.077  20.125  1.00  0.00    -0.354 N 
HETATM   20  C9  UNL     1      -5.347  10.105  20.922  1.00  0.00     0.225 C 
HETATM   21  O1  UNL     1      -4.616   9.357  21.651  1.00  0.00    -0.273 OA
ATOM     22  H5  UNL     1      -5.212  11.706  19.523  1.00  0.00     0.162 HD
BRANCH  20  23
HETATM   23  C10 UNL     1      -6.821   9.940  20.932  1.00  0.00     0.116 C 
BRANCH  23  24
HETATM   24  C11 UNL     1      -7.413  10.036  19.561  1.00  0.00     0.075 C 
BRANCH  24  25
HETATM   25  C12 UNL     1      -7.194   8.722  18.871  1.00  0.00     0.035 A 
HETATM   26  N6  UNL     1      -6.948   7.519  19.411  1.00  0.00    -0.347 N 
HETATM   27  C13 UNL     1      -6.816   6.599  18.454  1.00  0.00     0.127 A 
ATOM     28  H6  UNL     1      -6.871   7.334  20.411  1.00  0.00     0.167 HD
HETATM   29 CL1  UNL     1      -6.488   4.871  18.621  1.00  0.00    -0.063 Cl
HETATM   30  C14 UNL     1      -6.978   7.201  17.242  1.00  0.00     0.096 A 
HETATM   31 CL2  UNL     1      -6.915   6.503  15.630  1.00  0.00    -0.079 Cl
HETATM   32  C15 UNL     1      -7.215   8.531  17.495  1.00  0.00     0.081 A 
HETATM   33 CL3  UNL     1      -7.502   9.811  16.306  1.00  0.00    -0.080 Cl
ENDBRANCH  24  25
ENDBRANCH  23  24
BRANCH  23  34
HETATM   34  C16 UNL     1      -7.499  10.866  21.880  1.00  0.00     0.191 C 
HETATM   35 CL4  UNL     1      -7.499  12.491  21.112  1.00  0.00    -0.107 Cl
HETATM   36 CL5  UNL     1      -9.137  10.429  22.321  1.00  0.00    -0.107 Cl
ENDBRANCH  23  34
ENDBRANCH  20  23
ENDBRANCH   1  19
TORSDOF 8
ENDMDL
MODEL 5
REMARK VINA RESULT: -8.488329006      1.807      3.675
REMARK  8 active torsions:
REMARK  status: ('A' for Active; 'I' for Inactive)
REMARK    1  A    between atoms: N2_5  and  C4_6 
REMARK    2  A    between atoms: N3_9  and  C7_10 
REMARK    3  A    between atoms: C7_10  and  C8_14 
REMARK    4  A    between atoms: C8_14  and  N5_15 
REMARK       I    between atoms: N5_15  and  C9_17 
REMARK    5  A    between atoms: C9_17  and  C10_19 
REMARK    6  A    between atoms: C10_19  and  C11_20 
REMARK    7  A    between atoms: C10_19  and  C16_30 
REMARK    8  A    between atoms: C11_20  and  C12_21 
ROOT
HETATM    1  C8  UNL     1      -2.393  10.991  20.010  1.00  0.00     0.198 C 
ENDROOT
BRANCH   1   2
HETATM    2  C7  UNL     1      -2.247  12.049  20.998  1.00  0.00     0.090 C 
HETATM    3  N4  UNL     1      -2.263  13.291  20.717  1.00  0.00    -0.388 N 
ATOM      4  H42 UNL     1      -2.161  14.033  21.409  1.00  0.00     0.157 HD
ATOM      5  H41 UNL     1      -2.387  13.524  19.731  1.00  0.00     0.157 HD
BRANCH   2   6
HETATM    6  N3  UNL     1      -2.074  11.721  22.384  1.00  0.00    -0.370 N 
HETATM    7  C6  UNL     1      -3.124  12.105  23.306  1.00  0.00     0.126 C 
HETATM    8  C5  UNL     1      -3.240  10.950  24.287  1.00  0.00     0.055 C 
HETATM    9  C4  UNL     1      -1.990  10.763  25.087  1.00  0.00     0.226 C 
HETATM   10  C18 UNL     1      -0.728  11.038  24.317  1.00  0.00     0.055 C 
HETATM   11  C17 UNL     1      -0.902  11.038  22.823  1.00  0.00     0.126 C 
BRANCH   9  12
HETATM   12  N2  UNL     1      -1.960   9.489  25.745  1.00  0.00     0.096 N 
HETATM   13  C3  UNL     1      -2.458   9.488  27.085  1.00  0.00     0.303 C 
HETATM   14  C2  UNL     1      -2.294   8.057  27.608  1.00  0.00     0.302 C 
HETATM   15  N1  UNL     1      -0.883   7.719  27.716  1.00  0.00     0.087 N 
HETATM   16  C1  UNL     1      -0.609   6.393  27.160  1.00  0.00     0.310 C 
HETATM   17  C20 UNL     1      -0.057   8.688  27.020  1.00  0.00     0.302 C 
HETATM   18  C19 UNL     1      -0.639   8.899  25.636  1.00  0.00     0.303 C 
ENDBRANCH   9  12
ENDBRANCH   2   6
ENDBRANCH   1   2
BRANCH   1  19
HETATM   19  N5  UNL     1      -3.546  10.151  20.138  1.00  0.00    -0.354 N 
HETATM   20  C9  UNL     1      -4.468  10.071  19.057  1.00  0.00     0.225 C 
HETATM   21  O1  UNL     1      -4.203  10.765  18.020  1.00  0.00    -0.273 OA
ATOM     22  H5  UNL     1      -3.704   9.617  20.993  1.00  0.00     0.162 HD
BRANCH  20  23
HETATM   23  C10 UNL     1      -5.691   9.232  19.096  1.00  0.00     0.116 C 
BRANCH  23  24
HETATM   24  C11 UNL     1      -6.102   8.891  20.494  1.00  0.00     0.075 C 
BRANCH  24  25
HETATM   25  C12 UNL     1      -6.725  10.113  21.102  1.00  0.00     0.035 A 
HETATM   26  N6  UNL     1      -6.291  10.856  22.130  1.00  0.00    -0.347 N 
HETATM   27  C13 UNL     1      -7.132  11.864  22.363  1.00  0.00     0.127 A 
ATOM     28  H6  UNL     1      -5.438  10.676  22.660  1.00  0.00     0.167 HD
HETATM   29 CL1  UNL     1      -7.029  13.128  23.594  1.00  0.00    -0.063 Cl
HETATM   30  C14 UNL     1      -8.158  11.795  21.467  1.00  0.00     0.096 A 
HETATM   31 CL2  UNL     1      -9.556  12.844  21.286  1.00  0.00    -0.079 Cl
HETATM   32  C15 UNL     1      -7.910  10.700  20.675  1.00  0.00     0.081 A 
HETATM   33 CL3  UNL     1      -8.899  10.106  19.332  1.00  0.00    -0.080 Cl
ENDBRANCH  24  25
ENDBRANCH  23  24
BRANCH  23  34
HETATM   34  C16 UNL     1      -5.581   8.011  18.251  1.00  0.00     0.191 C 
HETATM   35 CL4  UNL     1      -6.524   6.721  19.074  1.00  0.00    -0.107 Cl
HETATM   36 CL5  UNL     1      -6.141   8.182  16.600  1.00  0.00    -0.107 Cl
ENDBRANCH  23  34
ENDBRANCH  20  23
ENDBRANCH   1  19
TORSDOF 8
ENDMDL
