MODEL 1
REMARK VINA RESULT: -8.071249417      0.000      0.000
REMARK  10 active torsions:
REMARK  status: ('A' for Active; 'I' for Inactive)
REMARK    1  A    between atoms: N1_2  and  C2_3 
REMARK    2  A    between atoms: N1_2  and  C18_32 
REMARK    3  A    between atoms: C2_3  and  C3_4 
REMARK    4  A    between atoms: C3_4  and  O1_5 
REMARK    5  A    between atoms: C3_4  and  N2_7 
REMARK    6  A    between atoms: C6_10  and  C7_11 
REMARK    7  A    between atoms: C7_11  and  N3_12 
REMARK       I    between atoms: N3_12  and  C8_14 
REMARK    8  A    between atoms: C8_14  and  C9_16 
REMARK    9  A    between atoms: C15_27  and  C16_28 
REMARK   10  A    between atoms: C21_35  and  C22_36 
ROOT
HETATM    1  N2  UNL     1      -6.233  12.801  19.768  1.00  0.00    -0.363 N 
HETATM    2  C4  UNL     1      -4.826  13.210  20.024  1.00  0.00     0.125 C 
HETATM    3  C5  UNL     1      -4.479  13.394  21.418  1.00  0.00     0.029 C 
HETATM    4  C6  UNL     1      -4.343  12.254  22.353  1.00  0.00     0.044 C 
HETATM    5  C14 UNL     1      -5.528  11.394  22.550  1.00  0.00     0.020 C 
HETATM    6  C15 UNL     1      -6.444  11.168  21.415  1.00  0.00     0.069 C 
HETATM    7  C17 UNL     1      -7.077  12.444  20.843  1.00  0.00     0.134 C 
ENDROOT
BRANCH   1   8
HETATM    8  C3  UNL     1      -6.525  12.765  18.412  1.00  0.00     0.142 C 
BRANCH   8   9
HETATM    9  C2  UNL     1      -6.469  11.704  17.410  1.00  0.00     0.355 C 
BRANCH   9  10
HETATM   10  N1  UNL     1      -5.302  10.926  17.248  1.00  0.00     0.096 N 
HETATM   11  C1  UNL     1      -4.864  11.031  15.830  1.00  0.00     0.310 C 
BRANCH  10  12
HETATM   12  C18 UNL     1      -5.649   9.491  17.448  1.00  0.00     0.223 C 
HETATM   13  C19 UNL     1      -7.141   9.298  17.615  1.00  0.00     0.036 C 
HETATM   14  C20 UNL     1      -7.391   7.795  17.491  1.00  0.00     0.015 C 
HETATM   15  C21 UNL     1      -6.792   7.164  18.705  1.00  0.00     0.093 C 
HETATM   16  C23 UNL     1      -5.854   8.035  19.468  1.00  0.00     0.015 C 
HETATM   17  C24 UNL     1      -4.928   8.877  18.608  1.00  0.00     0.036 C 
BRANCH  15  18
HETATM   18  C22 UNL     1      -6.179   5.826  18.334  1.00  0.00     0.391 C 
HETATM   19  F3  UNL     1      -4.885   5.740  18.857  1.00  0.00    -0.171 F 
HETATM   20  F4  UNL     1      -6.090   5.629  16.985  1.00  0.00    -0.171 F 
HETATM   21  F5  UNL     1      -6.909   4.816  18.930  1.00  0.00    -0.171 F 
ENDBRANCH  15  18
ENDBRANCH  10  12
ENDBRANCH   9  10
ENDBRANCH   8   9
BRANCH   8  22
HETATM   22  O1  UNL     1      -6.942  13.917  17.866  1.00  0.00    -0.348 OA
ATOM     23  H1  UNL     1      -6.587  14.662  18.336  1.00  0.00     0.219 HD
ENDBRANCH   8  22
ENDBRANCH   1   8
BRANCH   6  24
HETATM   24  C16 UNL     1      -7.622  10.339  21.950  1.00  0.00     0.358 C 
HETATM   25  F1  UNL     1      -8.334   9.869  20.839  1.00  0.00    -0.214 F 
HETATM   26  F2  UNL     1      -8.436  11.089  22.756  1.00  0.00    -0.214 F 
ENDBRANCH   6  24
BRANCH   4  27
HETATM   27  C7  UNL     1      -3.022  11.508  22.127  1.00  0.00     0.204 C 
HETATM   28  C10 UNL     1      -3.075  10.658  20.876  1.00  0.00     0.062 C 
HETATM   29  C11 UNL     1      -1.833   9.794  20.844  1.00  0.00     0.006 C 
HETATM   30  C12 UNL     1      -0.654  10.756  20.647  1.00  0.00     0.028 C 
HETATM   31  C13 UNL     1      -0.684  11.756  21.791  1.00  0.00     0.235 C 
HETATM   32  N5  UNL     1      -1.931  12.431  21.903  1.00  0.00    -0.048 N 
ATOM     33  H52 UNL     1      -2.107  13.025  21.092  1.00  0.00     0.280 HD
ATOM     34  H51 UNL     1      -1.900  13.152  22.625  1.00  0.00     0.280 HD
BRANCH  27  35
HETATM   35  N3  UNL     1      -2.712  10.621  23.209  1.00  0.00    -0.320 N 
HETATM   36  C8  UNL     1      -2.312  11.053  24.499  1.00  0.00     0.308 C 
HETATM   37  O2  UNL     1      -2.195  12.268  24.842  1.00  0.00    -0.263 OA
ATOM     38  H3  UNL     1      -2.783   9.617  23.041  1.00  0.00     0.165 HD
BRANCH  36  39
HETATM   39  C9  UNL     1      -1.999  10.089  25.558  1.00  0.00     0.322 C 
HETATM   40  N4  UNL     1      -0.681   9.687  25.815  1.00  0.00    -0.053 NA
HETATM   41  O3  UNL     1      -2.941   9.626  26.235  1.00  0.00    -0.266 OA
ENDBRANCH  36  39
ENDBRANCH  27  35
ENDBRANCH   4  27
TORSDOF 10
ENDMDL
MODEL 2
REMARK VINA RESULT: -8.048047768      3.528      5.104
REMARK  10 active torsions:
REMARK  status: ('A' for Active; 'I' for Inactive)
REMARK    1  A    between atoms: N1_2  and  C2_3 
REMARK    2  A    between atoms: N1_2  and  C18_32 
REMARK    3  A    between atoms: C2_3  and  C3_4 
REMARK    4  A    between atoms: C3_4  and  O1_5 
REMARK    5  A    between atoms: C3_4  and  N2_7 
REMARK    6  A    between atoms: C6_10  and  C7_11 
REMARK    7  A    between atoms: C7_11  and  N3_12 
REMARK       I    between atoms: N3_12  and  C8_14 
REMARK    8  A    between atoms: C8_14  and  C9_16 
REMARK    9  A    between atoms: C15_27  and  C16_28 
REMARK   10  A    between atoms: C21_35  and  C22_36 
ROOT
HETATM    1  N2  UNL     1      -3.795  10.940  21.975  1.00  0.00    -0.363 N 
HETATM    2  C4  UNL     1      -4.889  11.946  22.035  1.00  0.00     0.125 C 
HETATM    3  C5  UNL     1      -5.292  12.342  23.369  1.00  0.00     0.029 C 
HETATM    4  C6  UNL     1      -4.436  13.188  24.231  1.00  0.00     0.044 C 
HETATM    5  C14 UNL     1      -3.094  12.670  24.569  1.00  0.00     0.020 C 
HETATM    6  C15 UNL     1      -2.370  11.855  23.575  1.00  0.00     0.069 C 
HETATM    7  C17 UNL     1      -3.100  10.574  23.149  1.00  0.00     0.134 C 
ENDROOT
BRANCH   1   8
HETATM    8  C3  UNL     1      -3.549  10.517  20.677  1.00  0.00     0.142 C 
BRANCH   8   9
HETATM    9  C2  UNL     1      -4.100   9.439  19.860  1.00  0.00     0.355 C 
BRANCH   9  10
HETATM   10  N1  UNL     1      -4.771   9.722  18.650  1.00  0.00     0.096 N 
HETATM   11  C1  UNL     1      -5.982  10.528  18.966  1.00  0.00     0.310 C 
BRANCH  10  12
HETATM   12  C18 UNL     1      -5.285   8.448  18.074  1.00  0.00     0.223 C 
HETATM   13  C19 UNL     1      -6.709   8.596  17.583  1.00  0.00     0.036 C 
HETATM   14  C20 UNL     1      -7.000   7.350  16.746  1.00  0.00     0.015 C 
HETATM   15  C21 UNL     1      -7.049   6.202  17.699  1.00  0.00     0.093 C 
HETATM   16  C23 UNL     1      -6.474   6.477  19.046  1.00  0.00     0.015 C 
HETATM   17  C24 UNL     1      -5.200   7.303  19.035  1.00  0.00     0.036 C 
BRANCH  15  18
HETATM   18  C22 UNL     1      -6.447   4.971  17.046  1.00  0.00     0.391 C 
HETATM   19  F3  UNL     1      -7.466   4.167  16.528  1.00  0.00    -0.171 F 
HETATM   20  F4  UNL     1      -5.720   4.203  17.911  1.00  0.00    -0.171 F 
HETATM   21  F5  UNL     1      -5.674   5.364  15.971  1.00  0.00    -0.171 F 
ENDBRANCH  15  18
ENDBRANCH  10  12
ENDBRANCH   9  10
ENDBRANCH   8   9
BRANCH   8  22
HETATM   22  O1  UNL     1      -2.619  11.205  19.996  1.00  0.00    -0.348 OA
ATOM     23  H1  UNL     1      -2.872  12.117  19.907  1.00  0.00     0.219 HD
ENDBRANCH   8  22
ENDBRANCH   1   8
BRANCH   6  24
HETATM   24  C16 UNL     1      -1.074  11.376  24.247  1.00  0.00     0.358 C 
HETATM   25  F1  UNL     1      -0.008  11.860  23.478  1.00  0.00    -0.214 F 
HETATM   26  F2  UNL     1      -1.026  10.010  24.323  1.00  0.00    -0.214 F 
ENDBRANCH   6  24
BRANCH   4  27
HETATM   27  C7  UNL     1      -4.479  14.655  23.785  1.00  0.00     0.204 C 
HETATM   28  C10 UNL     1      -3.787  15.557  24.785  1.00  0.00     0.062 C 
HETATM   29  C11 UNL     1      -4.064  16.992  24.391  1.00  0.00     0.006 C 
HETATM   30  C12 UNL     1      -3.338  17.210  23.056  1.00  0.00     0.028 C 
HETATM   31  C13 UNL     1      -3.872  16.182  22.071  1.00  0.00     0.235 C 
HETATM   32  N5  UNL     1      -3.756  14.848  22.548  1.00  0.00    -0.048 N 
ATOM     33  H52 UNL     1      -2.778  14.570  22.641  1.00  0.00     0.280 HD
ATOM     34  H51 UNL     1      -4.046  14.173  21.839  1.00  0.00     0.280 HD
BRANCH  27  35
HETATM   35  N3  UNL     1      -5.822  15.141  23.660  1.00  0.00    -0.320 N 
HETATM   36  C8  UNL     1      -6.771  15.128  24.713  1.00  0.00     0.308 C 
HETATM   37  O2  UNL     1      -6.538  14.696  25.882  1.00  0.00    -0.263 OA
ATOM     38  H3  UNL     1      -6.112  15.521  22.759  1.00  0.00     0.165 HD
BRANCH  36  39
HETATM   39  C9  UNL     1      -8.133  15.632  24.512  1.00  0.00     0.322 C 
HETATM   40  N4  UNL     1      -9.209  14.763  24.286  1.00  0.00    -0.053 NA
HETATM   41  O3  UNL     1      -8.318  16.866  24.546  1.00  0.00    -0.266 OA
ENDBRANCH  36  39
ENDBRANCH  27  35
ENDBRANCH   4  27
TORSDOF 10
ENDMDL
MODEL 3
REMARK VINA RESULT: -7.813222631      3.090      5.779
REMARK  10 active torsions:
REMARK  status: ('A' for Active; 'I' for Inactive)
REMARK    1  A    between atoms: N1_2  and  C2_3 
REMARK    2  A    between atoms: N1_2  and  C18_32 
REMARK    3  A    between atoms: C2_3  and  C3_4 
REMARK    4  A    between atoms: C3_4  and  O1_5 
REMARK    5  A    between atoms: C3_4  and  N2_7 
REMARK    6  A    between atoms: C6_10  and  C7_11 
REMARK    7  A    between atoms: C7_11  and  N3_12 
REMARK       I    between atoms: N3_12  and  C8_14 
REMARK    8  A    between atoms: C8_14  and  C9_16 
REMARK    9  A    between atoms: C15_27  and  C16_28 
REMARK   10  A    between atoms: C21_35  and  C22_36 
ROOT
HETATM    1  N2  UNL     1      -4.709  12.291  21.155  1.00  0.00    -0.363 N 
HETATM    2  C4  UNL     1      -5.145  13.050  19.952  1.00  0.00     0.125 C 
HETATM    3  C5  UNL     1      -4.111  13.831  19.305  1.00  0.00     0.029 C 
HETATM    4  C6  UNL     1      -3.012  13.202  18.538  1.00  0.00     0.044 C 
HETATM    5  C14 UNL     1      -2.133  12.261  19.263  1.00  0.00     0.020 C 
HETATM    6  C15 UNL     1      -2.708  11.425  20.334  1.00  0.00     0.069 C 
HETATM    7  C17 UNL     1      -3.339  12.215  21.489  1.00  0.00     0.134 C 
ENDROOT
BRANCH   1   8
HETATM    8  C3  UNL     1      -5.773  11.669  21.791  1.00  0.00     0.142 C 
BRANCH   8   9
HETATM    9  C2  UNL     1      -6.821  10.765  21.324  1.00  0.00     0.355 C 
BRANCH   9  10
HETATM   10  N1  UNL     1      -7.076  10.609  19.944  1.00  0.00     0.096 N 
HETATM   11  C1  UNL     1      -8.538  10.776  19.718  1.00  0.00     0.310 C 
BRANCH  10  12
HETATM   12  C18 UNL     1      -6.775   9.203  19.554  1.00  0.00     0.223 C 
HETATM   13  C19 UNL     1      -5.290   8.988  19.359  1.00  0.00     0.036 C 
HETATM   14  C20 UNL     1      -5.088   7.474  19.281  1.00  0.00     0.015 C 
HETATM   15  C21 UNL     1      -5.705   7.030  17.996  1.00  0.00     0.093 C 
HETATM   16  C23 UNL     1      -6.614   8.023  17.358  1.00  0.00     0.015 C 
HETATM   17  C24 UNL     1      -7.514   8.772  18.325  1.00  0.00     0.036 C 
BRANCH  15  18
HETATM   18  C22 UNL     1      -6.360   5.675  18.186  1.00  0.00     0.391 C 
HETATM   19  F3  UNL     1      -5.383   4.714  18.464  1.00  0.00    -0.171 F 
HETATM   20  F4  UNL     1      -7.050   5.250  17.086  1.00  0.00    -0.171 F 
HETATM   21  F5  UNL     1      -7.185   5.724  19.293  1.00  0.00    -0.171 F 
ENDBRANCH  15  18
ENDBRANCH  10  12
ENDBRANCH   9  10
ENDBRANCH   8   9
BRANCH   8  22
HETATM   22  O1  UNL     1      -5.911  11.924  23.101  1.00  0.00    -0.348 OA
ATOM     23  H1  UNL     1      -6.141  12.835  23.245  1.00  0.00     0.219 HD
ENDBRANCH   8  22
ENDBRANCH   1   8
BRANCH   6  24
HETATM   24  C16 UNL     1      -1.544  10.645  20.966  1.00  0.00     0.358 C 
HETATM   25  F1  UNL     1      -0.362  11.301  20.598  1.00  0.00    -0.214 F 
HETATM   26  F2  UNL     1      -1.522   9.345  20.537  1.00  0.00    -0.214 F 
ENDBRANCH   6  24
BRANCH   4  27
HETATM   27  C7  UNL     1      -3.501  12.719  17.166  1.00  0.00     0.204 C 
HETATM   28  C10 UNL     1      -4.410  11.517  17.296  1.00  0.00     0.062 C 
HETATM   29  C11 UNL     1      -4.667  10.971  15.908  1.00  0.00     0.006 C 
HETATM   30  C12 UNL     1      -5.489  12.043  15.179  1.00  0.00     0.028 C 
HETATM   31  C13 UNL     1      -4.683  13.331  15.200  1.00  0.00     0.235 C 
HETATM   32  N5  UNL     1      -4.307  13.726  16.513  1.00  0.00    -0.048 N 
ATOM     33  H52 UNL     1      -5.122  13.973  17.075  1.00  0.00     0.280 HD
ATOM     34  H51 UNL     1      -3.837  14.632  16.508  1.00  0.00     0.280 HD
BRANCH  27  35
HETATM   35  N3  UNL     1      -2.417  12.319  16.318  1.00  0.00    -0.320 N 
HETATM   36  C8  UNL     1      -1.449  13.213  15.795  1.00  0.00     0.308 C 
HETATM   37  O2  UNL     1      -1.426  14.460  16.025  1.00  0.00    -0.263 OA
ATOM     38  H3  UNL     1      -2.337  11.331  16.076  1.00  0.00     0.165 HD
BRANCH  36  39
HETATM   39  C9  UNL     1      -0.371  12.737  14.923  1.00  0.00     0.322 C 
HETATM   40  N4  UNL     1       0.336  11.561  15.208  1.00  0.00    -0.053 NA
HETATM   41  O3  UNL     1      -0.091  13.409  13.908  1.00  0.00    -0.266 OA
ENDBRANCH  36  39
ENDBRANCH  27  35
ENDBRANCH   4  27
TORSDOF 10
ENDMDL
MODEL 4
REMARK VINA RESULT: -7.798821181      3.843      7.204
REMARK  10 active torsions:
REMARK  status: ('A' for Active; 'I' for Inactive)
REMARK    1  A    between atoms: N1_2  and  C2_3 
REMARK    2  A    between atoms: N1_2  and  C18_32 
REMARK    3  A    between atoms: C2_3  and  C3_4 
REMARK    4  A    between atoms: C3_4  and  O1_5 
REMARK    5  A    between atoms: C3_4  and  N2_7 
REMARK    6  A    between atoms: C6_10  and  C7_11 
REMARK    7  A    between atoms: C7_11  and  N3_12 
REMARK       I    between atoms: N3_12  and  C8_14 
REMARK    8  A    between atoms: C8_14  and  C9_16 
REMARK    9  A    between atoms: C15_27  and  C16_28 
REMARK   10  A    between atoms: C21_35  and  C22_36 
ROOT
HETATM    1  N2  UNL     1      -2.955  10.840  20.837  1.00  0.00    -0.363 N 
HETATM    2  C4  UNL     1      -3.151  12.261  21.232  1.00  0.00     0.125 C 
HETATM    3  C5  UNL     1      -4.381  12.868  20.769  1.00  0.00     0.029 C 
HETATM    4  C6  UNL     1      -5.701  12.506  21.335  1.00  0.00     0.044 C 
HETATM    5  C14 UNL     1      -6.117  11.092  21.228  1.00  0.00     0.020 C 
HETATM    6  C15 UNL     1      -5.091  10.034  21.304  1.00  0.00     0.069 C 
HETATM    7  C17 UNL     1      -4.005  10.122  20.222  1.00  0.00     0.134 C 
ENDROOT
BRANCH   1   8
HETATM    8  C3  UNL     1      -1.706  10.365  21.206  1.00  0.00     0.142 C 
BRANCH   8   9
HETATM    9  C2  UNL     1      -1.112  10.025  22.497  1.00  0.00     0.355 C 
BRANCH   9  10
HETATM   10  N1  UNL     1      -1.482  10.725  23.667  1.00  0.00     0.096 N 
HETATM   11  C1  UNL     1      -0.362  11.631  24.041  1.00  0.00     0.310 C 
BRANCH  10  12
HETATM   12  C18 UNL     1      -1.596   9.755  24.792  1.00  0.00     0.223 C 
HETATM   13  C19 UNL     1      -2.083  10.429  26.057  1.00  0.00     0.036 C 
HETATM   14  C20 UNL     1      -2.458   9.301  27.020  1.00  0.00     0.015 C 
HETATM   15  C21 UNL     1      -1.179   8.639  27.415  1.00  0.00     0.093 C 
HETATM   16  C23 UNL     1      -0.008   8.967  26.552  1.00  0.00     0.015 C 
HETATM   17  C24 UNL     1      -0.314   9.032  25.066  1.00  0.00     0.036 C 
BRANCH  15  18
HETATM   18  C22 UNL     1      -1.401   7.145  27.557  1.00  0.00     0.391 C 
HETATM   19  F3  UNL     1      -0.932   6.715  28.802  1.00  0.00    -0.171 F 
HETATM   20  F4  UNL     1      -0.757   6.410  26.601  1.00  0.00    -0.171 F 
HETATM   21  F5  UNL     1      -2.759   6.888  27.541  1.00  0.00    -0.171 F 
ENDBRANCH  15  18
ENDBRANCH  10  12
ENDBRANCH   9  10
ENDBRANCH   8   9
BRANCH   8  22
HETATM   22  O1  UNL     1      -0.829  10.167  20.210  1.00  0.00    -0.348 OA
ATOM     23  H1  UNL     1      -1.159  10.524  19.394  1.00  0.00     0.219 HD
ENDBRANCH   8  22
ENDBRANCH   1   8
BRANCH   6  24
HETATM   24  C16 UNL     1      -5.806   8.698  21.051  1.00  0.00     0.358 C 
HETATM   25  F1  UNL     1      -5.096   8.037  20.040  1.00  0.00    -0.214 F 
HETATM   26  F2  UNL     1      -7.107   8.892  20.672  1.00  0.00    -0.214 F 
ENDBRANCH   6  24
BRANCH   4  27
HETATM   27  C7  UNL     1      -5.906  13.147  22.713  1.00  0.00     0.204 C 
HETATM   28  C10 UNL     1      -4.856  12.685  23.700  1.00  0.00     0.062 C 
HETATM   29  C11 UNL     1      -5.253  13.180  25.073  1.00  0.00     0.006 C 
HETATM   30  C12 UNL     1      -5.135  14.710  25.021  1.00  0.00     0.028 C 
HETATM   31  C13 UNL     1      -6.037  15.199  23.900  1.00  0.00     0.235 C 
HETATM   32  N5  UNL     1      -5.751  14.583  22.651  1.00  0.00    -0.048 N 
ATOM     33  H52 UNL     1      -4.824  14.843  22.312  1.00  0.00     0.280 HD
ATOM     34  H51 UNL     1      -6.314  14.985  21.900  1.00  0.00     0.280 HD
BRANCH  27  35
HETATM   35  N3  UNL     1      -7.177  12.806  23.282  1.00  0.00    -0.320 N 
HETATM   36  C8  UNL     1      -8.420  13.267  22.780  1.00  0.00     0.308 C 
HETATM   37  O2  UNL     1      -8.548  14.021  21.769  1.00  0.00    -0.263 OA
ATOM     38  H3  UNL     1      -7.188  12.194  24.098  1.00  0.00     0.165 HD
BRANCH  36  39
HETATM   39  C9  UNL     1      -9.683  12.887  23.419  1.00  0.00     0.322 C 
HETATM   40  N4  UNL     1     -10.758  13.782  23.504  1.00  0.00    -0.053 NA
HETATM   41  O3  UNL     1      -9.784  11.736  23.892  1.00  0.00    -0.266 OA
ENDBRANCH  36  39
ENDBRANCH  27  35
ENDBRANCH   4  27
TORSDOF 10
ENDMDL
MODEL 5
REMARK VINA RESULT: -7.657094056      1.142      1.696
REMARK  10 active torsions:
REMARK  status: ('A' for Active; 'I' for Inactive)
REMARK    1  A    between atoms: N1_2  and  C2_3 
REMARK    2  A    between atoms: N1_2  and  C18_32 
REMARK    3  A    between atoms: C2_3  and  C3_4 
REMARK    4  A    between atoms: C3_4  and  O1_5 
REMARK    5  A    between atoms: C3_4  and  N2_7 
REMARK    6  A    between atoms: C6_10  and  C7_11 
REMARK    7  A    between atoms: C7_11  and  N3_12 
REMARK       I    between atoms: N3_12  and  C8_14 
REMARK    8  A    between atoms: C8_14  and  C9_16 
REMARK    9  A    between atoms: C15_27  and  C16_28 
REMARK   10  A    between atoms: C21_35  and  C22_36 
ROOT
HETATM    1  N2  UNL     1      -6.753  12.782  19.876  1.00  0.00    -0.363 N 
HETATM    2  C4  UNL     1      -5.393  13.265  20.234  1.00  0.00     0.125 C 
HETATM    3  C5  UNL     1      -5.050  13.166  21.638  1.00  0.00     0.029 C 
HETATM    4  C6  UNL     1      -4.785  11.865  22.293  1.00  0.00     0.044 C 
HETATM    5  C14 UNL     1      -5.873  10.865  22.277  1.00  0.00     0.020 C 
HETATM    6  C15 UNL     1      -6.775  10.806  21.110  1.00  0.00     0.069 C 
HETATM    7  C17 UNL     1      -7.542  12.106  20.833  1.00  0.00     0.134 C 
ENDROOT
BRANCH   1   8
HETATM    8  C3  UNL     1      -7.057  13.023  18.544  1.00  0.00     0.142 C 
BRANCH   8   9
HETATM    9  C2  UNL     1      -8.099  12.518  17.654  1.00  0.00     0.355 C 
BRANCH   9  10
HETATM   10  N1  UNL     1      -7.807  11.527  16.691  1.00  0.00     0.096 N 
HETATM   11  C1  UNL     1      -9.091  11.036  16.123  1.00  0.00     0.310 C 
BRANCH  10  12
HETATM   12  C18 UNL     1      -7.205  10.350  17.378  1.00  0.00     0.223 C 
HETATM   13  C19 UNL     1      -5.783  10.107  16.917  1.00  0.00     0.036 C 
HETATM   14  C20 UNL     1      -5.185   9.102  17.903  1.00  0.00     0.015 C 
HETATM   15  C21 UNL     1      -5.886   7.805  17.662  1.00  0.00     0.093 C 
HETATM   16  C23 UNL     1      -7.140   7.906  16.864  1.00  0.00     0.015 C 
HETATM   17  C24 UNL     1      -8.013   9.102  17.202  1.00  0.00     0.036 C 
BRANCH  15  18
HETATM   18  C22 UNL     1      -6.088   7.083  18.981  1.00  0.00     0.391 C 
HETATM   19  F3  UNL     1      -5.583   5.782  18.888  1.00  0.00    -0.171 F 
HETATM   20  F4  UNL     1      -7.401   6.987  19.348  1.00  0.00    -0.171 F 
HETATM   21  F5  UNL     1      -5.350   7.719  19.961  1.00  0.00    -0.171 F 
ENDBRANCH  15  18
ENDBRANCH  10  12
ENDBRANCH   9  10
ENDBRANCH   8   9
BRANCH   8  22
HETATM   22  O1  UNL     1      -6.254  13.883  17.900  1.00  0.00    -0.348 OA
ATOM     23  H1  UNL     1      -5.361  13.814  18.218  1.00  0.00     0.219 HD
ENDBRANCH   8  22
ENDBRANCH   1   8
BRANCH   6  24
HETATM   24  C16 UNL     1      -7.854   9.760  21.431  1.00  0.00     0.358 C 
HETATM   25  F1  UNL     1      -7.190   8.587  21.810  1.00  0.00    -0.214 F 
HETATM   26  F2  UNL     1      -8.659   9.525  20.349  1.00  0.00    -0.214 F 
ENDBRANCH   6  24
BRANCH   4  27
HETATM   27  C7  UNL     1      -3.397  11.330  21.919  1.00  0.00     0.204 C 
HETATM   28  C10 UNL     1      -3.441  10.528  20.636  1.00  0.00     0.062 C 
HETATM   29  C11 UNL     1      -2.097   9.858  20.457  1.00  0.00     0.006 C 
HETATM   30  C12 UNL     1      -1.089  10.990  20.210  1.00  0.00     0.028 C 
HETATM   31  C13 UNL     1      -1.159  11.931  21.401  1.00  0.00     0.235 C 
HETATM   32  N5  UNL     1      -2.474  12.410  21.652  1.00  0.00    -0.048 N 
ATOM     33  H52 UNL     1      -2.805  13.002  20.889  1.00  0.00     0.280 HD
ATOM     34  H51 UNL     1      -2.482  13.100  22.403  1.00  0.00     0.280 HD
BRANCH  27  35
HETATM   35  N3  UNL     1      -2.866  10.457  22.925  1.00  0.00    -0.320 N 
HETATM   36  C8  UNL     1      -2.440  10.892  24.206  1.00  0.00     0.308 C 
HETATM   37  O2  UNL     1      -2.490  12.093  24.608  1.00  0.00    -0.263 OA
ATOM     38  H3  UNL     1      -2.791   9.464  22.707  1.00  0.00     0.165 HD
BRANCH  36  39
HETATM   39  C9  UNL     1      -1.896   9.945  25.185  1.00  0.00     0.322 C 
HETATM   40  N4  UNL     1      -0.558   9.532  25.137  1.00  0.00    -0.053 NA
HETATM   41  O3  UNL     1      -2.659   9.508  26.072  1.00  0.00    -0.266 OA
ENDBRANCH  36  39
ENDBRANCH  27  35
ENDBRANCH   4  27
TORSDOF 10
ENDMDL
