MODEL 1
REMARK VINA RESULT: -5.017988124      0.000      0.000
REMARK  1 active torsions:
REMARK  status: ('A' for Active; 'I' for Inactive)
REMARK    1  A    between atoms: C1_2  and  C2_4 
ROOT
HETATM    1  C2  UNL     1      50.280 161.146  32.337  1.00  0.00     0.003 C 
HETATM    2  C3  UNL     1      50.809 160.426  31.235  1.00  0.00    -0.015 C 
HETATM    3  C4  UNL     1      50.623 160.840  29.767  1.00  0.00     0.028 C 
HETATM    4  C5  UNL     1      49.213 160.627  29.569  1.00  0.00     0.004 C 
HETATM    5  C6  UNL     1      48.270 160.792  28.505  1.00  0.00     0.000 C 
HETATM    6  C7  UNL     1      46.928 160.437  29.195  1.00  0.00     0.000 C 
HETATM    7  C8  UNL     1      46.777 160.859  30.626  1.00  0.00     0.000 C 
HETATM    8  C9  UNL     1      47.015 159.863  31.688  1.00  0.00     0.000 C 
HETATM    9  C10 UNL     1      48.020 160.017  32.770  1.00  0.00     0.005 C 
HETATM   10  C11 UNL     1      48.882 161.222  32.795  1.00  0.00     0.043 C 
ENDROOT
BRANCH   1  11
HETATM   11  C1  UNL     1      50.802 162.570  32.395  1.00  0.00     0.260 C 
HETATM   12  N1  UNL     1      52.112 162.873  31.902  1.00  0.00    -0.058 NA
HETATM   13  O1  UNL     1      50.153 163.517  32.853  1.00  0.00    -0.271 OA
ENDBRANCH   1  11
TORSDOF 1
ENDMDL
MODEL 2
REMARK VINA RESULT: -5.009152865      1.068      1.236
REMARK  1 active torsions:
REMARK  status: ('A' for Active; 'I' for Inactive)
REMARK    1  A    between atoms: C1_2  and  C2_4 
ROOT
HETATM    1  C2  UNL     1      51.373 161.231  31.825  1.00  0.00     0.003 C 
HETATM    2  C3  UNL     1      51.410 160.309  30.748  1.00  0.00    -0.015 C 
HETATM    3  C4  UNL     1      50.796 160.575  29.365  1.00  0.00     0.028 C 
HETATM    4  C5  UNL     1      49.386 160.583  29.657  1.00  0.00     0.004 C 
HETATM    5  C6  UNL     1      48.169 160.780  28.930  1.00  0.00     0.000 C 
HETATM    6  C7  UNL     1      47.103 160.740  30.055  1.00  0.00     0.000 C 
HETATM    7  C8  UNL     1      47.493 161.345  31.370  1.00  0.00     0.000 C 
HETATM    8  C9  UNL     1      47.949 160.453  32.453  1.00  0.00     0.000 C 
HETATM    9  C10 UNL     1      49.268 160.560  33.125  1.00  0.00     0.005 C 
HETATM   10  C11 UNL     1      50.229 161.595  32.678  1.00  0.00     0.043 C 
ENDROOT
BRANCH   1  11
HETATM   11  C1  UNL     1      52.054 162.543  31.480  1.00  0.00     0.260 C 
HETATM   12  N1  UNL     1      52.840 162.650  30.288  1.00  0.00    -0.058 NA
HETATM   13  O1  UNL     1      51.974 163.559  32.180  1.00  0.00    -0.271 OA
ENDBRANCH   1  11
TORSDOF 1
ENDMDL
MODEL 3
REMARK VINA RESULT: -4.972185891      2.751      4.645
REMARK  1 active torsions:
REMARK  status: ('A' for Active; 'I' for Inactive)
REMARK    1  A    between atoms: C1_2  and  C2_4 
ROOT
HETATM    1  C2  UNL     1      48.204 159.809  29.571  1.00  0.00     0.003 C 
HETATM    2  C3  UNL     1      47.638 159.206  30.723  1.00  0.00    -0.015 C 
HETATM    3  C4  UNL     1      46.813 159.963  31.774  1.00  0.00     0.028 C 
HETATM    4  C5  UNL     1      47.803 160.814  32.381  1.00  0.00     0.004 C 
HETATM    5  C6  UNL     1      47.837 161.814  33.404  1.00  0.00     0.000 C 
HETATM    6  C7  UNL     1      49.303 162.312  33.330  1.00  0.00     0.000 C 
HETATM    7  C8  UNL     1      49.923 162.375  31.966  1.00  0.00     0.000 C 
HETATM    8  C9  UNL     1      50.800 161.271  31.534  1.00  0.00     0.000 C 
HETATM    9  C10 UNL     1      50.571 160.447  30.320  1.00  0.00     0.005 C 
HETATM   10  C11 UNL     1      49.374 160.700  29.485  1.00  0.00     0.043 C 
ENDROOT
BRANCH   1  11
HETATM   11  C1  UNL     1      47.151 160.438  28.677  1.00  0.00     0.260 C 
HETATM   12  N1  UNL     1      47.158 160.178  27.269  1.00  0.00    -0.058 NA
HETATM   13  O1  UNL     1      46.257 161.184  29.095  1.00  0.00    -0.271 OA
ENDBRANCH   1  11
TORSDOF 1
ENDMDL
MODEL 4
REMARK VINA RESULT: -4.381902329      1.032      1.032
REMARK  1 active torsions:
REMARK  status: ('A' for Active; 'I' for Inactive)
REMARK    1  A    between atoms: C1_2  and  C2_4 
ROOT
HETATM    1  C2  UNL     1      50.833 161.165  32.026  1.00  0.00     0.003 C 
HETATM    2  C3  UNL     1      51.119 160.360  30.894  1.00  0.00    -0.015 C 
HETATM    3  C4  UNL     1      50.700 160.712  29.459  1.00  0.00     0.028 C 
HETATM    4  C5  UNL     1      49.267 160.581  29.521  1.00  0.00     0.004 C 
HETATM    5  C6  UNL     1      48.162 160.753  28.628  1.00  0.00     0.000 C 
HETATM    6  C7  UNL     1      46.945 160.519  29.561  1.00  0.00     0.000 C 
HETATM    7  C8  UNL     1      47.073 161.019  30.968  1.00  0.00     0.000 C 
HETATM    8  C9  UNL     1      47.440 160.063  32.030  1.00  0.00     0.000 C 
HETATM    9  C10 UNL     1      48.627 160.205  32.910  1.00  0.00     0.005 C 
HETATM   10  C11 UNL     1      49.544 161.352  32.714  1.00  0.00     0.043 C 
ENDROOT
BRANCH   1  11
HETATM   11  C1  UNL     1      51.433 162.553  31.909  1.00  0.00     0.260 C 
HETATM   12  N1  UNL     1      50.951 163.615  32.741  1.00  0.00    -0.058 NA
HETATM   13  O1  UNL     1      52.340 162.841  31.118  1.00  0.00    -0.271 OA
ENDBRANCH   1  11
TORSDOF 1
ENDMDL
MODEL 5
REMARK VINA RESULT: -4.040652028      2.793      4.730
REMARK  1 active torsions:
REMARK  status: ('A' for Active; 'I' for Inactive)
REMARK    1  A    between atoms: C1_2  and  C2_4 
ROOT
HETATM    1  C2  UNL     1      48.233 159.718  29.669  1.00  0.00     0.003 C 
HETATM    2  C3  UNL     1      47.857 159.277  30.964  1.00  0.00    -0.015 C 
HETATM    3  C4  UNL     1      47.345 160.206  32.075  1.00  0.00     0.028 C 
HETATM    4  C5  UNL     1      48.519 160.978  32.390  1.00  0.00     0.004 C 
HETATM    5  C6  UNL     1      48.862 162.044  33.281  1.00  0.00     0.000 C 
HETATM    6  C7  UNL     1      50.325 162.356  32.874  1.00  0.00     0.000 C 
HETATM    7  C8  UNL     1      50.656 162.239  31.417  1.00  0.00     0.000 C 
HETATM    8  C9  UNL     1      51.310 161.007  30.935  1.00  0.00     0.000 C 
HETATM    9  C10 UNL     1      50.755 160.125  29.877  1.00  0.00     0.005 C 
HETATM   10  C11 UNL     1      49.444 160.454  29.269  1.00  0.00     0.043 C 
ENDROOT
BRANCH   1  11
HETATM   11  C1  UNL     1      47.089 160.397  28.940  1.00  0.00     0.260 C 
HETATM   12  N1  UNL     1      45.970 160.904  29.677  1.00  0.00    -0.058 NA
HETATM   13  O1  UNL     1      47.054 160.548  27.713  1.00  0.00    -0.271 OA
ENDBRANCH   1  11
TORSDOF 1
ENDMDL
