MODEL 1
REMARK VINA RESULT: -4.661040374      0.000      0.000
REMARK  1 active torsions:
REMARK  status: ('A' for Active; 'I' for Inactive)
REMARK    1  A    between atoms: N1_2  and  C2_5 
ROOT
HETATM    1  C2  UNL     1      47.460 160.030  29.026  1.00  0.00     0.186 C 
HETATM    2  C3  UNL     1      46.404 160.944  29.539  1.00  0.00     0.033 C 
HETATM    3  C4  UNL     1      46.365 161.160  31.003  1.00  0.00     0.002 C 
HETATM    4  C5  UNL     1      46.375 159.952  31.855  1.00  0.00     0.000 C 
HETATM    5  C6  UNL     1      47.308 160.152  33.059  1.00  0.00     0.001 C 
HETATM    6  C7  UNL     1      48.751 159.828  32.672  1.00  0.00     0.010 C 
HETATM    7  C8  UNL     1      49.619 161.028  32.588  1.00  0.00     0.073 C 
HETATM    8  S1  UNL     1      50.296 161.402  30.999  1.00  0.00    -0.169 SA
HETATM    9  C9  UNL     1      49.884 160.258  29.687  1.00  0.00     0.076 C 
HETATM   10  C10 UNL     1      48.775 160.763  28.785  1.00  0.00     0.043 C 
ENDROOT
BRANCH   1  11
HETATM   11  N1  UNL     1      46.980 159.553  27.714  1.00  0.00    -0.075 N 
HETATM   12  C1  UNL     1      46.976 160.646  26.762  1.00  0.00     0.267 C 
ATOM     13  H12 UNL     1      46.068 159.100  27.781  1.00  0.00     0.277 HD
ATOM     14  H11 UNL     1      47.518 158.755  27.377  1.00  0.00     0.277 HD
ENDBRANCH   1  11
TORSDOF 1
ENDMDL
MODEL 2
REMARK VINA RESULT: -4.569682407      2.606      4.257
REMARK  1 active torsions:
REMARK  status: ('A' for Active; 'I' for Inactive)
REMARK    1  A    between atoms: N1_2  and  C2_5 
ROOT
HETATM    1  C2  UNL     1      51.004 161.511  30.714  1.00  0.00     0.186 C 
HETATM    2  C3  UNL     1      51.173 161.049  32.118  1.00  0.00     0.033 C 
HETATM    3  C4  UNL     1      49.956 161.018  32.959  1.00  0.00     0.002 C 
HETATM    4  C5  UNL     1      49.129 162.243  32.980  1.00  0.00     0.000 C 
HETATM    5  C6  UNL     1      47.637 161.885  32.910  1.00  0.00     0.001 C 
HETATM    6  C7  UNL     1      47.207 161.682  31.458  1.00  0.00     0.010 C 
HETATM    7  C8  UNL     1      46.926 160.265  31.122  1.00  0.00     0.073 C 
HETATM    8  S1  UNL     1      47.970 159.521  29.905  1.00  0.00    -0.169 SA
HETATM    9  C9  UNL     1      49.218 160.586  29.191  1.00  0.00     0.076 C 
HETATM   10  C10 UNL     1      50.595 160.371  29.787  1.00  0.00     0.043 C 
ENDROOT
BRANCH   1  11
HETATM   11  N1  UNL     1      52.336 161.971  30.276  1.00  0.00    -0.075 N 
HETATM   12  C1  UNL     1      53.173 162.232  31.429  1.00  0.00     0.267 C 
ATOM     13  H12 UNL     1      52.278 162.778  29.654  1.00  0.00     0.277 HD
ATOM     14  H11 UNL     1      52.773 161.316  29.627  1.00  0.00     0.277 HD
ENDBRANCH   1  11
TORSDOF 1
ENDMDL
MODEL 3
REMARK VINA RESULT: -4.481284293     11.092     13.107
REMARK  1 active torsions:
REMARK  status: ('A' for Active; 'I' for Inactive)
REMARK    1  A    between atoms: N1_2  and  C2_5 
ROOT
HETATM    1  C2  UNL     1      58.625 162.262  35.622  1.00  0.00     0.186 C 
HETATM    2  C3  UNL     1      57.418 161.798  36.359  1.00  0.00     0.033 C 
HETATM    3  C4  UNL     1      57.646 161.164  37.677  1.00  0.00     0.002 C 
HETATM    4  C5  UNL     1      58.656 160.085  37.732  1.00  0.00     0.000 C 
HETATM    5  C6  UNL     1      59.524 160.226  38.991  1.00  0.00     0.001 C 
HETATM    6  C7  UNL     1      60.666 161.211  38.742  1.00  0.00     0.010 C 
HETATM    7  C8  UNL     1      60.501 162.495  39.466  1.00  0.00     0.073 C 
HETATM    8  S1  UNL     1      60.321 163.944  38.471  1.00  0.00    -0.169 SA
HETATM    9  C9  UNL     1      60.402 163.691  36.702  1.00  0.00     0.076 C 
HETATM   10  C10 UNL     1      59.038 163.669  36.041  1.00  0.00     0.043 C 
ENDROOT
BRANCH   1  11
HETATM   11  N1  UNL     1      58.231 162.329  34.202  1.00  0.00    -0.075 N 
HETATM   12  C1  UNL     1      56.794 162.191  34.080  1.00  0.00     0.267 C 
ATOM     13  H12 UNL     1      58.731 161.644  33.633  1.00  0.00     0.277 HD
ATOM     14  H11 UNL     1      58.574 163.177  33.749  1.00  0.00     0.277 HD
ENDBRANCH   1  11
TORSDOF 1
ENDMDL
MODEL 4
REMARK VINA RESULT: -3.982030569     11.859     13.759
REMARK  1 active torsions:
REMARK  status: ('A' for Active; 'I' for Inactive)
REMARK    1  A    between atoms: N1_2  and  C2_5 
ROOT
HETATM    1  C2  UNL     1      58.595 161.263  37.268  1.00  0.00     0.186 C 
HETATM    2  C3  UNL     1      58.322 161.884  38.592  1.00  0.00     0.033 C 
HETATM    3  C4  UNL     1      59.018 163.156  38.886  1.00  0.00     0.002 C 
HETATM    4  C5  UNL     1      60.480 163.184  38.662  1.00  0.00     0.000 C 
HETATM    5  C6  UNL     1      60.895 164.502  37.991  1.00  0.00     0.001 C 
HETATM    6  C7  UNL     1      60.717 164.404  36.476  1.00  0.00     0.010 C 
HETATM    7  C8  UNL     1      59.589 165.220  35.964  1.00  0.00     0.073 C 
HETATM    8  S1  UNL     1      58.258 164.338  35.206  1.00  0.00    -0.169 SA
HETATM    9  C9  UNL     1      58.454 162.562  35.110  1.00  0.00     0.076 C 
HETATM   10  C10 UNL     1      57.681 161.820  36.182  1.00  0.00     0.043 C 
ENDROOT
BRANCH   1  11
HETATM   11  N1  UNL     1      58.270 159.831  37.418  1.00  0.00    -0.075 N 
HETATM   12  C1  UNL     1      58.680 159.365  38.727  1.00  0.00     0.267 C 
ATOM     13  H12 UNL     1      58.672 159.267  36.668  1.00  0.00     0.277 HD
ATOM     14  H11 UNL     1      57.285 159.641  37.235  1.00  0.00     0.277 HD
ENDBRANCH   1  11
TORSDOF 1
ENDMDL
MODEL 5
REMARK VINA RESULT: -3.859033346     11.349     13.422
REMARK  1 active torsions:
REMARK  status: ('A' for Active; 'I' for Inactive)
REMARK    1  A    between atoms: N1_2  and  C2_5 
ROOT
HETATM    1  C2  UNL     1      58.787 163.210  35.424  1.00  0.00     0.186 C 
HETATM    2  C3  UNL     1      57.871 162.728  36.493  1.00  0.00     0.033 C 
HETATM    3  C4  UNL     1      58.278 162.997  37.890  1.00  0.00     0.002 C 
HETATM    4  C5  UNL     1      59.657 162.616  38.267  1.00  0.00     0.000 C 
HETATM    5  C6  UNL     1      60.297 163.709  39.136  1.00  0.00     0.001 C 
HETATM    6  C7  UNL     1      60.896 164.805  38.254  1.00  0.00     0.010 C 
HETATM    7  C8  UNL     1      60.137 166.078  38.305  1.00  0.00     0.073 C 
HETATM    8  S1  UNL     1      59.391 166.613  36.794  1.00  0.00    -0.169 SA
HETATM    9  C9  UNL     1      59.680 165.569  35.370  1.00  0.00     0.076 C 
HETATM   10  C10 UNL     1      58.508 164.662  35.051  1.00  0.00     0.043 C 
ENDROOT
BRANCH   1  11
HETATM   11  N1  UNL     1      58.488 162.389  34.235  1.00  0.00    -0.075 N 
HETATM   12  C1  UNL     1      57.079 162.054  34.206  1.00  0.00     0.267 C 
ATOM     13  H12 UNL     1      59.080 161.559  34.184  1.00  0.00     0.277 HD
ATOM     14  H11 UNL     1      58.792 162.841  33.372  1.00  0.00     0.277 HD
ENDBRANCH   1  11
TORSDOF 1
ENDMDL
