MODEL 1
REMARK VINA RESULT: -4.721899131      0.000      0.000
REMARK  2 active torsions:
REMARK  status: ('A' for Active; 'I' for Inactive)
REMARK    1  A    between atoms: C2_2  and  C5_5 
REMARK    2  A    between atoms: C5_5  and  N1_6 
ROOT
HETATM    1  C5  UNL     1      50.019 161.518  32.142  1.00  0.00     0.326 C 
HETATM    2  C6  UNL     1      49.532 160.241  32.764  1.00  0.00     0.109 C 
HETATM    3  C7  UNL     1      48.182 160.891  32.411  1.00  0.00     0.230 C 
HETATM    4  C8  UNL     1      47.108 159.927  32.017  1.00  0.00     0.036 C 
HETATM    5  C9  UNL     1      46.477 160.485  30.751  1.00  0.00     0.004 C 
HETATM    6  C10 UNL     1      47.501 160.220  29.666  1.00  0.00     0.030 C 
HETATM    7  C11 UNL     1      48.890 160.625  30.129  1.00  0.00     0.276 C 
HETATM    8  N2  UNL     1      48.899 161.447  31.270  1.00  0.00     0.131 N 
ENDROOT
BRANCH   1   9
HETATM    9  C2  UNL     1      51.401 161.603  31.694  1.00  0.00     0.011 C 
HETATM   10  C1  UNL     1      51.792 160.964  30.413  1.00  0.00     0.019 C 
HETATM   11  C3  UNL     1      51.953 163.036  31.652  1.00  0.00     0.019 C 
HETATM   12  C4  UNL     1      52.269 160.930  32.781  1.00  0.00     0.019 C 
ENDBRANCH   1   9
BRANCH   1  13
HETATM   13  N1  UNL     1      49.717 162.617  33.101  1.00  0.00    -0.041 N 
ATOM     14  H13 UNL     1      50.318 162.580  33.924  1.00  0.00     0.277 HD
ATOM     15  H12 UNL     1      50.008 163.526  32.742  1.00  0.00     0.277 HD
ATOM     16  H11 UNL     1      48.728 162.606  33.353  1.00  0.00     0.277 HD
ENDBRANCH   1  13
TORSDOF 2
ENDMDL
MODEL 2
REMARK VINA RESULT: -4.708610944      1.310      4.200
REMARK  2 active torsions:
REMARK  status: ('A' for Active; 'I' for Inactive)
REMARK    1  A    between atoms: C2_2  and  C5_5 
REMARK    2  A    between atoms: C5_5  and  N1_6 
ROOT
HETATM    1  C5  UNL     1      48.412 160.480  31.147  1.00  0.00     0.326 C 
HETATM    2  C6  UNL     1      48.476 161.903  31.624  1.00  0.00     0.109 C 
HETATM    3  C7  UNL     1      49.669 161.314  32.399  1.00  0.00     0.230 C 
HETATM    4  C8  UNL     1      50.813 162.258  32.595  1.00  0.00     0.036 C 
HETATM    5  C9  UNL     1      52.070 161.489  32.220  1.00  0.00     0.004 C 
HETATM    6  C10 UNL     1      52.032 161.409  30.707  1.00  0.00     0.030 C 
HETATM    7  C11 UNL     1      50.651 160.995  30.228  1.00  0.00     0.276 C 
HETATM    8  N2  UNL     1      49.831 160.453  31.233  1.00  0.00     0.131 N 
ENDROOT
BRANCH   1   9
HETATM    9  C2  UNL     1      47.659 160.172  29.942  1.00  0.00     0.011 C 
HETATM   10  C1  UNL     1      48.003 160.860  28.672  1.00  0.00     0.019 C 
HETATM   11  C3  UNL     1      47.591 158.672  29.618  1.00  0.00     0.019 C 
HETATM   12  C4  UNL     1      46.183 160.531  30.227  1.00  0.00     0.019 C 
ENDBRANCH   1   9
BRANCH   1  13
HETATM   13  N1  UNL     1      47.922 159.657  32.288  1.00  0.00    -0.041 N 
ATOM     14  H13 UNL     1      48.376 159.915  33.165  1.00  0.00     0.277 HD
ATOM     15  H12 UNL     1      46.962 159.890  32.540  1.00  0.00     0.277 HD
ATOM     16  H11 UNL     1      48.031 158.664  32.083  1.00  0.00     0.277 HD
ENDBRANCH   1  13
TORSDOF 2
ENDMDL
MODEL 3
REMARK VINA RESULT: -4.641890511      0.123      1.160
REMARK  2 active torsions:
REMARK  status: ('A' for Active; 'I' for Inactive)
REMARK    1  A    between atoms: C2_2  and  C5_5 
REMARK    2  A    between atoms: C5_5  and  N1_6 
ROOT
HETATM    1  C5  UNL     1      50.012 161.477  32.166  1.00  0.00     0.326 C 
HETATM    2  C6  UNL     1      49.459 160.215  32.762  1.00  0.00     0.109 C 
HETATM    3  C7  UNL     1      48.148 160.895  32.328  1.00  0.00     0.230 C 
HETATM    4  C8  UNL     1      47.077 159.954  31.875  1.00  0.00     0.036 C 
HETATM    5  C9  UNL     1      46.535 160.520  30.572  1.00  0.00     0.004 C 
HETATM    6  C10 UNL     1      47.614 160.227  29.549  1.00  0.00     0.030 C 
HETATM    7  C11 UNL     1      48.982 160.602  30.093  1.00  0.00     0.276 C 
HETATM    8  N2  UNL     1      48.944 161.429  31.229  1.00  0.00     0.131 N 
ENDROOT
BRANCH   1   9
HETATM    9  C2  UNL     1      51.419 161.528  31.800  1.00  0.00     0.011 C 
HETATM   10  C1  UNL     1      52.430 160.931  32.709  1.00  0.00     0.019 C 
HETATM   11  C3  UNL     1      51.717 160.977  30.397  1.00  0.00     0.019 C 
HETATM   12  C4  UNL     1      51.799 163.021  31.672  1.00  0.00     0.019 C 
ENDBRANCH   1   9
BRANCH   1  13
HETATM   13  N1  UNL     1      49.680 162.587  33.102  1.00  0.00    -0.041 N 
ATOM     14  H13 UNL     1      49.855 163.502  32.685  1.00  0.00     0.277 HD
ATOM     15  H12 UNL     1      48.674 162.676  33.244  1.00  0.00     0.277 HD
ATOM     16  H11 UNL     1      50.179 162.470  33.983  1.00  0.00     0.277 HD
ENDBRANCH   1  13
TORSDOF 2
ENDMDL
MODEL 4
REMARK VINA RESULT: -4.528358737      1.303      4.115
REMARK  2 active torsions:
REMARK  status: ('A' for Active; 'I' for Inactive)
REMARK    1  A    between atoms: C2_2  and  C5_5 
REMARK    2  A    between atoms: C5_5  and  N1_6 
ROOT
HETATM    1  C5  UNL     1      48.384 160.537  31.242  1.00  0.00     0.326 C 
HETATM    2  C6  UNL     1      48.502 161.948  31.743  1.00  0.00     0.109 C 
HETATM    3  C7  UNL     1      49.709 161.316  32.459  1.00  0.00     0.230 C 
HETATM    4  C8  UNL     1      50.882 162.227  32.628  1.00  0.00     0.036 C 
HETATM    5  C9  UNL     1      52.104 161.436  32.189  1.00  0.00     0.004 C 
HETATM    6  C10 UNL     1      52.006 161.388  30.678  1.00  0.00     0.030 C 
HETATM    7  C11 UNL     1      50.597 161.017  30.245  1.00  0.00     0.276 C 
HETATM    8  N2  UNL     1      49.804 160.475  31.271  1.00  0.00     0.131 N 
ENDROOT
BRANCH   1   9
HETATM    9  C2  UNL     1      47.577 160.272  30.061  1.00  0.00     0.011 C 
HETATM   10  C1  UNL     1      46.137 160.632  30.067  1.00  0.00     0.019 C 
HETATM   11  C3  UNL     1      48.164 160.850  28.765  1.00  0.00     0.019 C 
HETATM   12  C4  UNL     1      47.628 158.747  29.813  1.00  0.00     0.019 C 
ENDBRANCH   1   9
BRANCH   1  13
HETATM   13  N1  UNL     1      47.918 159.704  32.385  1.00  0.00    -0.041 N 
ATOM     14  H13 UNL     1      47.048 160.056  32.784  1.00  0.00     0.277 HD
ATOM     15  H12 UNL     1      47.585 158.790  32.079  1.00  0.00     0.277 HD
ATOM     16  H11 UNL     1      48.653 159.624  33.089  1.00  0.00     0.277 HD
ENDBRANCH   1  13
TORSDOF 2
ENDMDL
MODEL 5
REMARK VINA RESULT: -4.503435417      9.274     11.442
REMARK  2 active torsions:
REMARK  status: ('A' for Active; 'I' for Inactive)
REMARK    1  A    between atoms: C2_2  and  C5_5 
REMARK    2  A    between atoms: C5_5  and  N1_6 
ROOT
HETATM    1  C5  UNL     1      59.317 161.405  38.068  1.00  0.00     0.326 C 
HETATM    2  C6  UNL     1      58.961 162.801  38.494  1.00  0.00     0.109 C 
HETATM    3  C7  UNL     1      59.424 163.079  37.052  1.00  0.00     0.230 C 
HETATM    4  C8  UNL     1      58.688 164.184  36.363  1.00  0.00     0.036 C 
HETATM    5  C9  UNL     1      58.314 163.654  34.988  1.00  0.00     0.004 C 
HETATM    6  C10 UNL     1      57.178 162.685  35.249  1.00  0.00     0.030 C 
HETATM    7  C11 UNL     1      57.515 161.766  36.411  1.00  0.00     0.276 C 
HETATM    8  N2  UNL     1      58.876 161.759  36.763  1.00  0.00     0.131 N 
ENDROOT
BRANCH   1   9
HETATM    9  C2  UNL     1      58.800 160.280  38.830  1.00  0.00     0.011 C 
HETATM   10  C1  UNL     1      57.543 160.441  39.604  1.00  0.00     0.019 C 
HETATM   11  C3  UNL     1      58.641 158.993  38.007  1.00  0.00     0.019 C 
HETATM   12  C4  UNL     1      59.884 159.898  39.863  1.00  0.00     0.019 C 
ENDBRANCH   1   9
BRANCH   1  13
HETATM   13  N1  UNL     1      60.803 161.337  37.987  1.00  0.00    -0.041 N 
ATOM     14  H13 UNL     1      61.130 161.284  37.022  1.00  0.00     0.277 HD
ATOM     15  H12 UNL     1      61.239 162.222  38.246  1.00  0.00     0.277 HD
ATOM     16  H11 UNL     1      61.154 160.562  38.550  1.00  0.00     0.277 HD
ENDBRANCH   1  13
TORSDOF 2
ENDMDL
