MODEL 1
REMARK VINA RESULT: -4.771271287      0.000      0.000
REMARK  4 active torsions:
REMARK  status: ('A' for Active; 'I' for Inactive)
REMARK    1  A    between atoms: N1_2  and  C3_4 
REMARK    2  A    between atoms: C3_4  and  S1_8 
REMARK    3  A    between atoms: S1_8  and  C4_9 
REMARK    4  A    between atoms: C4_9  and  C5_10 
ROOT
HETATM    1  C3  UNL     1      52.077 161.330  31.218  1.00  0.00     0.135 C 
HETATM    2  N2  UNL     1      52.278 160.469  30.276  1.00  0.00    -0.380 N 
ATOM      3  H21 UNL     1      51.558 159.799  30.005  1.00  0.00     0.158 HD
ATOM      4  H22 UNL     1      53.186 160.483  29.812  1.00  0.00     0.158 HD
ENDROOT
BRANCH   1   5
HETATM    5  N1  UNL     1      53.074 162.257  31.594  1.00  0.00    -0.371 N 
HETATM    6  C1  UNL     1      52.730 163.457  32.340  1.00  0.00     0.151 C 
HETATM    7  C2  UNL     1      54.474 162.072  31.267  1.00  0.00     0.151 C 
ENDBRANCH   1   5
BRANCH   1   8
HETATM    8  S1  UNL     1      50.477 161.305  32.036  1.00  0.00    -0.094 SA
BRANCH   8   9
HETATM    9  C4  UNL     1      49.171 160.801  30.909  1.00  0.00     0.090 C 
BRANCH   9  10
HETATM   10  C5  UNL     1      47.866 160.817  31.652  1.00  0.00    -0.043 C 
HETATM   11  C6  UNL     1      46.733 160.770  30.664  1.00  0.00     0.015 C 
HETATM   12  C7  UNL     1      47.839 162.099  32.476  1.00  0.00     0.015 C 
HETATM   13  C8  UNL     1      47.771 159.619  32.573  1.00  0.00     0.015 C 
ENDBRANCH   9  10
ENDBRANCH   8   9
ENDBRANCH   1   8
TORSDOF 4
ENDMDL
MODEL 2
REMARK VINA RESULT: -4.752488376      1.379      1.852
REMARK  4 active torsions:
REMARK  status: ('A' for Active; 'I' for Inactive)
REMARK    1  A    between atoms: N1_2  and  C3_4 
REMARK    2  A    between atoms: C3_4  and  S1_8 
REMARK    3  A    between atoms: S1_8  and  C4_9 
REMARK    4  A    between atoms: C4_9  and  C5_10 
ROOT
HETATM    1  C3  UNL     1      52.659 162.403  32.039  1.00  0.00     0.135 C 
HETATM    2  N2  UNL     1      52.280 163.550  32.493  1.00  0.00    -0.380 N 
ATOM      3  H21 UNL     1      51.296 163.818  32.511  1.00  0.00     0.158 HD
ATOM      4  H22 UNL     1      53.004 164.183  32.836  1.00  0.00     0.158 HD
ENDROOT
BRANCH   1   5
HETATM    5  N1  UNL     1      54.022 162.033  32.014  1.00  0.00    -0.371 N 
HETATM    6  C1  UNL     1      54.690 161.574  33.221  1.00  0.00     0.151 C 
HETATM    7  C2  UNL     1      54.823 162.086  30.807  1.00  0.00     0.151 C 
ENDBRANCH   1   5
BRANCH   1   8
HETATM    8  S1  UNL     1      51.384 161.289  31.436  1.00  0.00    -0.094 SA
BRANCH   8   9
HETATM    9  C4  UNL     1      50.133 160.984  32.689  1.00  0.00     0.090 C 
BRANCH   9  10
HETATM   10  C5  UNL     1      48.785 160.979  32.026  1.00  0.00    -0.043 C 
HETATM   11  C6  UNL     1      48.966 160.847  30.538  1.00  0.00     0.015 C 
HETATM   12  C7  UNL     1      48.103 162.292  32.392  1.00  0.00     0.015 C 
HETATM   13  C8  UNL     1      47.956 159.817  32.530  1.00  0.00     0.015 C 
ENDBRANCH   9  10
ENDBRANCH   8   9
ENDBRANCH   1   8
TORSDOF 4
ENDMDL
MODEL 3
REMARK VINA RESULT: -4.749968397      0.044      1.290
REMARK  4 active torsions:
REMARK  status: ('A' for Active; 'I' for Inactive)
REMARK    1  A    between atoms: N1_2  and  C3_4 
REMARK    2  A    between atoms: C3_4  and  S1_8 
REMARK    3  A    between atoms: S1_8  and  C4_9 
REMARK    4  A    between atoms: C4_9  and  C5_10 
ROOT
HETATM    1  C3  UNL     1      52.088 161.317  31.218  1.00  0.00     0.135 C 
HETATM    2  N2  UNL     1      52.293 160.470  30.266  1.00  0.00    -0.380 N 
ATOM      3  H21 UNL     1      51.579 159.794  29.991  1.00  0.00     0.158 HD
ATOM      4  H22 UNL     1      53.198 160.500  29.796  1.00  0.00     0.158 HD
ENDROOT
BRANCH   1   5
HETATM    5  N1  UNL     1      53.076 162.252  31.599  1.00  0.00    -0.371 N 
HETATM    6  C1  UNL     1      52.717 163.459  32.326  1.00  0.00     0.151 C 
HETATM    7  C2  UNL     1      54.482 162.069  31.295  1.00  0.00     0.151 C 
ENDBRANCH   1   5
BRANCH   1   8
HETATM    8  S1  UNL     1      50.494 161.264  32.046  1.00  0.00    -0.094 SA
BRANCH   8   9
HETATM    9  C4  UNL     1      49.181 160.790  30.913  1.00  0.00     0.090 C 
BRANCH   9  10
HETATM   10  C5  UNL     1      47.873 160.846  31.649  1.00  0.00    -0.043 C 
HETATM   11  C6  UNL     1      47.763 159.649  32.555  1.00  0.00     0.015 C 
HETATM   12  C7  UNL     1      46.770 160.854  30.597  1.00  0.00     0.015 C 
HETATM   13  C8  UNL     1      47.791 162.107  32.482  1.00  0.00     0.015 C 
ENDBRANCH   9  10
ENDBRANCH   8   9
ENDBRANCH   1   8
TORSDOF 4
ENDMDL
MODEL 4
REMARK VINA RESULT: -4.711973882      0.047      1.286
REMARK  4 active torsions:
REMARK  status: ('A' for Active; 'I' for Inactive)
REMARK    1  A    between atoms: N1_2  and  C3_4 
REMARK    2  A    between atoms: C3_4  and  S1_8 
REMARK    3  A    between atoms: S1_8  and  C4_9 
REMARK    4  A    between atoms: C4_9  and  C5_10 
ROOT
HETATM    1  C3  UNL     1      52.066 161.320  31.232  1.00  0.00     0.135 C 
HETATM    2  N2  UNL     1      52.278 160.467  30.286  1.00  0.00    -0.380 N 
ATOM      3  H21 UNL     1      51.566 159.790  30.010  1.00  0.00     0.158 HD
ATOM      4  H22 UNL     1      53.187 160.493  29.823  1.00  0.00     0.158 HD
ENDROOT
BRANCH   1   5
HETATM    5  N1  UNL     1      53.052 162.257  31.614  1.00  0.00    -0.371 N 
HETATM    6  C1  UNL     1      52.689 163.469  32.330  1.00  0.00     0.151 C 
HETATM    7  C2  UNL     1      54.460 162.070  31.323  1.00  0.00     0.151 C 
ENDBRANCH   1   5
BRANCH   1   8
HETATM    8  S1  UNL     1      50.466 161.274  32.047  1.00  0.00    -0.094 SA
BRANCH   8   9
HETATM    9  C4  UNL     1      49.164 160.777  30.911  1.00  0.00     0.090 C 
BRANCH   9  10
HETATM   10  C5  UNL     1      47.849 160.842  31.635  1.00  0.00    -0.043 C 
HETATM   11  C6  UNL     1      47.768 162.136  32.398  1.00  0.00     0.015 C 
HETATM   12  C7  UNL     1      47.795 159.638  32.568  1.00  0.00     0.015 C 
HETATM   13  C8  UNL     1      46.703 160.774  30.649  1.00  0.00     0.015 C 
ENDBRANCH   9  10
ENDBRANCH   8   9
ENDBRANCH   1   8
TORSDOF 4
ENDMDL
MODEL 5
REMARK VINA RESULT: -4.702279566      1.373      2.161
REMARK  4 active torsions:
REMARK  status: ('A' for Active; 'I' for Inactive)
REMARK    1  A    between atoms: N1_2  and  C3_4 
REMARK    2  A    between atoms: C3_4  and  S1_8 
REMARK    3  A    between atoms: S1_8  and  C4_9 
REMARK    4  A    between atoms: C4_9  and  C5_10 
ROOT
HETATM    1  C3  UNL     1      52.648 162.397  32.038  1.00  0.00     0.135 C 
HETATM    2  N2  UNL     1      52.268 163.544  32.491  1.00  0.00    -0.380 N 
ATOM      3  H21 UNL     1      51.284 163.813  32.502  1.00  0.00     0.158 HD
ATOM      4  H22 UNL     1      52.991 164.176  32.839  1.00  0.00     0.158 HD
ENDROOT
BRANCH   1   5
HETATM    5  N1  UNL     1      54.011 162.024  32.023  1.00  0.00    -0.371 N 
HETATM    6  C1  UNL     1      54.670 161.562  33.234  1.00  0.00     0.151 C 
HETATM    7  C2  UNL     1      54.820 162.077  30.821  1.00  0.00     0.151 C 
ENDBRANCH   1   5
BRANCH   1   8
HETATM    8  S1  UNL     1      51.376 161.285  31.426  1.00  0.00    -0.094 SA
BRANCH   8   9
HETATM    9  C4  UNL     1      50.109 160.991  32.667  1.00  0.00     0.090 C 
BRANCH   9  10
HETATM   10  C5  UNL     1      48.768 160.993  31.989  1.00  0.00    -0.043 C 
HETATM   11  C6  UNL     1      48.074 162.298  32.270  1.00  0.00     0.015 C 
HETATM   12  C7  UNL     1      47.985 159.810  32.547  1.00  0.00     0.015 C 
HETATM   13  C8  UNL     1      48.935 160.832  30.493  1.00  0.00     0.015 C 
ENDBRANCH   9  10
ENDBRANCH   8   9
ENDBRANCH   1   8
TORSDOF 4
ENDMDL
