MODEL 1
REMARK VINA RESULT: -7.414976140      0.000      0.000
REMARK  3 active torsions:
REMARK  status: ('A' for Active; 'I' for Inactive)
REMARK    1  A    between atoms: C2_2  and  C3_3 
REMARK    2  A    between atoms: N1_7  and  C7_8 
REMARK    3  A    between atoms: C11_18  and  N5_19 
ROOT
HETATM    1  C3  UNL     1     -24.987  47.956  14.347  1.00  0.00    -0.025 A 
HETATM    2  C4  UNL     1     -25.123  48.166  15.737  1.00  0.00     0.041 A 
HETATM    3  C5  UNL     1     -26.252  48.364  16.498  1.00  0.00     0.039 A 
HETATM    4  C6  UNL     1     -27.679  48.423  16.112  1.00  0.00     0.071 C 
HETATM    5  N1  UNL     1     -25.810  48.531  17.784  1.00  0.00    -0.295 N 
HETATM    6  N2  UNL     1     -24.506  48.443  17.811  1.00  0.00    -0.282 N 
ATOM      7  H2  UNL     1     -23.927  48.530  18.647  1.00  0.00     0.189 HD
HETATM    8  C9  UNL     1     -24.040  48.219  16.557  1.00  0.00     0.134 A 
HETATM    9  N3  UNL     1     -22.810  48.074  16.079  1.00  0.00    -0.326 N 
ATOM     10  H3  UNL     1     -22.008  48.115  16.707  1.00  0.00     0.169 HD
HETATM   11  C10 UNL     1     -22.631  47.876  14.776  1.00  0.00     0.137 A 
HETATM   12  N4  UNL     1     -21.363  47.724  14.288  1.00  0.00    -0.176 N 
ATOM     13  H4  UNL     1     -20.585  47.772  14.947  1.00  0.00     0.186 HD
HETATM   14  C11 UNL     1     -21.083  47.517  12.995  1.00  0.00     0.679 A 
HETATM   15  N6  UNL     1     -22.094  47.451  12.121  1.00  0.00    -0.176 N 
ATOM     16  H6  UNL     1     -21.896  47.293  11.133  1.00  0.00     0.186 HD
HETATM   17  C12 UNL     1     -23.402  47.594  12.538  1.00  0.00     0.129 A 
HETATM   18  N7  UNL     1     -24.333  47.516  11.677  1.00  0.00    -0.384 N 
ATOM     19  H71 UNL     1     -25.299  47.621  11.986  1.00  0.00     0.157 HD
ATOM     20  H72 UNL     1     -24.131  47.357  10.690  1.00  0.00     0.157 HD
HETATM   21  C13 UNL     1     -23.672  47.807  13.863  1.00  0.00     0.060 A 
ENDROOT
BRANCH  14  22
HETATM   22  N5  UNL     1     -19.866  47.380  12.580  1.00  0.00    -0.234 N 
ATOM     23  H52 UNL     1     -19.181  48.113  12.766  1.00  0.00     0.174 HD
ATOM     24  H51 UNL     1     -19.568  46.551  12.065  1.00  0.00     0.174 HD
ENDBRANCH  14  22
BRANCH   1  25
HETATM   25  C2  UNL     1     -26.082  47.829  13.418  1.00  0.00     0.036 C 
HETATM   26  C1  UNL     1     -26.423  49.079  12.603  1.00  0.00     0.010 C 
ENDBRANCH   1  25
BRANCH   5  27
HETATM   27  C7  UNL     1     -26.696  48.780  18.922  1.00  0.00     0.144 C 
HETATM   28  C8  UNL     1     -26.487  50.219  19.327  1.00  0.00     0.028 C 
ENDBRANCH   5  27
TORSDOF 3
ENDMDL
MODEL 2
REMARK VINA RESULT: -7.295767397      1.109      5.500
REMARK  3 active torsions:
REMARK  status: ('A' for Active; 'I' for Inactive)
REMARK    1  A    between atoms: C2_2  and  C3_3 
REMARK    2  A    between atoms: N1_7  and  C7_8 
REMARK    3  A    between atoms: C11_18  and  N5_19 
ROOT
HETATM    1  C3  UNL     1     -25.135  48.101  14.495  1.00  0.00    -0.025 A 
HETATM    2  C4  UNL     1     -23.766  47.989  14.167  1.00  0.00     0.041 A 
HETATM    3  C5  UNL     1     -23.160  47.774  12.951  1.00  0.00     0.039 A 
HETATM    4  C6  UNL     1     -23.740  47.589  11.603  1.00  0.00     0.071 C 
HETATM    5  N1  UNL     1     -21.814  47.736  13.207  1.00  0.00    -0.295 N 
HETATM    6  N2  UNL     1     -21.609  47.914  14.485  1.00  0.00    -0.282 N 
ATOM      7  H2  UNL     1     -20.694  47.931  14.937  1.00  0.00     0.189 HD
HETATM    8  C9  UNL     1     -22.798  48.072  15.119  1.00  0.00     0.134 A 
HETATM    9  N3  UNL     1     -23.105  48.263  16.396  1.00  0.00    -0.326 N 
ATOM     10  H3  UNL     1     -22.368  48.325  17.097  1.00  0.00     0.169 HD
HETATM   11  C10 UNL     1     -24.381  48.373  16.755  1.00  0.00     0.137 A 
HETATM   12  N4  UNL     1     -24.694  48.573  18.070  1.00  0.00    -0.176 N 
ATOM     13  H4  UNL     1     -23.930  48.629  18.743  1.00  0.00     0.186 HD
HETATM   14  C11 UNL     1     -25.947  48.699  18.526  1.00  0.00     0.679 A 
HETATM   15  N6  UNL     1     -26.959  48.629  17.653  1.00  0.00    -0.176 N 
ATOM     16  H6  UNL     1     -27.919  48.724  17.987  1.00  0.00     0.186 HD
HETATM   17  C12 UNL     1     -26.722  48.430  16.309  1.00  0.00     0.129 A 
HETATM   18  N7  UNL     1     -27.711  48.379  15.513  1.00  0.00    -0.384 N 
ATOM     19  H71 UNL     1     -27.536  48.232  14.519  1.00  0.00     0.157 HD
ATOM     20  H72 UNL     1     -28.669  48.475  15.849  1.00  0.00     0.157 HD
HETATM   21  C13 UNL     1     -25.437  48.302  15.858  1.00  0.00     0.060 A 
ENDROOT
BRANCH  14  22
HETATM   22  N5  UNL     1     -26.194  48.887  19.782  1.00  0.00    -0.234 N 
ATOM     23  H52 UNL     1     -25.421  48.974  20.443  1.00  0.00     0.174 HD
ATOM     24  H51 UNL     1     -27.149  48.949  20.134  1.00  0.00     0.174 HD
ENDBRANCH  14  22
BRANCH   1  25
HETATM   25  C2  UNL     1     -26.218  48.081  13.545  1.00  0.00     0.036 C 
HETATM   26  C1  UNL     1     -26.182  49.161  12.460  1.00  0.00     0.010 C 
ENDBRANCH   1  25
BRANCH   5  27
HETATM   27  C7  UNL     1     -20.797  47.515  12.177  1.00  0.00     0.144 C 
HETATM   28  C8  UNL     1     -20.864  48.699  11.243  1.00  0.00     0.028 C 
ENDBRANCH   5  27
TORSDOF 3
ENDMDL
MODEL 3
REMARK VINA RESULT: -5.711465498      1.524      3.100
REMARK  3 active torsions:
REMARK  status: ('A' for Active; 'I' for Inactive)
REMARK    1  A    between atoms: C2_2  and  C3_3 
REMARK    2  A    between atoms: N1_7  and  C7_8 
REMARK    3  A    between atoms: C11_18  and  N5_19 
ROOT
HETATM    1  C3  UNL     1     -23.107  47.758  14.809  1.00  0.00    -0.025 A 
HETATM    2  C4  UNL     1     -24.416  48.011  15.274  1.00  0.00     0.041 A 
HETATM    3  C5  UNL     1     -24.946  47.894  16.538  1.00  0.00     0.039 A 
HETATM    4  C6  UNL     1     -24.324  47.467  17.810  1.00  0.00     0.071 C 
HETATM    5  N1  UNL     1     -26.264  48.250  16.423  1.00  0.00    -0.295 N 
HETATM    6  N2  UNL     1     -26.525  48.562  15.181  1.00  0.00    -0.282 N 
ATOM      7  H2  UNL     1     -27.434  48.863  14.828  1.00  0.00     0.189 HD
HETATM    8  C9  UNL     1     -25.402  48.424  14.433  1.00  0.00     0.134 A 
HETATM    9  N3  UNL     1     -25.169  48.605  13.139  1.00  0.00    -0.326 N 
ATOM     10  H3  UNL     1     -25.918  48.916  12.521  1.00  0.00     0.169 HD
HETATM   11  C10 UNL     1     -23.951  48.378  12.653  1.00  0.00     0.137 A 
HETATM   12  N4  UNL     1     -23.714  48.568  11.320  1.00  0.00    -0.176 N 
ATOM     13  H4  UNL     1     -24.488  48.879  10.734  1.00  0.00     0.186 HD
HETATM   14  C11 UNL     1     -22.523  48.369  10.741  1.00  0.00     0.679 A 
HETATM   15  N6  UNL     1     -21.499  47.962  11.499  1.00  0.00    -0.176 N 
ATOM     16  H6  UNL     1     -20.586  47.808  11.071  1.00  0.00     0.186 HD
HETATM   17  C12 UNL     1     -21.660  47.750  12.853  1.00  0.00     0.129 A 
HETATM   18  N7  UNL     1     -20.660  47.372  13.539  1.00  0.00    -0.384 N 
ATOM     19  H71 UNL     1     -20.779  47.215  14.539  1.00  0.00     0.157 HD
ATOM     20  H72 UNL     1     -19.748  47.219  13.108  1.00  0.00     0.157 HD
HETATM   21  C13 UNL     1     -22.883  47.955  13.431  1.00  0.00     0.060 A 
ENDROOT
BRANCH  14  22
HETATM   22  N5  UNL     1     -22.347  48.562   9.474  1.00  0.00    -0.234 N 
ATOM     23  H52 UNL     1     -23.116  48.397   8.824  1.00  0.00     0.174 HD
ATOM     24  H51 UNL     1     -21.451  48.877   9.102  1.00  0.00     0.174 HD
ENDBRANCH  14  22
BRANCH   1  25
HETATM   25  C2  UNL     1     -21.993  47.375  15.640  1.00  0.00     0.036 C 
HETATM   26  C1  UNL     1     -21.819  45.874  15.884  1.00  0.00     0.010 C 
ENDBRANCH   1  25
BRANCH   5  27
HETATM   27  C7  UNL     1     -27.205  48.255  17.545  1.00  0.00     0.144 C 
HETATM   28  C8  UNL     1     -26.729  49.318  18.505  1.00  0.00     0.028 C 
ENDBRANCH   5  27
TORSDOF 3
ENDMDL
MODEL 4
REMARK VINA RESULT: -5.642217539      1.427      2.983
REMARK  3 active torsions:
REMARK  status: ('A' for Active; 'I' for Inactive)
REMARK    1  A    between atoms: C2_2  and  C3_3 
REMARK    2  A    between atoms: N1_7  and  C7_8 
REMARK    3  A    between atoms: C11_18  and  N5_19 
ROOT
HETATM    1  C3  UNL     1     -23.482  47.866  15.615  1.00  0.00    -0.025 A 
HETATM    2  C4  UNL     1     -24.779  48.169  16.082  1.00  0.00     0.041 A 
HETATM    3  C5  UNL     1     -25.267  48.231  17.367  1.00  0.00     0.039 A 
HETATM    4  C6  UNL     1     -24.600  48.000  18.666  1.00  0.00     0.071 C 
HETATM    5  N1  UNL     1     -26.594  48.552  17.246  1.00  0.00    -0.295 N 
HETATM    6  N2  UNL     1     -26.899  48.677  15.981  1.00  0.00    -0.282 N 
ATOM      7  H2  UNL     1     -27.823  48.914  15.619  1.00  0.00     0.189 HD
HETATM    8  C9  UNL     1     -25.797  48.445  15.224  1.00  0.00     0.134 A 
HETATM    9  N3  UNL     1     -25.608  48.439  13.910  1.00  0.00    -0.326 N 
ATOM     10  H3  UNL     1     -26.381  48.649  13.280  1.00  0.00     0.169 HD
HETATM   11  C10 UNL     1     -24.403  48.158  13.422  1.00  0.00     0.137 A 
HETATM   12  N4  UNL     1     -24.211  48.155  12.069  1.00  0.00    -0.176 N 
ATOM     13  H4  UNL     1     -25.008  48.369  11.469  1.00  0.00     0.186 HD
HETATM   14  C11 UNL     1     -23.035  47.888  11.484  1.00  0.00     0.679 A 
HETATM   15  N6  UNL     1     -21.982  47.607  12.259  1.00  0.00    -0.176 N 
ATOM     16  H6  UNL     1     -21.080  47.403  11.828  1.00  0.00     0.186 HD
HETATM   17  C12 UNL     1     -22.097  47.591  13.634  1.00  0.00     0.129 A 
HETATM   18  N7  UNL     1     -21.070  47.328  14.333  1.00  0.00    -0.384 N 
ATOM     19  H71 UNL     1     -21.155  47.317  15.349  1.00  0.00     0.157 HD
ATOM     20  H72 UNL     1     -20.170  47.125  13.899  1.00  0.00     0.157 HD
HETATM   21  C13 UNL     1     -23.305  47.865  14.216  1.00  0.00     0.060 A 
ENDROOT
BRANCH  14  22
HETATM   22  N5  UNL     1     -22.902  47.898  10.198  1.00  0.00    -0.234 N 
ATOM     23  H52 UNL     1     -21.972  47.827   9.784  1.00  0.00     0.174 HD
ATOM     24  H51 UNL     1     -23.709  47.975   9.579  1.00  0.00     0.174 HD
ENDBRANCH  14  22
BRANCH   1  25
HETATM   25  C2  UNL     1     -22.336  47.620  16.455  1.00  0.00     0.036 C 
HETATM   26  C1  UNL     1     -21.884  48.786  17.337  1.00  0.00     0.010 C 
ENDBRANCH   1  25
BRANCH   5  27
HETATM   27  C7  UNL     1     -27.500  48.708  18.386  1.00  0.00     0.144 C 
HETATM   28  C8  UNL     1     -26.979  49.871  19.196  1.00  0.00     0.028 C 
ENDBRANCH   5  27
TORSDOF 3
ENDMDL
MODEL 5
REMARK VINA RESULT: -5.452599334      1.988      5.990
REMARK  3 active torsions:
REMARK  status: ('A' for Active; 'I' for Inactive)
REMARK    1  A    between atoms: C2_2  and  C3_3 
REMARK    2  A    between atoms: N1_7  and  C7_8 
REMARK    3  A    between atoms: C11_18  and  N5_19 
ROOT
HETATM    1  C3  UNL     1     -23.868  48.069  15.417  1.00  0.00    -0.025 A 
HETATM    2  C4  UNL     1     -24.532  48.181  14.176  1.00  0.00     0.041 A 
HETATM    3  C5  UNL     1     -24.048  48.048  12.895  1.00  0.00     0.039 A 
HETATM    4  C6  UNL     1     -22.686  47.748  12.405  1.00  0.00     0.071 C 
HETATM    5  N1  UNL     1     -25.117  48.274  12.068  1.00  0.00    -0.295 N 
HETATM    6  N2  UNL     1     -26.179  48.528  12.787  1.00  0.00    -0.282 N 
ATOM      7  H2  UNL     1     -27.108  48.729  12.415  1.00  0.00     0.189 HD
HETATM    8  C9  UNL     1     -25.857  48.482  14.104  1.00  0.00     0.134 A 
HETATM    9  N3  UNL     1     -26.576  48.682  15.202  1.00  0.00    -0.326 N 
ATOM     10  H3  UNL     1     -27.568  48.905  15.131  1.00  0.00     0.169 HD
HETATM   11  C10 UNL     1     -25.994  48.588  16.394  1.00  0.00     0.137 A 
HETATM   12  N4  UNL     1     -26.738  48.791  17.522  1.00  0.00    -0.176 N 
ATOM     13  H4  UNL     1     -27.728  49.014  17.412  1.00  0.00     0.186 HD
HETATM   14  C11 UNL     1     -26.243  48.715  18.764  1.00  0.00     0.679 A 
HETATM   15  N6  UNL     1     -24.947  48.423  18.923  1.00  0.00    -0.176 N 
ATOM     16  H6  UNL     1     -24.556  48.361  19.863  1.00  0.00     0.186 HD
HETATM   17  C12 UNL     1     -24.132  48.203  17.831  1.00  0.00     0.129 A 
HETATM   18  N7  UNL     1     -22.909  47.919  18.026  1.00  0.00    -0.384 N 
ATOM     19  H71 UNL     1     -22.306  47.757  17.220  1.00  0.00     0.157 HD
ATOM     20  H72 UNL     1     -22.521  47.858  18.967  1.00  0.00     0.157 HD
HETATM   21  C13 UNL     1     -24.652  48.286  16.569  1.00  0.00     0.060 A 
ENDROOT
BRANCH  14  22
HETATM   22  N5  UNL     1     -26.988  48.916  19.803  1.00  0.00    -0.234 N 
ATOM     23  H52 UNL     1     -27.665  49.679  19.801  1.00  0.00     0.174 HD
ATOM     24  H51 UNL     1     -26.915  48.327  20.633  1.00  0.00     0.174 HD
ENDBRANCH  14  22
BRANCH   1  25
HETATM   25  C2  UNL     1     -22.485  47.698  15.584  1.00  0.00     0.036 C 
HETATM   26  C1  UNL     1     -22.166  46.207  15.452  1.00  0.00     0.010 C 
ENDBRANCH   1  25
BRANCH   5  27
HETATM   27  C7  UNL     1     -25.035  48.238  10.606  1.00  0.00     0.144 C 
HETATM   28  C8  UNL     1     -24.523  49.589  10.169  1.00  0.00     0.028 C 
ENDBRANCH   5  27
TORSDOF 3
ENDMDL
