MODEL 1
REMARK VINA RESULT: -6.498897859      0.000      0.000
REMARK  4 active torsions:
REMARK  status: ('A' for Active; 'I' for Inactive)
REMARK    1  A    between atoms: N1_1  and  C1_4 
REMARK    2  A    between atoms: C3_8  and  C4_9 
REMARK    3  A    between atoms: C4_9  and  C5_10 
REMARK    4  A    between atoms: C4_9  and  C9_18 
ROOT
HETATM    1  C1  UNL     1     -24.645  49.331  11.240  1.00  0.00     0.677 A 
HETATM    2  N2  UNL     1     -25.799  48.737  11.583  1.00  0.00    -0.201 N 
ATOM      3  H2  UNL     1     -26.632  48.806  10.999  1.00  0.00     0.183 HD
HETATM    4  C2  UNL     1     -25.801  48.048  12.735  1.00  0.00     0.118 A 
HETATM    5  C3  UNL     1     -24.710  47.914  13.568  1.00  0.00     0.017 A 
HETATM    6  C13 UNL     1     -23.546  48.534  13.188  1.00  0.00     0.123 A 
HETATM    7  N5  UNL     1     -22.464  48.544  13.814  1.00  0.00    -0.385 N 
ATOM      8  H51 UNL     1     -21.598  49.004  13.532  1.00  0.00     0.157 HD
ATOM      9  H52 UNL     1     -22.462  48.021  14.690  1.00  0.00     0.157 HD
HETATM   10  N6  UNL     1     -23.549  49.236  12.012  1.00  0.00    -0.177 N 
ATOM     11  H6  UNL     1     -22.692  49.702  11.713  1.00  0.00     0.185 HD
ENDROOT
BRANCH   5  12
HETATM   12  C4  UNL     1     -24.775  47.124  14.812  1.00  0.00     0.116 C 
BRANCH  12  13
HETATM   13  C5  UNL     1     -25.425  47.832  15.939  1.00  0.00    -0.012 A 
HETATM   14  C6  UNL     1     -24.925  47.763  17.216  1.00  0.00     0.098 A 
HETATM   15  N3  UNL     1     -25.463  48.369  18.277  1.00  0.00    -0.362 N 
HETATM   16  C7  UNL     1     -26.571  49.102  18.091  1.00  0.00     0.180 A 
ATOM     17  H3  UNL     1     -25.043  48.279  19.203  1.00  0.00     0.166 HD
HETATM   18  N4  UNL     1     -27.087  49.191  16.858  1.00  0.00    -0.362 N 
HETATM   19  C8  UNL     1     -26.575  48.596  15.771  1.00  0.00     0.098 A 
ATOM     20  H4  UNL     1     -27.930  49.753  16.738  1.00  0.00     0.166 HD
ENDBRANCH  12  13
BRANCH  12  21
HETATM   21  C9  UNL     1     -23.428  46.677  15.286  1.00  0.00     0.065 A 
HETATM   22  C10 UNL     1     -22.697  47.270  16.308  1.00  0.00     0.035 A 
HETATM   23  C11 UNL     1     -21.516  46.596  16.466  1.00  0.00     0.027 A 
HETATM   24  C12 UNL     1     -21.556  45.595  15.520  1.00  0.00     0.142 A 
HETATM   25  O1  UNL     1     -22.686  45.686  14.862  1.00  0.00    -0.326 OA
ENDBRANCH  12  21
ENDBRANCH   5  12
BRANCH   1  26
HETATM   26  N1  UNL     1     -24.603  50.000  10.146  1.00  0.00    -0.234 N 
ATOM     27  H12 UNL     1     -25.305  49.840   9.423  1.00  0.00     0.174 HD
ATOM     28  H11 UNL     1     -23.858  50.687  10.024  1.00  0.00     0.174 HD
ENDBRANCH   1  26
TORSDOF 4
ENDMDL
MODEL 2
REMARK VINA RESULT: -6.196059069      0.501      1.476
REMARK  4 active torsions:
REMARK  status: ('A' for Active; 'I' for Inactive)
REMARK    1  A    between atoms: N1_1  and  C1_4 
REMARK    2  A    between atoms: C3_8  and  C4_9 
REMARK    3  A    between atoms: C4_9  and  C5_10 
REMARK    4  A    between atoms: C4_9  and  C9_18 
ROOT
HETATM    1  C1  UNL     1     -24.335  49.450  11.331  1.00  0.00     0.677 A 
HETATM    2  N2  UNL     1     -23.243  49.251  12.088  1.00  0.00    -0.201 N 
ATOM      3  H2  UNL     1     -22.339  49.655  11.841  1.00  0.00     0.183 HD
HETATM    4  C2  UNL     1     -23.402  48.494  13.184  1.00  0.00     0.118 A 
HETATM    5  C3  UNL     1     -24.595  47.922  13.573  1.00  0.00     0.017 A 
HETATM    6  C13 UNL     1     -25.691  48.145  12.778  1.00  0.00     0.123 A 
HETATM    7  N5  UNL     1     -26.846  47.699  12.952  1.00  0.00    -0.385 N 
ATOM      8  H51 UNL     1     -27.661  47.865  12.362  1.00  0.00     0.157 HD
ATOM      9  H52 UNL     1     -26.971  47.123  13.786  1.00  0.00     0.157 HD
HETATM   10  N6  UNL     1     -25.524  48.918  11.660  1.00  0.00    -0.177 N 
ATOM     11  H6  UNL     1     -26.328  49.096  11.057  1.00  0.00     0.185 HD
ENDROOT
BRANCH   5  12
HETATM   12  C4  UNL     1     -24.705  47.115  14.803  1.00  0.00     0.116 C 
BRANCH  12  13
HETATM   13  C5  UNL     1     -25.339  47.830  15.935  1.00  0.00    -0.012 A 
HETATM   14  C6  UNL     1     -24.804  47.793  17.200  1.00  0.00     0.098 A 
HETATM   15  N3  UNL     1     -25.325  48.409  18.264  1.00  0.00    -0.362 N 
HETATM   16  C7  UNL     1     -26.451  49.116  18.096  1.00  0.00     0.180 A 
ATOM     17  H3  UNL     1     -24.879  48.342  19.179  1.00  0.00     0.166 HD
HETATM   18  N4  UNL     1     -27.001  49.174  16.875  1.00  0.00    -0.362 N 
HETATM   19  C8  UNL     1     -26.507  48.570  15.786  1.00  0.00     0.098 A 
ATOM     20  H4  UNL     1     -27.858  49.717  16.768  1.00  0.00     0.166 HD
ENDBRANCH  12  13
BRANCH  12  21
HETATM   21  C9  UNL     1     -23.383  46.607  15.284  1.00  0.00     0.065 A 
HETATM   22  C10 UNL     1     -22.511  47.295  16.118  1.00  0.00     0.035 A 
HETATM   23  C11 UNL     1     -21.404  46.523  16.346  1.00  0.00     0.027 A 
HETATM   24  C12 UNL     1     -21.631  45.367  15.632  1.00  0.00     0.142 A 
HETATM   25  O1  UNL     1     -22.793  45.465  15.034  1.00  0.00    -0.326 OA
ENDBRANCH  12  21
ENDBRANCH   5  12
BRANCH   1  26
HETATM   26  N1  UNL     1     -24.224  50.169  10.274  1.00  0.00    -0.234 N 
ATOM     27  H12 UNL     1     -24.133  51.182  10.353  1.00  0.00     0.174 HD
ATOM     28  H11 UNL     1     -24.228  49.702   9.366  1.00  0.00     0.174 HD
ENDBRANCH   1  26
TORSDOF 4
ENDMDL
MODEL 3
REMARK VINA RESULT: -6.111926804      0.615      1.809
REMARK  4 active torsions:
REMARK  status: ('A' for Active; 'I' for Inactive)
REMARK    1  A    between atoms: N1_1  and  C1_4 
REMARK    2  A    between atoms: C3_8  and  C4_9 
REMARK    3  A    between atoms: C4_9  and  C5_10 
REMARK    4  A    between atoms: C4_9  and  C9_18 
ROOT
HETATM    1  C1  UNL     1     -24.283  49.450  11.385  1.00  0.00     0.677 A 
HETATM    2  N2  UNL     1     -23.187  49.220  12.124  1.00  0.00    -0.201 N 
ATOM      3  H2  UNL     1     -22.276  49.599  11.865  1.00  0.00     0.183 HD
HETATM    4  C2  UNL     1     -23.350  48.466  13.223  1.00  0.00     0.118 A 
HETATM    5  C3  UNL     1     -24.552  47.926  13.629  1.00  0.00     0.017 A 
HETATM    6  C13 UNL     1     -25.654  48.180  12.850  1.00  0.00     0.123 A 
HETATM    7  N5  UNL     1     -26.818  47.766  13.041  1.00  0.00    -0.385 N 
ATOM      8  H51 UNL     1     -27.636  47.954  12.462  1.00  0.00     0.157 HD
ATOM      9  H52 UNL     1     -26.945  47.192  13.875  1.00  0.00     0.157 HD
HETATM   10  N6  UNL     1     -25.482  48.950  11.730  1.00  0.00    -0.177 N 
ATOM     11  H6  UNL     1     -26.290  49.150  11.140  1.00  0.00     0.185 HD
ENDROOT
BRANCH   5  12
HETATM   12  C4  UNL     1     -24.666  47.121  14.860  1.00  0.00     0.116 C 
BRANCH  12  13
HETATM   13  C5  UNL     1     -25.178  47.877  16.026  1.00  0.00    -0.012 A 
HETATM   14  C6  UNL     1     -26.481  48.311  16.086  1.00  0.00     0.098 A 
HETATM   15  N3  UNL     1     -27.006  49.001  17.102  1.00  0.00    -0.362 N 
HETATM   16  C7  UNL     1     -26.213  49.295  18.143  1.00  0.00     0.180 A 
ATOM     17  H3  UNL     1     -27.982  49.295  17.087  1.00  0.00     0.166 HD
HETATM   18  N4  UNL     1     -24.936  48.888  18.117  1.00  0.00    -0.362 N 
HETATM   19  C8  UNL     1     -24.376  48.195  17.116  1.00  0.00     0.098 A 
ATOM     20  H4  UNL     1     -24.350  49.122  18.918  1.00  0.00     0.166 HD
ENDBRANCH  12  13
BRANCH  12  21
HETATM   21  C9  UNL     1     -23.369  46.500  15.269  1.00  0.00     0.065 A 
HETATM   22  C10 UNL     1     -22.372  47.128  16.005  1.00  0.00     0.035 A 
HETATM   23  C11 UNL     1     -21.332  46.258  16.190  1.00  0.00     0.027 A 
HETATM   24  C12 UNL     1     -21.726  45.103  15.550  1.00  0.00     0.142 A 
HETATM   25  O1  UNL     1     -22.914  45.295  15.033  1.00  0.00    -0.326 OA
ENDBRANCH  12  21
ENDBRANCH   5  12
BRANCH   1  26
HETATM   26  N1  UNL     1     -24.169  50.166  10.326  1.00  0.00    -0.234 N 
ATOM     27  H12 UNL     1     -23.625  49.822   9.534  1.00  0.00     0.174 HD
ATOM     28  H11 UNL     1     -24.631  51.075  10.301  1.00  0.00     0.174 HD
ENDBRANCH   1  26
TORSDOF 4
ENDMDL
MODEL 4
REMARK VINA RESULT: -6.088915490      2.206      5.584
REMARK  4 active torsions:
REMARK  status: ('A' for Active; 'I' for Inactive)
REMARK    1  A    between atoms: N1_1  and  C1_4 
REMARK    2  A    between atoms: C3_8  and  C4_9 
REMARK    3  A    between atoms: C4_9  and  C5_10 
REMARK    4  A    between atoms: C4_9  and  C9_18 
ROOT
HETATM    1  C1  UNL     1     -26.237  49.198  18.294  1.00  0.00     0.677 A 
HETATM    2  N2  UNL     1     -24.952  48.815  18.217  1.00  0.00    -0.201 N 
ATOM      3  H2  UNL     1     -24.303  48.959  18.989  1.00  0.00     0.183 HD
HETATM    4  C2  UNL     1     -24.567  48.233  17.071  1.00  0.00     0.118 A 
HETATM    5  C3  UNL     1     -25.395  48.008  15.991  1.00  0.00     0.017 A 
HETATM    6  C13 UNL     1     -26.702  48.412  16.102  1.00  0.00     0.123 A 
HETATM    7  N5  UNL     1     -27.594  48.312  15.232  1.00  0.00    -0.385 N 
ATOM      8  H51 UNL     1     -28.565  48.612  15.314  1.00  0.00     0.157 HD
ATOM      9  H52 UNL     1     -27.304  47.870  14.359  1.00  0.00     0.157 HD
HETATM   10  N6  UNL     1     -27.091  49.006  17.274  1.00  0.00    -0.177 N 
ATOM     11  H6  UNL     1     -28.059  49.311  17.376  1.00  0.00     0.185 HD
ENDROOT
BRANCH   5  12
HETATM   12  C4  UNL     1     -24.911  47.344  14.766  1.00  0.00     0.116 C 
BRANCH  12  13
HETATM   13  C5  UNL     1     -23.448  47.118  14.744  1.00  0.00    -0.012 A 
HETATM   14  C6  UNL     1     -22.618  47.853  13.932  1.00  0.00     0.098 A 
HETATM   15  N3  UNL     1     -21.294  47.699  13.858  1.00  0.00    -0.362 N 
HETATM   16  C7  UNL     1     -20.723  46.762  14.630  1.00  0.00     0.180 A 
ATOM     17  H3  UNL     1     -20.732  48.277  13.234  1.00  0.00     0.166 HD
HETATM   18  N4  UNL     1     -21.502  46.026  15.434  1.00  0.00    -0.362 N 
HETATM   19  C8  UNL     1     -22.833  46.153  15.534  1.00  0.00     0.098 A 
ATOM     20  H4  UNL     1     -21.049  45.318  16.013  1.00  0.00     0.166 HD
ENDBRANCH  12  13
BRANCH  12  21
HETATM   21  C9  UNL     1     -25.263  48.095  13.521  1.00  0.00     0.065 A 
HETATM   22  C10 UNL     1     -25.142  47.609  12.226  1.00  0.00     0.035 A 
HETATM   23  C11 UNL     1     -25.556  48.569  11.344  1.00  0.00     0.027 A 
HETATM   24  C12 UNL     1     -25.923  49.635  12.135  1.00  0.00     0.142 A 
HETATM   25  O1  UNL     1     -25.734  49.310  13.390  1.00  0.00    -0.326 OA
ENDBRANCH  12  21
ENDBRANCH   5  12
BRANCH   1  26
HETATM   26  N1  UNL     1     -26.645  49.759  19.374  1.00  0.00    -0.234 N 
ATOM     27  H12 UNL     1     -25.978  50.228  19.988  1.00  0.00     0.174 HD
ATOM     28  H11 UNL     1     -27.641  49.722  19.595  1.00  0.00     0.174 HD
ENDBRANCH   1  26
TORSDOF 4
ENDMDL
MODEL 5
REMARK VINA RESULT: -6.037539720      2.364      5.445
REMARK  4 active torsions:
REMARK  status: ('A' for Active; 'I' for Inactive)
REMARK    1  A    between atoms: N1_1  and  C1_4 
REMARK    2  A    between atoms: C3_8  and  C4_9 
REMARK    3  A    between atoms: C4_9  and  C5_10 
REMARK    4  A    between atoms: C4_9  and  C9_18 
ROOT
HETATM    1  C1  UNL     1     -26.259  48.953  18.500  1.00  0.00     0.677 A 
HETATM    2  N2  UNL     1     -27.135  48.261  17.754  1.00  0.00    -0.201 N 
ATOM      3  H2  UNL     1     -28.115  48.176  18.020  1.00  0.00     0.183 HD
HETATM    4  C2  UNL     1     -26.654  47.688  16.640  1.00  0.00     0.118 A 
HETATM    5  C3  UNL     1     -25.341  47.768  16.224  1.00  0.00     0.017 A 
HETATM    6  C13 UNL     1     -24.472  48.482  17.010  1.00  0.00     0.123 A 
HETATM    7  N5  UNL     1     -23.249  48.652  16.811  1.00  0.00    -0.385 N 
ATOM      8  H51 UNL     1     -22.603  49.183  17.395  1.00  0.00     0.157 HD
ATOM      9  H52 UNL     1     -22.880  48.217  15.965  1.00  0.00     0.157 HD
HETATM   10  N6  UNL     1     -24.967  49.065  18.146  1.00  0.00    -0.177 N 
ATOM     11  H6  UNL     1     -24.336  49.602  18.742  1.00  0.00     0.185 HD
ENDROOT
BRANCH   5  12
HETATM   12  C4  UNL     1     -24.881  47.129  14.976  1.00  0.00     0.116 C 
BRANCH  12  13
HETATM   13  C5  UNL     1     -23.413  46.956  14.896  1.00  0.00    -0.012 A 
HETATM   14  C6  UNL     1     -22.639  47.744  14.080  1.00  0.00     0.098 A 
HETATM   15  N3  UNL     1     -21.313  47.640  13.955  1.00  0.00    -0.362 N 
HETATM   16  C7  UNL     1     -20.684  46.701  14.676  1.00  0.00     0.180 A 
ATOM     17  H3  UNL     1     -20.795  48.256  13.329  1.00  0.00     0.166 HD
HETATM   18  N4  UNL     1     -21.407  45.913  15.484  1.00  0.00    -0.362 N 
HETATM   19  C8  UNL     1     -22.737  45.990  15.634  1.00  0.00     0.098 A 
ATOM     20  H4  UNL     1     -20.910  45.205  16.024  1.00  0.00     0.166 HD
ENDBRANCH  12  13
BRANCH  12  21
HETATM   21  C9  UNL     1     -25.308  47.875  13.752  1.00  0.00     0.065 A 
HETATM   22  C10 UNL     1     -24.995  47.523  12.445  1.00  0.00     0.035 A 
HETATM   23  C11 UNL     1     -25.553  48.432  11.588  1.00  0.00     0.027 A 
HETATM   24  C12 UNL     1     -26.200  49.332  12.406  1.00  0.00     0.142 A 
HETATM   25  O1  UNL     1     -26.028  48.964  13.652  1.00  0.00    -0.326 OA
ENDBRANCH  12  21
ENDBRANCH   5  12
BRANCH   1  26
HETATM   26  N1  UNL     1     -26.680  49.516  19.574  1.00  0.00    -0.234 N 
ATOM     27  H12 UNL     1     -26.588  49.038  20.470  1.00  0.00     0.174 HD
ATOM     28  H11 UNL     1     -27.102  50.443  19.504  1.00  0.00     0.174 HD
ENDBRANCH   1  26
TORSDOF 4
ENDMDL
