MODEL 1
REMARK VINA RESULT: -6.642905586      0.000      0.000
REMARK  6 active torsions:
REMARK  status: ('A' for Active; 'I' for Inactive)
REMARK    1  A    between atoms: C2_2  and  C3_3 
REMARK    2  A    between atoms: C3_3  and  N1_4 
REMARK       I    between atoms: N1_4  and  C4_6 
REMARK       I    between atoms: C4_6  and  N2_8 
REMARK    3  A    between atoms: N2_8  and  C5_10 
REMARK       I    between atoms: N3_24  and  C19_25 
REMARK    4  A    between atoms: C19_25  and  C20_27 
REMARK    5  A    between atoms: C20_27  and  C21_28 
REMARK    6  A    between atoms: C21_28  and  C22_29 
ROOT
HETATM    1  C5  UNL     1      -3.647   5.630  23.729  1.00  0.00     0.002 C 
HETATM    2  C6  UNL     1      -4.449   4.393  23.555  1.00  0.00     0.059 C 
HETATM    3  C7  UNL     1      -5.155   4.339  22.242  1.00  0.00     0.006 C 
HETATM    4  C8  UNL     1      -4.190   4.408  21.063  1.00  0.00     0.021 C 
HETATM    5  C9  UNL     1      -5.012   5.143  20.072  1.00  0.00     0.021 C 
HETATM    6  C10 UNL     1      -5.670   6.241  20.954  1.00  0.00    -0.019 C 
HETATM    7  C11 UNL     1      -6.756   6.908  20.086  1.00  0.00     0.020 C 
HETATM    8  C12 UNL     1      -4.673   7.235  21.309  1.00  0.00    -0.020 C 
HETATM    9  C13 UNL     1      -3.511   7.212  21.922  1.00  0.00    -0.017 C 
HETATM   10  C14 UNL     1      -2.846   5.959  22.489  1.00  0.00     0.082 C 
HETATM   11  C15 UNL     1      -2.837   4.947  21.391  1.00  0.00     0.051 C 
HETATM   12  C16 UNL     1      -2.268   5.683  20.162  1.00  0.00     0.034 C 
HETATM   13  C17 UNL     1      -2.044   4.577  19.199  1.00  0.00     0.022 C 
HETATM   14  C18 UNL     1      -1.838   3.372  20.077  1.00  0.00     0.127 C 
HETATM   15  N3  UNL     1      -1.789   3.950  21.451  1.00  0.00    -0.341 N 
HETATM   16  C19 UNL     1      -0.826   3.490  22.339  1.00  0.00     0.220 C 
HETATM   17  O2  UNL     1      -0.617   3.953  23.452  1.00  0.00    -0.273 OA
HETATM   18  C24 UNL     1      -6.231   5.341  21.996  1.00  0.00    -0.033 C 
HETATM   19  C25 UNL     1      -7.396   4.572  21.311  1.00  0.00     0.016 C 
HETATM   20  C26 UNL     1      -6.847   6.019  23.151  1.00  0.00     0.016 C 
ENDROOT
BRANCH   1  21
HETATM   21  N2  UNL     1      -2.995   5.757  24.986  1.00  0.00    -0.316 N 
HETATM   22  C4  UNL     1      -2.965   6.971  25.712  1.00  0.00     0.320 C 
HETATM   23  N1  UNL     1      -2.314   7.101  26.969  1.00  0.00    -0.339 N 
HETATM   24  O1  UNL     1      -3.539   7.970  25.218  1.00  0.00    -0.247 OA
ATOM     25  H1  UNL     1      -1.845   6.291  27.375  1.00  0.00     0.164 HD
ATOM     26  H2  UNL     1      -2.530   4.940  25.380  1.00  0.00     0.170 HD
BRANCH  23  27
HETATM   27  C3  UNL     1      -2.304   8.365  27.688  1.00  0.00     0.150 C 
BRANCH  27  28
HETATM   28  C2  UNL     1      -2.721   8.213  29.091  1.00  0.00    -0.018 C 
HETATM   29  C1  UNL     1      -2.146   7.322  29.881  1.00  0.00     0.008 C 
ENDBRANCH  27  28
ENDBRANCH  23  27
ENDBRANCH   1  21
BRANCH  16  30
HETATM   30  C20 UNL     1       0.056   2.339  21.964  1.00  0.00     0.103 C 
BRANCH  30  31
HETATM   31  C21 UNL     1      -0.580   1.040  22.326  1.00  0.00     0.009 C 
BRANCH  31  32
HETATM   32  C22 UNL     1       0.350  -0.126  22.252  1.00  0.00    -0.004 C 
HETATM   33  C23 UNL     1       1.450   0.041  21.254  1.00  0.00     0.005 C 
ENDBRANCH  31  32
ENDBRANCH  30  31
ENDBRANCH  16  30
TORSDOF 6
ENDMDL
MODEL 2
REMARK VINA RESULT: -6.506229916      2.380      6.141
REMARK  6 active torsions:
REMARK  status: ('A' for Active; 'I' for Inactive)
REMARK    1  A    between atoms: C2_2  and  C3_3 
REMARK    2  A    between atoms: C3_3  and  N1_4 
REMARK       I    between atoms: N1_4  and  C4_6 
REMARK       I    between atoms: C4_6  and  N2_8 
REMARK    3  A    between atoms: N2_8  and  C5_10 
REMARK       I    between atoms: N3_24  and  C19_25 
REMARK    4  A    between atoms: C19_25  and  C20_27 
REMARK    5  A    between atoms: C20_27  and  C21_28 
REMARK    6  A    between atoms: C21_28  and  C22_29 
ROOT
HETATM    1  C5  UNL     1      -2.255   4.073  22.424  1.00  0.00     0.002 C 
HETATM    2  C6  UNL     1      -2.652   4.407  21.034  1.00  0.00     0.059 C 
HETATM    3  C7  UNL     1      -3.992   5.057  20.953  1.00  0.00     0.006 C 
HETATM    4  C8  UNL     1      -4.055   6.354  21.753  1.00  0.00     0.021 C 
HETATM    5  C9  UNL     1      -5.466   6.334  22.206  1.00  0.00     0.021 C 
HETATM    6  C10 UNL     1      -5.652   4.844  22.609  1.00  0.00    -0.019 C 
HETATM    7  C11 UNL     1      -7.161   4.639  22.848  1.00  0.00     0.020 C 
HETATM    8  C12 UNL     1      -4.938   4.586  23.847  1.00  0.00    -0.020 C 
HETATM    9  C13 UNL     1      -3.692   4.707  24.247  1.00  0.00    -0.017 C 
HETATM   10  C14 UNL     1      -2.540   5.211  23.379  1.00  0.00     0.082 C 
HETATM   11  C15 UNL     1      -2.988   6.506  22.786  1.00  0.00     0.051 C 
HETATM   12  C16 UNL     1      -3.534   7.330  23.968  1.00  0.00     0.034 C 
HETATM   13  C17 UNL     1      -3.716   8.674  23.369  1.00  0.00     0.022 C 
HETATM   14  C18 UNL     1      -2.713   8.706  22.248  1.00  0.00     0.127 C 
HETATM   15  N3  UNL     1      -1.941   7.444  22.438  1.00  0.00    -0.341 N 
HETATM   16  C19 UNL     1      -0.559   7.476  22.309  1.00  0.00     0.220 C 
HETATM   17  O2  UNL     1       0.190   6.538  22.541  1.00  0.00    -0.273 OA
HETATM   18  C24 UNL     1      -5.179   4.240  21.335  1.00  0.00    -0.033 C 
HETATM   19  C25 UNL     1      -6.280   4.551  20.282  1.00  0.00     0.016 C 
HETATM   20  C26 UNL     1      -5.057   2.771  21.339  1.00  0.00     0.016 C 
ENDROOT
BRANCH   1  21
HETATM   21  N2  UNL     1      -1.008   3.403  22.554  1.00  0.00    -0.316 N 
HETATM   22  C4  UNL     1      -0.830   2.043  22.203  1.00  0.00     0.320 C 
HETATM   23  N1  UNL     1       0.416   1.371  22.332  1.00  0.00    -0.339 N 
HETATM   24  O1  UNL     1      -1.819   1.413  21.762  1.00  0.00    -0.247 OA
ATOM     25  H1  UNL     1       1.224   1.880  22.690  1.00  0.00     0.164 HD
ATOM     26  H2  UNL     1      -0.209   3.924  22.914  1.00  0.00     0.170 HD
BRANCH  23  27
HETATM   27  C3  UNL     1       0.561  -0.027  21.961  1.00  0.00     0.150 C 
BRANCH  27  28
HETATM   28  C2  UNL     1       1.362  -0.201  20.738  1.00  0.00    -0.018 C 
HETATM   29  C1  UNL     1       2.473   0.490  20.546  1.00  0.00     0.008 C 
ENDBRANCH  27  28
ENDBRANCH  23  27
ENDBRANCH   1  21
BRANCH  16  30
HETATM   30  C20 UNL     1       0.126   8.727  21.852  1.00  0.00     0.103 C 
BRANCH  30  31
HETATM   31  C21 UNL     1       0.941   9.319  22.952  1.00  0.00     0.009 C 
BRANCH  31  32
HETATM   32  C22 UNL     1       0.245  10.416  23.691  1.00  0.00    -0.004 C 
HETATM   33  C23 UNL     1      -0.355   9.983  24.989  1.00  0.00     0.005 C 
ENDBRANCH  31  32
ENDBRANCH  30  31
ENDBRANCH  16  30
TORSDOF 6
ENDMDL
MODEL 3
REMARK VINA RESULT: -6.385292330      1.583      6.367
REMARK  6 active torsions:
REMARK  status: ('A' for Active; 'I' for Inactive)
REMARK    1  A    between atoms: C2_2  and  C3_3 
REMARK    2  A    between atoms: C3_3  and  N1_4 
REMARK       I    between atoms: N1_4  and  C4_6 
REMARK       I    between atoms: C4_6  and  N2_8 
REMARK    3  A    between atoms: N2_8  and  C5_10 
REMARK       I    between atoms: N3_24  and  C19_25 
REMARK    4  A    between atoms: C19_25  and  C20_27 
REMARK    5  A    between atoms: C20_27  and  C21_28 
REMARK    6  A    between atoms: C21_28  and  C22_29 
ROOT
HETATM    1  C5  UNL     1      -1.984   4.346  21.603  1.00  0.00     0.002 C 
HETATM    2  C6  UNL     1      -1.374   5.656  21.264  1.00  0.00     0.059 C 
HETATM    3  C7  UNL     1      -2.287   6.536  20.479  1.00  0.00     0.006 C 
HETATM    4  C8  UNL     1      -3.584   6.833  21.224  1.00  0.00     0.021 C 
HETATM    5  C9  UNL     1      -4.540   6.926  20.095  1.00  0.00     0.021 C 
HETATM    6  C10 UNL     1      -4.095   5.736  19.200  1.00  0.00    -0.019 C 
HETATM    7  C11 UNL     1      -4.845   5.889  17.862  1.00  0.00     0.020 C 
HETATM    8  C12 UNL     1      -4.494   4.487  19.825  1.00  0.00    -0.020 C 
HETATM    9  C13 UNL     1      -4.267   3.911  20.984  1.00  0.00    -0.017 C 
HETATM   10  C14 UNL     1      -3.404   4.500  22.099  1.00  0.00     0.082 C 
HETATM   11  C15 UNL     1      -3.901   5.888  22.335  1.00  0.00     0.051 C 
HETATM   12  C16 UNL     1      -5.430   5.756  22.476  1.00  0.00     0.034 C 
HETATM   13  C17 UNL     1      -5.827   7.101  22.960  1.00  0.00     0.022 C 
HETATM   14  C18 UNL     1      -4.597   7.606  23.665  1.00  0.00     0.127 C 
HETATM   15  N3  UNL     1      -3.687   6.424  23.663  1.00  0.00    -0.341 N 
HETATM   16  C19 UNL     1      -2.979   6.121  24.818  1.00  0.00     0.220 C 
HETATM   17  O2  UNL     1      -2.285   5.126  24.976  1.00  0.00    -0.273 OA
HETATM   18  C24 UNL     1      -2.656   6.096  19.103  1.00  0.00    -0.033 C 
HETATM   19  C25 UNL     1      -2.594   7.365  18.208  1.00  0.00     0.016 C 
HETATM   20  C26 UNL     1      -1.801   5.106  18.423  1.00  0.00     0.016 C 
ENDROOT
BRANCH   1  21
HETATM   21  N2  UNL     1      -1.135   3.448  22.306  1.00  0.00    -0.316 N 
HETATM   22  C4  UNL     1      -0.981   2.091  21.933  1.00  0.00     0.320 C 
HETATM   23  N1  UNL     1      -0.134   1.190  22.634  1.00  0.00    -0.339 N 
HETATM   24  O1  UNL     1      -1.624   1.674  20.941  1.00  0.00    -0.247 OA
ATOM     25  H1  UNL     1       0.391   1.524  23.442  1.00  0.00     0.164 HD
ATOM     26  H2  UNL     1      -0.617   3.795  23.113  1.00  0.00     0.170 HD
BRANCH  23  27
HETATM   27  C3  UNL     1      -0.000  -0.197  22.221  1.00  0.00     0.150 C 
BRANCH  27  28
HETATM   28  C2  UNL     1       1.363  -0.516  21.768  1.00  0.00    -0.018 C 
HETATM   29  C1  UNL     1       1.973   0.228  20.861  1.00  0.00     0.008 C 
ENDBRANCH  27  28
ENDBRANCH  23  27
ENDBRANCH   1  21
BRANCH  16  30
HETATM   30  C20 UNL     1      -3.026   7.044  25.996  1.00  0.00     0.103 C 
BRANCH  30  31
HETATM   31  C21 UNL     1      -1.877   7.994  25.974  1.00  0.00     0.009 C 
BRANCH  31  32
HETATM   32  C22 UNL     1      -1.518   8.533  27.320  1.00  0.00    -0.004 C 
HETATM   33  C23 UNL     1      -2.261   7.891  28.447  1.00  0.00     0.005 C 
ENDBRANCH  31  32
ENDBRANCH  30  31
ENDBRANCH  16  30
TORSDOF 6
ENDMDL
MODEL 4
REMARK VINA RESULT: -6.357398977      2.358      5.939
REMARK  6 active torsions:
REMARK  status: ('A' for Active; 'I' for Inactive)
REMARK    1  A    between atoms: C2_2  and  C3_3 
REMARK    2  A    between atoms: C3_3  and  N1_4 
REMARK       I    between atoms: N1_4  and  C4_6 
REMARK       I    between atoms: C4_6  and  N2_8 
REMARK    3  A    between atoms: N2_8  and  C5_10 
REMARK       I    between atoms: N3_24  and  C19_25 
REMARK    4  A    between atoms: C19_25  and  C20_27 
REMARK    5  A    between atoms: C20_27  and  C21_28 
REMARK    6  A    between atoms: C21_28  and  C22_29 
ROOT
HETATM    1  C5  UNL     1      -2.262   4.286  22.380  1.00  0.00     0.002 C 
HETATM    2  C6  UNL     1      -2.747   4.704  21.041  1.00  0.00     0.059 C 
HETATM    3  C7  UNL     1      -4.104   5.322  21.081  1.00  0.00     0.006 C 
HETATM    4  C8  UNL     1      -4.150   6.559  21.972  1.00  0.00     0.021 C 
HETATM    5  C9  UNL     1      -5.531   6.471  22.503  1.00  0.00     0.021 C 
HETATM    6  C10 UNL     1      -5.659   4.952  22.810  1.00  0.00    -0.019 C 
HETATM    7  C11 UNL     1      -7.146   4.692  23.121  1.00  0.00     0.020 C 
HETATM    8  C12 UNL     1      -4.869   4.631  23.985  1.00  0.00    -0.020 C 
HETATM    9  C13 UNL     1      -3.604   4.757  24.321  1.00  0.00    -0.017 C 
HETATM   10  C14 UNL     1      -2.517   5.349  23.426  1.00  0.00     0.082 C 
HETATM   11  C15 UNL     1      -3.028   6.669  22.950  1.00  0.00     0.051 C 
HETATM   12  C16 UNL     1      -3.522   7.396  24.216  1.00  0.00     0.034 C 
HETATM   13  C17 UNL     1      -3.769   8.773  23.723  1.00  0.00     0.022 C 
HETATM   14  C18 UNL     1      -2.834   8.907  22.551  1.00  0.00     0.127 C 
HETATM   15  N3  UNL     1      -2.024   7.656  22.609  1.00  0.00    -0.341 N 
HETATM   16  C19 UNL     1      -0.653   7.734  22.404  1.00  0.00     0.220 C 
HETATM   17  O2  UNL     1       0.129   6.802  22.528  1.00  0.00    -0.273 OA
HETATM   18  C24 UNL     1      -5.248   4.449  21.473  1.00  0.00    -0.033 C 
HETATM   19  C25 UNL     1      -6.416   4.802  20.509  1.00  0.00     0.016 C 
HETATM   20  C26 UNL     1      -5.093   2.987  21.368  1.00  0.00     0.016 C 
ENDROOT
BRANCH   1  21
HETATM   21  N2  UNL     1      -0.995   3.642  22.392  1.00  0.00    -0.316 N 
HETATM   22  C4  UNL     1      -0.843   2.249  22.196  1.00  0.00     0.320 C 
HETATM   23  N1  UNL     1       0.423   1.603  22.207  1.00  0.00    -0.339 N 
HETATM   24  O1  UNL     1      -1.875   1.563  22.007  1.00  0.00    -0.247 OA
ATOM     25  H1  UNL     1       1.265   2.156  22.361  1.00  0.00     0.164 HD
ATOM     26  H2  UNL     1      -0.161   4.208  22.548  1.00  0.00     0.170 HD
BRANCH  23  27
HETATM   27  C3  UNL     1       0.541   0.168  22.002  1.00  0.00     0.150 C 
BRANCH  27  28
HETATM   28  C2  UNL     1       1.379  -0.163  20.839  1.00  0.00    -0.018 C 
HETATM   29  C1  UNL     1       2.442   0.563  20.535  1.00  0.00     0.008 C 
ENDBRANCH  27  28
ENDBRANCH  23  27
ENDBRANCH   1  21
BRANCH  16  30
HETATM   30  C20 UNL     1      -0.024   9.030  21.997  1.00  0.00     0.103 C 
BRANCH  30  31
HETATM   31  C21 UNL     1       0.474   8.963  20.593  1.00  0.00     0.009 C 
BRANCH  31  32
HETATM   32  C22 UNL     1      -0.601   8.717  19.585  1.00  0.00    -0.004 C 
HETATM   33  C23 UNL     1      -0.397   7.480  18.773  1.00  0.00     0.005 C 
ENDBRANCH  31  32
ENDBRANCH  30  31
ENDBRANCH  16  30
TORSDOF 6
ENDMDL
MODEL 5
REMARK VINA RESULT: -6.204794718      2.440      6.353
REMARK  6 active torsions:
REMARK  status: ('A' for Active; 'I' for Inactive)
REMARK    1  A    between atoms: C2_2  and  C3_3 
REMARK    2  A    between atoms: C3_3  and  N1_4 
REMARK       I    between atoms: N1_4  and  C4_6 
REMARK       I    between atoms: C4_6  and  N2_8 
REMARK    3  A    between atoms: N2_8  and  C5_10 
REMARK       I    between atoms: N3_24  and  C19_25 
REMARK    4  A    between atoms: C19_25  and  C20_27 
REMARK    5  A    between atoms: C20_27  and  C21_28 
REMARK    6  A    between atoms: C21_28  and  C22_29 
ROOT
HETATM    1  C5  UNL     1      -1.891   4.888  22.031  1.00  0.00     0.002 C 
HETATM    2  C6  UNL     1      -2.570   5.587  20.911  1.00  0.00     0.059 C 
HETATM    3  C7  UNL     1      -3.904   6.135  21.293  1.00  0.00     0.006 C 
HETATM    4  C8  UNL     1      -3.813   7.131  22.444  1.00  0.00     0.021 C 
HETATM    5  C9  UNL     1      -5.098   6.878  23.136  1.00  0.00     0.021 C 
HETATM    6  C10 UNL     1      -5.183   5.326  23.098  1.00  0.00    -0.019 C 
HETATM    7  C11 UNL     1      -6.607   4.953  23.553  1.00  0.00     0.020 C 
HETATM    8  C12 UNL     1      -4.226   4.769  24.036  1.00  0.00    -0.020 C 
HETATM    9  C13 UNL     1      -2.925   4.855  24.203  1.00  0.00    -0.017 C 
HETATM   10  C14 UNL     1      -1.983   5.673  23.321  1.00  0.00     0.082 C 
HETATM   11  C15 UNL     1      -2.556   7.049  23.245  1.00  0.00     0.051 C 
HETATM   12  C16 UNL     1      -2.853   7.448  24.704  1.00  0.00     0.034 C 
HETATM   13  C17 UNL     1      -3.168   8.893  24.586  1.00  0.00     0.022 C 
HETATM   14  C18 UNL     1      -2.419   9.324  23.354  1.00  0.00     0.127 C 
HETATM   15  N3  UNL     1      -1.613   8.120  23.000  1.00  0.00    -0.341 N 
HETATM   16  C19 UNL     1      -0.288   8.288  22.620  1.00  0.00     0.220 C 
HETATM   17  O2  UNL     1       0.502   7.378  22.407  1.00  0.00    -0.273 OA
HETATM   18  C24 UNL     1      -4.979   5.158  21.635  1.00  0.00    -0.033 C 
HETATM   19  C25 UNL     1      -6.277   5.685  20.961  1.00  0.00     0.016 C 
HETATM   20  C26 UNL     1      -4.845   3.766  21.171  1.00  0.00     0.016 C 
ENDROOT
BRANCH   1  21
HETATM   21  N2  UNL     1      -0.638   4.301  21.706  1.00  0.00    -0.316 N 
HETATM   22  C4  UNL     1      -0.519   2.984  21.199  1.00  0.00     0.320 C 
HETATM   23  N1  UNL     1       0.733   2.395  20.874  1.00  0.00    -0.339 N 
HETATM   24  O1  UNL     1      -1.567   2.318  21.035  1.00  0.00    -0.247 OA
ATOM     25  H1  UNL     1       1.589   2.933  21.007  1.00  0.00     0.164 HD
ATOM     26  H2  UNL     1       0.210   4.850  21.844  1.00  0.00     0.170 HD
BRANCH  23  27
HETATM   27  C3  UNL     1       0.817   1.039  20.355  1.00  0.00     0.150 C 
BRANCH  27  28
HETATM   28  C2  UNL     1       1.286   0.081  21.369  1.00  0.00    -0.018 C 
HETATM   29  C1  UNL     1       0.475  -0.367  22.312  1.00  0.00     0.008 C 
ENDBRANCH  27  28
ENDBRANCH  23  27
ENDBRANCH   1  21
BRANCH  16  30
HETATM   30  C20 UNL     1       0.276   9.663  22.438  1.00  0.00     0.103 C 
BRANCH  30  31
HETATM   31  C21 UNL     1       1.252   9.985  23.517  1.00  0.00     0.009 C 
BRANCH  31  32
HETATM   32  C22 UNL     1       0.704  10.888  24.574  1.00  0.00    -0.004 C 
HETATM   33  C23 UNL     1       0.294  10.178  25.823  1.00  0.00     0.005 C 
ENDBRANCH  31  32
ENDBRANCH  30  31
ENDBRANCH  16  30
TORSDOF 6
ENDMDL
