MODEL 1
REMARK VINA RESULT: -6.440399589      0.000      0.000
REMARK  9 active torsions:
REMARK  status: ('A' for Active; 'I' for Inactive)
REMARK    1  A    between atoms: C2_2  and  C3_3 
REMARK    2  A    between atoms: C3_3  and  C5_5 
REMARK    3  A    between atoms: C5_5  and  N1_6 
REMARK    4  A    between atoms: N1_6  and  C6_7 
REMARK       I    between atoms: N1_6  and  C20_25 
REMARK    5  A    between atoms: C6_7  and  C7_8 
REMARK    6  A    between atoms: C10_11  and  C11_12 
REMARK    7  A    between atoms: C11_12  and  N2_13 
REMARK       I    between atoms: N2_13  and  C13_15 
REMARK       I    between atoms: C13_15  and  N3_17 
REMARK    8  A    between atoms: N3_17  and  C14_19 
REMARK       I    between atoms: C20_25  and  N4_27 
REMARK    9  A    between atoms: N4_27  and  C21_29 
ROOT
HETATM    1  C7  UNL     1       1.306   2.702  18.129  1.00  0.00     0.008 C 
HETATM    2  C8  UNL     1       2.610   3.393  17.934  1.00  0.00     0.007 C 
HETATM    3  C9  UNL     1       3.156   2.598  16.725  1.00  0.00     0.007 C 
HETATM    4  C10 UNL     1       1.963   2.389  15.836  1.00  0.00     0.008 C 
HETATM    5  C18 UNL     1       0.768   2.706  16.703  1.00  0.00    -0.007 C 
HETATM    6  C19 UNL     1       0.137   4.026  16.418  1.00  0.00     0.011 C 
ENDROOT
BRANCH   1   7
HETATM    7  C6  UNL     1       0.321   3.326  19.042  1.00  0.00     0.132 C 
BRANCH   7   8
HETATM    8  N1  UNL     1       0.010   2.584  20.240  1.00  0.00    -0.333 N 
HETATM    9  C20 UNL     1      -1.301   2.612  20.753  1.00  0.00     0.318 C 
HETATM   10  O2  UNL     1      -1.518   2.017  21.857  1.00  0.00    -0.247 OA
HETATM   11  N4  UNL     1      -2.428   3.231  20.177  1.00  0.00    -0.335 N 
ATOM     12  H4  UNL     1      -2.308   3.721  19.290  1.00  0.00     0.165 HD
BRANCH   8  13
HETATM   13  C5  UNL     1       1.047   1.836  20.938  1.00  0.00     0.135 C 
BRANCH  13  14
HETATM   14  C3  UNL     1       0.992   0.355  20.713  1.00  0.00     0.021 C 
HETATM   15  C4  UNL     1       0.842  -0.483  21.930  1.00  0.00     0.016 C 
BRANCH  14  16
HETATM   16  C2  UNL     1       2.213  -0.063  19.980  1.00  0.00    -0.031 C 
HETATM   17  C1  UNL     1       3.391   0.499  20.177  1.00  0.00     0.007 C 
ENDBRANCH  14  16
ENDBRANCH  13  14
ENDBRANCH   8  13
BRANCH  11  18
HETATM   18  C21 UNL     1      -3.744   3.212  20.773  1.00  0.00     0.023 C 
HETATM   19  C22 UNL     1      -3.776   3.942  22.100  1.00  0.00     0.037 C 
HETATM   20  C23 UNL     1      -4.197   1.800  21.024  1.00  0.00     0.037 C 
HETATM   21  C24 UNL     1      -4.734   3.880  19.860  1.00  0.00     0.037 C 
ENDBRANCH  11  18
ENDBRANCH   7   8
ENDBRANCH   1   7
BRANCH   4  22
HETATM   22  C11 UNL     1       1.946   3.215  14.597  1.00  0.00     0.132 C 
BRANCH  22  23
HETATM   23  N2  UNL     1       2.749   2.731  13.523  1.00  0.00    -0.338 N 
HETATM   24  C12 UNL     1       4.142   3.039  13.314  1.00  0.00     0.154 C 
HETATM   25  C13 UNL     1       2.116   1.863  12.558  1.00  0.00     0.318 C 
HETATM   26  O1  UNL     1       0.891   1.549  12.673  1.00  0.00    -0.247 OA
HETATM   27  N3  UNL     1       2.836   1.339  11.464  1.00  0.00    -0.335 N 
ATOM     28  H3  UNL     1       3.821   1.574  11.345  1.00  0.00     0.165 HD
BRANCH  27  29
HETATM   29  C14 UNL     1       2.189   0.478  10.519  1.00  0.00     0.023 C 
HETATM   30  C15 UNL     1       1.115   1.237   9.752  1.00  0.00     0.037 C 
HETATM   31  C16 UNL     1       1.567  -0.739  11.204  1.00  0.00     0.037 C 
HETATM   32  C17 UNL     1       3.196  -0.020   9.510  1.00  0.00     0.037 C 
ENDBRANCH  27  29
ENDBRANCH  22  23
ENDBRANCH   4  22
TORSDOF 9
ENDMDL
MODEL 2
REMARK VINA RESULT: -6.433337938      2.454      8.960
REMARK  9 active torsions:
REMARK  status: ('A' for Active; 'I' for Inactive)
REMARK    1  A    between atoms: C2_2  and  C3_3 
REMARK    2  A    between atoms: C3_3  and  C5_5 
REMARK    3  A    between atoms: C5_5  and  N1_6 
REMARK    4  A    between atoms: N1_6  and  C6_7 
REMARK       I    between atoms: N1_6  and  C20_25 
REMARK    5  A    between atoms: C6_7  and  C7_8 
REMARK    6  A    between atoms: C10_11  and  C11_12 
REMARK    7  A    between atoms: C11_12  and  N2_13 
REMARK       I    between atoms: N2_13  and  C13_15 
REMARK       I    between atoms: C13_15  and  N3_17 
REMARK    8  A    between atoms: N3_17  and  C14_19 
REMARK       I    between atoms: C20_25  and  N4_27 
REMARK    9  A    between atoms: N4_27  and  C21_29 
ROOT
HETATM    1  C7  UNL     1       1.864   0.891  20.021  1.00  0.00     0.008 C 
HETATM    2  C8  UNL     1       1.173  -0.305  20.577  1.00  0.00     0.007 C 
HETATM    3  C9  UNL     1       0.835   0.214  21.993  1.00  0.00     0.007 C 
HETATM    4  C10 UNL     1       0.410   1.641  21.786  1.00  0.00     0.008 C 
HETATM    5  C18 UNL     1       0.872   1.988  20.391  1.00  0.00    -0.007 C 
HETATM    6  C19 UNL     1      -0.218   2.027  19.376  1.00  0.00     0.011 C 
ENDROOT
BRANCH   1   7
HETATM    7  C6  UNL     1       2.134   0.923  18.566  1.00  0.00     0.132 C 
BRANCH   7   8
HETATM    8  N1  UNL     1       3.010   1.974  18.107  1.00  0.00    -0.333 N 
HETATM    9  C20 UNL     1       2.978   2.363  16.755  1.00  0.00     0.318 C 
HETATM   10  O2  UNL     1       3.824   3.232  16.368  1.00  0.00    -0.247 OA
HETATM   11  N4  UNL     1       2.100   1.899  15.755  1.00  0.00    -0.335 N 
ATOM     12  H4  UNL     1       1.401   1.202  16.013  1.00  0.00     0.165 HD
BRANCH   8  13
HETATM   13  C5  UNL     1       3.947   2.609  19.024  1.00  0.00     0.135 C 
BRANCH  13  14
HETATM   14  C3  UNL     1       5.234   1.861  19.202  1.00  0.00     0.021 C 
HETATM   15  C4  UNL     1       5.400   1.150  20.496  1.00  0.00     0.016 C 
BRANCH  14  16
HETATM   16  C2  UNL     1       6.365   2.803  19.014  1.00  0.00    -0.031 C 
HETATM   17  C1  UNL     1       6.202   4.111  18.958  1.00  0.00     0.007 C 
ENDBRANCH  14  16
ENDBRANCH  13  14
ENDBRANCH   8  13
BRANCH  11  18
HETATM   18  C21 UNL     1       2.135   2.353  14.384  1.00  0.00     0.023 C 
HETATM   19  C22 UNL     1       3.469   2.067  13.727  1.00  0.00     0.037 C 
HETATM   20  C23 UNL     1       1.903   3.837  14.307  1.00  0.00     0.037 C 
HETATM   21  C24 UNL     1       1.071   1.657  13.582  1.00  0.00     0.037 C 
ENDBRANCH  11  18
ENDBRANCH   7   8
ENDBRANCH   1   7
BRANCH   4  22
HETATM   22  C11 UNL     1      -1.050   1.893  21.933  1.00  0.00     0.132 C 
BRANCH  22  23
HETATM   23  N2  UNL     1      -1.403   3.155  22.495  1.00  0.00    -0.338 N 
HETATM   24  C12 UNL     1      -0.498   4.059  23.159  1.00  0.00     0.154 C 
HETATM   25  C13 UNL     1      -2.785   3.562  22.399  1.00  0.00     0.318 C 
HETATM   26  O1  UNL     1      -3.644   2.817  21.832  1.00  0.00    -0.247 OA
HETATM   27  N3  UNL     1      -3.222   4.794  22.928  1.00  0.00    -0.335 N 
ATOM     28  H3  UNL     1      -2.556   5.413  23.390  1.00  0.00     0.165 HD
BRANCH  27  29
HETATM   29  C14 UNL     1      -4.598   5.179  22.820  1.00  0.00     0.023 C 
HETATM   30  C15 UNL     1      -5.487   4.211  23.589  1.00  0.00     0.037 C 
HETATM   31  C16 UNL     1      -5.049   5.242  21.361  1.00  0.00     0.037 C 
HETATM   32  C17 UNL     1      -4.793   6.548  23.427  1.00  0.00     0.037 C 
ENDBRANCH  27  29
ENDBRANCH  22  23
ENDBRANCH   4  22
TORSDOF 9
ENDMDL
MODEL 3
REMARK VINA RESULT: -6.431967794      1.095      1.236
REMARK  9 active torsions:
REMARK  status: ('A' for Active; 'I' for Inactive)
REMARK    1  A    between atoms: C2_2  and  C3_3 
REMARK    2  A    between atoms: C3_3  and  C5_5 
REMARK    3  A    between atoms: C5_5  and  N1_6 
REMARK    4  A    between atoms: N1_6  and  C6_7 
REMARK       I    between atoms: N1_6  and  C20_25 
REMARK    5  A    between atoms: C6_7  and  C7_8 
REMARK    6  A    between atoms: C10_11  and  C11_12 
REMARK    7  A    between atoms: C11_12  and  N2_13 
REMARK       I    between atoms: N2_13  and  C13_15 
REMARK       I    between atoms: C13_15  and  N3_17 
REMARK    8  A    between atoms: N3_17  and  C14_19 
REMARK       I    between atoms: C20_25  and  N4_27 
REMARK    9  A    between atoms: N4_27  and  C21_29 
ROOT
HETATM    1  C7  UNL     1       1.349   2.831  18.435  1.00  0.00     0.008 C 
HETATM    2  C8  UNL     1       2.611   3.587  18.206  1.00  0.00     0.007 C 
HETATM    3  C9  UNL     1       3.214   2.760  17.049  1.00  0.00     0.007 C 
HETATM    4  C10 UNL     1       2.044   2.427  16.167  1.00  0.00     0.008 C 
HETATM    5  C18 UNL     1       0.824   2.719  17.008  1.00  0.00    -0.007 C 
HETATM    6  C19 UNL     1       0.117   3.979  16.644  1.00  0.00     0.011 C 
ENDROOT
BRANCH   1   7
HETATM    7  C6  UNL     1       0.321   3.444  19.305  1.00  0.00     0.132 C 
BRANCH   7   8
HETATM    8  N1  UNL     1      -0.121   2.646  20.423  1.00  0.00    -0.333 N 
HETATM    9  C20 UNL     1      -1.469   2.699  20.825  1.00  0.00     0.318 C 
HETATM   10  O2  UNL     1      -1.803   2.049  21.868  1.00  0.00    -0.247 OA
HETATM   11  N4  UNL     1      -2.518   3.400  20.198  1.00  0.00    -0.335 N 
ATOM     12  H4  UNL     1      -2.303   3.936  19.357  1.00  0.00     0.165 HD
BRANCH   8  13
HETATM   13  C5  UNL     1       0.824   1.814  21.157  1.00  0.00     0.135 C 
BRANCH  13  14
HETATM   14  C3  UNL     1       0.706   0.348  20.865  1.00  0.00     0.021 C 
HETATM   15  C4  UNL     1       0.462  -0.531  22.037  1.00  0.00     0.016 C 
BRANCH  14  16
HETATM   16  C2  UNL     1       1.936  -0.100  20.166  1.00  0.00    -0.031 C 
HETATM   17  C1  UNL     1       3.107   0.485  20.336  1.00  0.00     0.007 C 
ENDBRANCH  14  16
ENDBRANCH  13  14
ENDBRANCH   8  13
BRANCH  11  18
HETATM   18  C21 UNL     1      -3.880   3.402  20.678  1.00  0.00     0.023 C 
HETATM   19  C22 UNL     1      -4.001   4.063  22.035  1.00  0.00     0.037 C 
HETATM   20  C23 UNL     1      -4.401   1.998  20.813  1.00  0.00     0.037 C 
HETATM   21  C24 UNL     1      -4.764   4.154  19.723  1.00  0.00     0.037 C 
ENDBRANCH  11  18
ENDBRANCH   7   8
ENDBRANCH   1   7
BRANCH   4  22
HETATM   22  C11 UNL     1       1.987   3.177  14.882  1.00  0.00     0.132 C 
BRANCH  22  23
HETATM   23  N2  UNL     1       2.106   2.387  13.701  1.00  0.00    -0.338 N 
HETATM   24  C12 UNL     1       3.343   1.925  13.123  1.00  0.00     0.154 C 
HETATM   25  C13 UNL     1       0.887   2.020  13.021  1.00  0.00     0.318 C 
HETATM   26  O1  UNL     1      -0.243   2.393  13.467  1.00  0.00    -0.247 OA
HETATM   27  N3  UNL     1       0.912   1.240  11.845  1.00  0.00    -0.335 N 
ATOM     28  H3  UNL     1       1.804   0.927  11.463  1.00  0.00     0.165 HD
BRANCH  27  29
HETATM   29  C14 UNL     1      -0.311   0.887  11.187  1.00  0.00     0.023 C 
HETATM   30  C15 UNL     1      -0.988   2.125  10.614  1.00  0.00     0.037 C 
HETATM   31  C16 UNL     1      -1.271   0.169  12.135  1.00  0.00     0.037 C 
HETATM   32  C17 UNL     1      -0.017  -0.041  10.032  1.00  0.00     0.037 C 
ENDBRANCH  27  29
ENDBRANCH  22  23
ENDBRANCH   4  22
TORSDOF 9
ENDMDL
MODEL 4
REMARK VINA RESULT: -6.349020796      0.906      1.330
REMARK  9 active torsions:
REMARK  status: ('A' for Active; 'I' for Inactive)
REMARK    1  A    between atoms: C2_2  and  C3_3 
REMARK    2  A    between atoms: C3_3  and  C5_5 
REMARK    3  A    between atoms: C5_5  and  N1_6 
REMARK    4  A    between atoms: N1_6  and  C6_7 
REMARK       I    between atoms: N1_6  and  C20_25 
REMARK    5  A    between atoms: C6_7  and  C7_8 
REMARK    6  A    between atoms: C10_11  and  C11_12 
REMARK    7  A    between atoms: C11_12  and  N2_13 
REMARK       I    between atoms: N2_13  and  C13_15 
REMARK       I    between atoms: C13_15  and  N3_17 
REMARK    8  A    between atoms: N3_17  and  C14_19 
REMARK       I    between atoms: C20_25  and  N4_27 
REMARK    9  A    between atoms: N4_27  and  C21_29 
ROOT
HETATM    1  C7  UNL     1       1.137   2.502  18.154  1.00  0.00     0.008 C 
HETATM    2  C8  UNL     1       2.603   2.674  17.958  1.00  0.00     0.007 C 
HETATM    3  C9  UNL     1       2.796   1.863  16.656  1.00  0.00     0.007 C 
HETATM    4  C10 UNL     1       1.601   2.205  15.812  1.00  0.00     0.008 C 
HETATM    5  C18 UNL     1       0.622   2.852  16.763  1.00  0.00    -0.007 C 
HETATM    6  C19 UNL     1       0.529   4.334  16.631  1.00  0.00     0.011 C 
ENDROOT
BRANCH   1   7
HETATM    7  C6  UNL     1       0.469   3.348  19.168  1.00  0.00     0.132 C 
BRANCH   7   8
HETATM    8  N1  UNL     1      -0.042   2.662  20.330  1.00  0.00    -0.333 N 
HETATM    9  C20 UNL     1      -1.388   2.835  20.703  1.00  0.00     0.318 C 
HETATM   10  O2  UNL     1      -1.780   2.283  21.781  1.00  0.00    -0.247 OA
HETATM   11  N4  UNL     1      -2.378   3.561  20.010  1.00  0.00    -0.335 N 
ATOM     12  H4  UNL     1      -2.115   4.022  19.139  1.00  0.00     0.165 HD
BRANCH   8  13
HETATM   13  C5  UNL     1       0.832   1.820  21.135  1.00  0.00     0.135 C 
BRANCH  13  14
HETATM   14  C3  UNL     1       0.652   0.350  20.905  1.00  0.00     0.021 C 
HETATM   15  C4  UNL     1       0.298  -0.458  22.101  1.00  0.00     0.016 C 
BRANCH  14  16
HETATM   16  C2  UNL     1       1.891  -0.195  20.296  1.00  0.00    -0.031 C 
HETATM   17  C1  UNL     1       3.082   0.331  20.510  1.00  0.00     0.007 C 
ENDBRANCH  14  16
ENDBRANCH  13  14
ENDBRANCH   8  13
BRANCH  11  18
HETATM   18  C21 UNL     1      -3.742   3.689  20.465  1.00  0.00     0.023 C 
HETATM   19  C22 UNL     1      -3.827   4.359  21.821  1.00  0.00     0.037 C 
HETATM   20  C23 UNL     1      -4.394   2.339  20.588  1.00  0.00     0.037 C 
HETATM   21  C24 UNL     1      -4.535   4.520  19.494  1.00  0.00     0.037 C 
ENDBRANCH  11  18
ENDBRANCH   7   8
ENDBRANCH   1   7
BRANCH   4  22
HETATM   22  C11 UNL     1       1.879   3.101  14.656  1.00  0.00     0.132 C 
BRANCH  22  23
HETATM   23  N2  UNL     1       1.163   2.804  13.460  1.00  0.00    -0.338 N 
HETATM   24  C12 UNL     1      -0.127   3.340  13.101  1.00  0.00     0.154 C 
HETATM   25  C13 UNL     1       1.774   1.886  12.529  1.00  0.00     0.318 C 
HETATM   26  O1  UNL     1       2.908   1.368  12.776  1.00  0.00    -0.247 OA
HETATM   27  N3  UNL     1       1.134   1.536  11.321  1.00  0.00    -0.335 N 
ATOM     28  H3  UNL     1       0.223   1.934  11.095  1.00  0.00     0.165 HD
BRANCH  27  29
HETATM   29  C14 UNL     1       1.760   0.623  10.410  1.00  0.00     0.023 C 
HETATM   30  C15 UNL     1       2.011  -0.719  11.086  1.00  0.00     0.037 C 
HETATM   31  C16 UNL     1       3.078   1.181   9.874  1.00  0.00     0.037 C 
HETATM   32  C17 UNL     1       0.847   0.371   9.234  1.00  0.00     0.037 C 
ENDBRANCH  27  29
ENDBRANCH  22  23
ENDBRANCH   4  22
TORSDOF 9
ENDMDL
MODEL 5
REMARK VINA RESULT: -6.157480858      1.366      2.104
REMARK  9 active torsions:
REMARK  status: ('A' for Active; 'I' for Inactive)
REMARK    1  A    between atoms: C2_2  and  C3_3 
REMARK    2  A    between atoms: C3_3  and  C5_5 
REMARK    3  A    between atoms: C5_5  and  N1_6 
REMARK    4  A    between atoms: N1_6  and  C6_7 
REMARK       I    between atoms: N1_6  and  C20_25 
REMARK    5  A    between atoms: C6_7  and  C7_8 
REMARK    6  A    between atoms: C10_11  and  C11_12 
REMARK    7  A    between atoms: C11_12  and  N2_13 
REMARK       I    between atoms: N2_13  and  C13_15 
REMARK       I    between atoms: C13_15  and  N3_17 
REMARK    8  A    between atoms: N3_17  and  C14_19 
REMARK       I    between atoms: C20_25  and  N4_27 
REMARK    9  A    between atoms: N4_27  and  C21_29 
ROOT
HETATM    1  C7  UNL     1       1.692   2.543  17.878  1.00  0.00     0.008 C 
HETATM    2  C8  UNL     1       3.098   2.802  17.460  1.00  0.00     0.007 C 
HETATM    3  C9  UNL     1       3.148   1.970  16.158  1.00  0.00     0.007 C 
HETATM    4  C10 UNL     1       1.820   2.214  15.498  1.00  0.00     0.008 C 
HETATM    5  C18 UNL     1       0.954   2.824  16.574  1.00  0.00    -0.007 C 
HETATM    6  C19 UNL     1       0.745   4.293  16.433  1.00  0.00     0.011 C 
ENDROOT
BRANCH   1   7
HETATM    7  C6  UNL     1       1.129   3.373  18.966  1.00  0.00     0.132 C 
BRANCH   7   8
HETATM    8  N1  UNL     1       0.465   2.659  20.029  1.00  0.00    -0.333 N 
HETATM    9  C20 UNL     1      -0.245   3.376  21.011  1.00  0.00     0.318 C 
HETATM   10  O2  UNL     1      -0.744   2.719  21.980  1.00  0.00    -0.247 OA
HETATM   11  N4  UNL     1      -0.475   4.765  21.051  1.00  0.00    -0.335 N 
ATOM     12  H4  UNL     1      -0.096   5.338  20.297  1.00  0.00     0.165 HD
BRANCH   8  13
HETATM   13  C5  UNL     1       0.550   1.207  20.110  1.00  0.00     0.135 C 
BRANCH  13  14
HETATM   14  C3  UNL     1       1.673   0.705  20.967  1.00  0.00     0.021 C 
HETATM   15  C4  UNL     1       2.900   0.277  20.247  1.00  0.00     0.016 C 
BRANCH  14  16
HETATM   16  C2  UNL     1       1.176  -0.421  21.797  1.00  0.00    -0.031 C 
HETATM   17  C1  UNL     1      -0.019  -0.420  22.359  1.00  0.00     0.007 C 
ENDBRANCH  14  16
ENDBRANCH  13  14
ENDBRANCH   8  13
BRANCH  11  18
HETATM   18  C21 UNL     1      -1.216   5.424  22.101  1.00  0.00     0.023 C 
HETATM   19  C22 UNL     1      -0.830   4.914  23.474  1.00  0.00     0.037 C 
HETATM   20  C23 UNL     1      -2.694   5.198  21.935  1.00  0.00     0.037 C 
HETATM   21  C24 UNL     1      -0.949   6.904  22.072  1.00  0.00     0.037 C 
ENDBRANCH  11  18
ENDBRANCH   7   8
ENDBRANCH   1   7
BRANCH   4  22
HETATM   22  C11 UNL     1       1.863   3.094  14.298  1.00  0.00     0.132 C 
BRANCH  22  23
HETATM   23  N2  UNL     1       2.690   2.639  13.229  1.00  0.00    -0.338 N 
HETATM   24  C12 UNL     1       4.052   3.048  12.992  1.00  0.00     0.154 C 
HETATM   25  C13 UNL     1       2.117   1.693  12.301  1.00  0.00     0.318 C 
HETATM   26  O1  UNL     1       0.921   1.288  12.442  1.00  0.00    -0.247 OA
HETATM   27  N3  UNL     1       2.864   1.191  11.215  1.00  0.00    -0.335 N 
ATOM     28  H3  UNL     1       3.827   1.499  11.075  1.00  0.00     0.165 HD
BRANCH  27  29
HETATM   29  C14 UNL     1       2.276   0.252  10.307  1.00  0.00     0.023 C 
HETATM   30  C15 UNL     1       3.354  -0.449   9.490  1.00  0.00     0.037 C 
HETATM   31  C16 UNL     1       1.279   0.929   9.367  1.00  0.00     0.037 C 
HETATM   32  C17 UNL     1       1.536  -0.811  11.082  1.00  0.00     0.037 C 
ENDBRANCH  27  29
ENDBRANCH  22  23
ENDBRANCH   4  22
TORSDOF 9
ENDMDL
