MODEL 1
REMARK VINA RESULT: -6.000439194      0.000      0.000
REMARK  9 active torsions:
REMARK  status: ('A' for Active; 'I' for Inactive)
REMARK    1  A    between atoms: C2_2  and  C4_4 
REMARK    2  A    between atoms: C9_10  and  C10_11 
REMARK    3  A    between atoms: C10_11  and  N2_12 
REMARK    4  A    between atoms: C10_11  and  C16_25 
REMARK    5  A    between atoms: N2_12  and  C11_14 
REMARK    6  A    between atoms: C11_14  and  N3_16 
REMARK    7  A    between atoms: N3_16  and  C12_18 
REMARK    8  A    between atoms: C16_25  and  C17_26 
REMARK    9  A    between atoms: C16_25  and  C19_28 
ROOT
HETATM    1  C10 UNL     1      -0.502   2.746  20.442  1.00  0.00     0.093 C 
ENDROOT
BRANCH   1   2
HETATM    2  C9  UNL     1      -0.242   3.403  19.145  1.00  0.00     0.035 C 
HETATM    3  C8  UNL     1      -0.873   4.783  19.026  1.00  0.00     0.010 C 
HETATM    4  C7  UNL     1       0.153   5.711  18.383  1.00  0.00     0.028 C 
HETATM    5  C6  UNL     1       0.571   5.013  17.107  1.00  0.00     0.237 C 
HETATM    6  N1  UNL     1       1.476   3.944  17.477  1.00  0.00    -0.066 N 
HETATM    7  C5  UNL     1       1.404   2.920  16.487  1.00  0.00     0.246 C 
HETATM    8  C21 UNL     1       1.248   3.483  18.834  1.00  0.00     0.244 C 
HETATM    9  C22 UNL     1       2.839   4.421  17.399  1.00  0.00     0.242 C 
HETATM   10  C4  UNL     1       2.140   3.574  15.310  1.00  0.00     0.044 C 
HETATM   11  C23 UNL     1       3.366   4.061  16.011  1.00  0.00     0.017 C 
HETATM   12  C24 UNL     1       4.036   5.200  15.320  1.00  0.00     0.012 C 
BRANCH  10  13
HETATM   13  C2  UNL     1       2.424   2.665  14.206  1.00  0.00    -0.087 C 
HETATM   14  C1  UNL     1       1.552   2.402  13.249  1.00  0.00     0.014 C 
HETATM   15  C3  UNL     1       3.760   1.972  14.090  1.00  0.00     0.043 C 
ENDBRANCH  10  13
ENDBRANCH   1   2
BRANCH   1  16
HETATM   16  N2  UNL     1       0.642   2.032  20.995  1.00  0.00    -0.362 N 
ATOM     17  H2  UNL     1       1.402   2.617  21.342  1.00  0.00     0.162 HD
BRANCH  16  18
HETATM   18  C11 UNL     1       0.834   0.673  21.110  1.00  0.00     0.175 C 
HETATM   19  S1  UNL     1       0.152  -0.160  22.337  1.00  0.00    -0.041 SA
BRANCH  18  20
HETATM   20  N3  UNL     1       1.616  -0.069  20.194  1.00  0.00    -0.299 N 
ATOM     21  H3  UNL     1       1.356  -1.035  19.996  1.00  0.00     0.171 HD
BRANCH  20  22
HETATM   22  C12 UNL     1       2.648   0.434  19.597  1.00  0.00     0.230 A 
HETATM   23  N4  UNL     1       2.957   0.171  18.316  1.00  0.00    -0.330 N 
HETATM   24  C13 UNL     1       4.091   0.855  18.014  1.00  0.00     0.124 A 
ATOM     25  H4  UNL     1       2.434  -0.435  17.684  1.00  0.00     0.168 HD
HETATM   26  C14 UNL     1       4.444   1.531  19.157  1.00  0.00     0.068 A 
HETATM   27  C15 UNL     1       5.654   2.403  19.214  1.00  0.00     0.078 C 
HETATM   28  O1  UNL     1       3.555   1.244  20.056  1.00  0.00    -0.283 OA
ENDBRANCH  20  22
ENDBRANCH  18  20
ENDBRANCH  16  18
ENDBRANCH   1  16
BRANCH   1  29
HETATM   29  C16 UNL     1      -1.232   3.525  21.500  1.00  0.00     0.008 C 
BRANCH  29  30
HETATM   30  C17 UNL     1      -2.691   3.229  21.631  1.00  0.00     0.002 C 
HETATM   31  C18 UNL     1      -2.903   1.787  21.139  1.00  0.00     0.005 C 
ENDBRANCH  29  30
BRANCH  29  32
HETATM   32  C19 UNL     1      -0.492   3.740  22.770  1.00  0.00     0.002 C 
HETATM   33  C20 UNL     1      -1.043   4.638  23.786  1.00  0.00     0.005 C 
ENDBRANCH  29  32
ENDBRANCH   1  29
TORSDOF 9
ENDMDL
MODEL 2
REMARK VINA RESULT: -5.982680258      2.669      6.509
REMARK  9 active torsions:
REMARK  status: ('A' for Active; 'I' for Inactive)
REMARK    1  A    between atoms: C2_2  and  C4_4 
REMARK    2  A    between atoms: C9_10  and  C10_11 
REMARK    3  A    between atoms: C10_11  and  N2_12 
REMARK    4  A    between atoms: C10_11  and  C16_25 
REMARK    5  A    between atoms: N2_12  and  C11_14 
REMARK    6  A    between atoms: C11_14  and  N3_16 
REMARK    7  A    between atoms: N3_16  and  C12_18 
REMARK    8  A    between atoms: C16_25  and  C17_26 
REMARK    9  A    between atoms: C16_25  and  C19_28 
ROOT
HETATM    1  C10 UNL     1      -0.190   2.105  20.055  1.00  0.00     0.093 C 
ENDROOT
BRANCH   1   2
HETATM    2  C9  UNL     1      -1.063   2.733  21.067  1.00  0.00     0.035 C 
HETATM    3  C8  UNL     1      -0.333   3.115  22.346  1.00  0.00     0.010 C 
HETATM    4  C7  UNL     1      -0.814   4.502  22.761  1.00  0.00     0.028 C 
HETATM    5  C6  UNL     1      -2.323   4.397  22.814  1.00  0.00     0.237 C 
HETATM    6  N1  UNL     1      -2.804   4.422  21.448  1.00  0.00    -0.066 N 
HETATM    7  C5  UNL     1      -4.049   3.728  21.389  1.00  0.00     0.246 C 
HETATM    8  C21 UNL     1      -1.805   3.942  20.509  1.00  0.00     0.244 C 
HETATM    9  C22 UNL     1      -3.135   5.780  21.080  1.00  0.00     0.242 C 
HETATM   10  C4  UNL     1      -4.991   4.722  22.082  1.00  0.00     0.044 C 
HETATM   11  C23 UNL     1      -4.624   5.974  21.354  1.00  0.00     0.017 C 
HETATM   12  C24 UNL     1      -4.928   7.219  22.118  1.00  0.00     0.012 C 
BRANCH  10  13
HETATM   13  C2  UNL     1      -6.403   4.379  21.973  1.00  0.00    -0.087 C 
HETATM   14  C1  UNL     1      -7.227   4.391  23.006  1.00  0.00     0.014 C 
HETATM   15  C3  UNL     1      -7.014   3.996  20.646  1.00  0.00     0.043 C 
ENDBRANCH  10  13
ENDBRANCH   1   2
BRANCH   1  16
HETATM   16  N2  UNL     1       0.795   3.006  19.469  1.00  0.00    -0.362 N 
ATOM     17  H2  UNL     1       1.477   3.398  20.118  1.00  0.00     0.162 HD
BRANCH  16  18
HETATM   18  C11 UNL     1       0.927   3.399  18.155  1.00  0.00     0.175 C 
HETATM   19  S1  UNL     1      -0.068   4.527  17.523  1.00  0.00    -0.041 SA
BRANCH  18  20
HETATM   20  N3  UNL     1       1.910   2.860  17.292  1.00  0.00    -0.299 N 
ATOM     21  H3  UNL     1       1.814   3.007  16.287  1.00  0.00     0.171 HD
BRANCH  20  22
HETATM   22  C12 UNL     1       2.926   2.189  17.730  1.00  0.00     0.230 A 
HETATM   23  N4  UNL     1       3.438   1.127  17.087  1.00  0.00    -0.330 N 
HETATM   24  C13 UNL     1       4.488   0.667  17.816  1.00  0.00     0.124 A 
ATOM     25  H4  UNL     1       3.100   0.736  16.207  1.00  0.00     0.168 HD
HETATM   26  C14 UNL     1       4.580   1.490  18.912  1.00  0.00     0.068 A 
HETATM   27  C15 UNL     1       5.626   1.294  19.958  1.00  0.00     0.078 C 
HETATM   28  O1  UNL     1       3.633   2.368  18.806  1.00  0.00    -0.283 OA
ENDBRANCH  20  22
ENDBRANCH  18  20
ENDBRANCH  16  18
ENDBRANCH   1  16
BRANCH   1  29
HETATM   29  C16 UNL     1       0.405   0.761  20.364  1.00  0.00     0.008 C 
BRANCH  29  30
HETATM   30  C17 UNL     1      -0.266  -0.009  21.456  1.00  0.00     0.002 C 
HETATM   31  C18 UNL     1       0.836  -0.458  22.431  1.00  0.00     0.005 C 
ENDBRANCH  29  30
BRANCH  29  32
HETATM   32  C19 UNL     1       0.862  -0.030  19.192  1.00  0.00     0.002 C 
HETATM   33  C20 UNL     1      -0.054  -0.265  18.075  1.00  0.00     0.005 C 
ENDBRANCH  29  32
ENDBRANCH   1  29
TORSDOF 9
ENDMDL
MODEL 3
REMARK VINA RESULT: -5.982215135      2.234      6.117
REMARK  9 active torsions:
REMARK  status: ('A' for Active; 'I' for Inactive)
REMARK    1  A    between atoms: C2_2  and  C4_4 
REMARK    2  A    between atoms: C9_10  and  C10_11 
REMARK    3  A    between atoms: C10_11  and  N2_12 
REMARK    4  A    between atoms: C10_11  and  C16_25 
REMARK    5  A    between atoms: N2_12  and  C11_14 
REMARK    6  A    between atoms: C11_14  and  N3_16 
REMARK    7  A    between atoms: N3_16  and  C12_18 
REMARK    8  A    between atoms: C16_25  and  C17_26 
REMARK    9  A    between atoms: C16_25  and  C19_28 
ROOT
HETATM    1  C10 UNL     1       1.567   1.800  19.479  1.00  0.00     0.093 C 
ENDROOT
BRANCH   1   2
HETATM    2  C9  UNL     1       0.896   3.095  19.710  1.00  0.00     0.035 C 
HETATM    3  C8  UNL     1       0.942   4.025  18.507  1.00  0.00     0.010 C 
HETATM    4  C7  UNL     1      -0.437   4.659  18.354  1.00  0.00     0.028 C 
HETATM    5  C6  UNL     1      -0.744   5.267  19.706  1.00  0.00     0.237 C 
HETATM    6  N1  UNL     1      -1.122   4.183  20.589  1.00  0.00    -0.066 N 
HETATM    7  C5  UNL     1      -0.816   4.559  21.931  1.00  0.00     0.246 C 
HETATM    8  C21 UNL     1      -0.544   2.917  20.176  1.00  0.00     0.244 C 
HETATM    9  C22 UNL     1      -2.559   4.033  20.579  1.00  0.00     0.242 C 
HETATM   10  C4  UNL     1      -1.905   5.602  22.216  1.00  0.00     0.044 C 
HETATM   11  C23 UNL     1      -3.109   4.854  21.744  1.00  0.00     0.017 C 
HETATM   12  C24 UNL     1      -4.248   5.737  21.360  1.00  0.00     0.012 C 
BRANCH  10  13
HETATM   13  C2  UNL     1      -1.986   6.012  23.612  1.00  0.00    -0.087 C 
HETATM   14  C1  UNL     1      -2.046   5.151  24.612  1.00  0.00     0.014 C 
HETATM   15  C3  UNL     1      -1.992   7.472  23.998  1.00  0.00     0.043 C 
ENDBRANCH  10  13
ENDBRANCH   1   2
BRANCH   1  16
HETATM   16  N2  UNL     1       3.016   1.837  19.639  1.00  0.00    -0.362 N 
ATOM     17  H2  UNL     1       3.355   2.266  20.499  1.00  0.00     0.162 HD
BRANCH  16  18
HETATM   18  C11 UNL     1       3.988   1.368  18.782  1.00  0.00     0.175 C 
HETATM   19  S1  UNL     1       5.558   1.375  19.226  1.00  0.00    -0.041 SA
BRANCH  18  20
HETATM   20  N3  UNL     1       3.692   0.864  17.494  1.00  0.00    -0.299 N 
ATOM     21  H3  UNL     1       3.498  -0.132  17.389  1.00  0.00     0.171 HD
BRANCH  20  22
HETATM   22  C12 UNL     1       3.657   1.619  16.444  1.00  0.00     0.230 A 
HETATM   23  N4  UNL     1       3.644   2.961  16.504  1.00  0.00    -0.330 N 
HETATM   24  C13 UNL     1       3.608   3.433  15.231  1.00  0.00     0.124 A 
ATOM     25  H4  UNL     1       3.659   3.525  17.354  1.00  0.00     0.168 HD
HETATM   26  C14 UNL     1       3.599   2.328  14.415  1.00  0.00     0.068 A 
HETATM   27  C15 UNL     1       3.560   2.447  12.928  1.00  0.00     0.078 C 
HETATM   28  O1  UNL     1       3.630   1.287  15.187  1.00  0.00    -0.283 OA
ENDBRANCH  20  22
ENDBRANCH  18  20
ENDBRANCH  16  18
ENDBRANCH   1  16
BRANCH   1  29
HETATM   29  C16 UNL     1       0.973   0.570  20.104  1.00  0.00     0.008 C 
BRANCH  29  30
HETATM   30  C17 UNL     1       0.829  -0.612  19.199  1.00  0.00     0.002 C 
HETATM   31  C18 UNL     1       0.076  -0.128  17.947  1.00  0.00     0.005 C 
ENDBRANCH  29  30
BRANCH  29  32
HETATM   32  C19 UNL     1       1.406   0.278  21.495  1.00  0.00     0.002 C 
HETATM   33  C20 UNL     1       0.425  -0.190  22.476  1.00  0.00     0.005 C 
ENDBRANCH  29  32
ENDBRANCH   1  29
TORSDOF 9
ENDMDL
MODEL 4
REMARK VINA RESULT: -5.930722146      2.535      5.560
REMARK  9 active torsions:
REMARK  status: ('A' for Active; 'I' for Inactive)
REMARK    1  A    between atoms: C2_2  and  C4_4 
REMARK    2  A    between atoms: C9_10  and  C10_11 
REMARK    3  A    between atoms: C10_11  and  N2_12 
REMARK    4  A    between atoms: C10_11  and  C16_25 
REMARK    5  A    between atoms: N2_12  and  C11_14 
REMARK    6  A    between atoms: C11_14  and  N3_16 
REMARK    7  A    between atoms: N3_16  and  C12_18 
REMARK    8  A    between atoms: C16_25  and  C17_26 
REMARK    9  A    between atoms: C16_25  and  C19_28 
ROOT
HETATM    1  C10 UNL     1       1.441   1.842  20.314  1.00  0.00     0.093 C 
ENDROOT
BRANCH   1   2
HETATM    2  C9  UNL     1       2.601   2.157  19.455  1.00  0.00     0.035 C 
HETATM    3  C8  UNL     1       3.577   0.999  19.304  1.00  0.00     0.010 C 
HETATM    4  C7  UNL     1       3.986   0.923  17.837  1.00  0.00     0.028 C 
HETATM    5  C6  UNL     1       4.480   2.311  17.492  1.00  0.00     0.237 C 
HETATM    6  N1  UNL     1       3.313   3.154  17.328  1.00  0.00    -0.066 N 
HETATM    7  C5  UNL     1       3.677   4.501  17.624  1.00  0.00     0.246 C 
HETATM    8  C21 UNL     1       2.175   2.662  18.082  1.00  0.00     0.244 C 
HETATM    9  C22 UNL     1       2.936   3.185  15.933  1.00  0.00     0.242 C 
HETATM   10  C4  UNL     1       4.519   4.872  16.396  1.00  0.00     0.044 C 
HETATM   11  C23 UNL     1       3.608   4.405  15.308  1.00  0.00     0.017 C 
HETATM   12  C24 UNL     1       4.312   4.102  14.028  1.00  0.00     0.012 C 
BRANCH  10  13
HETATM   13  C2  UNL     1       4.853   6.288  16.307  1.00  0.00    -0.087 C 
HETATM   14  C1  UNL     1       3.941   7.244  16.343  1.00  0.00     0.014 C 
HETATM   15  C3  UNL     1       6.286   6.746  16.180  1.00  0.00     0.043 C 
ENDBRANCH  10  13
ENDBRANCH   1   2
BRANCH   1  16
HETATM   16  N2  UNL     1       0.286   2.706  20.103  1.00  0.00    -0.362 N 
ATOM     17  H2  UNL     1      -0.215   2.568  19.226  1.00  0.00     0.162 HD
BRANCH  16  18
HETATM   18  C11 UNL     1      -0.219   3.684  20.932  1.00  0.00     0.175 C 
HETATM   19  S1  UNL     1      -0.718   5.112  20.322  1.00  0.00    -0.041 SA
BRANCH  18  20
HETATM   20  N3  UNL     1      -0.334   3.514  22.332  1.00  0.00    -0.299 N 
ATOM     21  H3  UNL     1       0.318   2.889  22.806  1.00  0.00     0.171 HD
BRANCH  20  22
HETATM   22  C12 UNL     1      -1.234   4.124  23.034  1.00  0.00     0.230 A 
HETATM   23  N4  UNL     1      -0.940   4.928  24.068  1.00  0.00    -0.330 N 
HETATM   24  C13 UNL     1      -2.109   5.398  24.574  1.00  0.00     0.124 A 
ATOM     25  H4  UNL     1      -0.005   5.146  24.413  1.00  0.00     0.168 HD
HETATM   26  C14 UNL     1      -3.106   4.847  23.806  1.00  0.00     0.068 A 
HETATM   27  C15 UNL     1      -4.547   5.134  24.063  1.00  0.00     0.078 C 
HETATM   28  O1  UNL     1      -2.528   4.105  22.914  1.00  0.00    -0.283 OA
ENDBRANCH  20  22
ENDBRANCH  18  20
ENDBRANCH  16  18
ENDBRANCH   1  16
BRANCH   1  29
HETATM   29  C16 UNL     1       1.036   0.403  20.462  1.00  0.00     0.008 C 
BRANCH  29  30
HETATM   30  C17 UNL     1       1.143  -0.161  21.843  1.00  0.00     0.002 C 
HETATM   31  C18 UNL     1      -0.275  -0.153  22.441  1.00  0.00     0.005 C 
ENDBRANCH  29  30
BRANCH  29  32
HETATM   32  C19 UNL     1      -0.150  -0.019  19.674  1.00  0.00     0.002 C 
HETATM   33  C20 UNL     1      -0.001  -0.331  18.251  1.00  0.00     0.005 C 
ENDBRANCH  29  32
ENDBRANCH   1  29
TORSDOF 9
ENDMDL
MODEL 5
REMARK VINA RESULT: -5.925360641      4.131      6.826
REMARK  9 active torsions:
REMARK  status: ('A' for Active; 'I' for Inactive)
REMARK    1  A    between atoms: C2_2  and  C4_4 
REMARK    2  A    between atoms: C9_10  and  C10_11 
REMARK    3  A    between atoms: C10_11  and  N2_12 
REMARK    4  A    between atoms: C10_11  and  C16_25 
REMARK    5  A    between atoms: N2_12  and  C11_14 
REMARK    6  A    between atoms: C11_14  and  N3_16 
REMARK    7  A    between atoms: N3_16  and  C12_18 
REMARK    8  A    between atoms: C16_25  and  C17_26 
REMARK    9  A    between atoms: C16_25  and  C19_28 
ROOT
HETATM    1  C10 UNL     1      -4.097   4.652  21.440  1.00  0.00     0.093 C 
ENDROOT
BRANCH   1   2
HETATM    2  C9  UNL     1      -2.681   4.233  21.468  1.00  0.00     0.035 C 
HETATM    3  C8  UNL     1      -1.840   5.003  22.476  1.00  0.00     0.010 C 
HETATM    4  C7  UNL     1      -0.942   4.001  23.195  1.00  0.00     0.028 C 
HETATM    5  C6  UNL     1      -0.219   3.257  22.094  1.00  0.00     0.237 C 
HETATM    6  N1  UNL     1      -1.156   2.310  21.527  1.00  0.00    -0.066 N 
HETATM    7  C5  UNL     1      -0.787   2.055  20.173  1.00  0.00     0.246 C 
HETATM    8  C21 UNL     1      -2.533   2.734  21.702  1.00  0.00     0.244 C 
HETATM    9  C22 UNL     1      -1.004   1.031  22.184  1.00  0.00     0.242 C 
HETATM   10  C4  UNL     1       0.473   1.196  20.350  1.00  0.00     0.044 C 
HETATM   11  C23 UNL     1      -0.032   0.204  21.347  1.00  0.00     0.017 C 
HETATM   12  C24 UNL     1       1.049  -0.434  22.153  1.00  0.00     0.012 C 
BRANCH  10  13
HETATM   13  C2  UNL     1       0.958   0.589  19.118  1.00  0.00    -0.087 C 
HETATM   14  C1  UNL     1       0.176  -0.080  18.290  1.00  0.00     0.014 C 
HETATM   15  C3  UNL     1       2.407   0.704  18.709  1.00  0.00     0.043 C 
ENDBRANCH  10  13
ENDBRANCH   1   2
BRANCH   1  16
HETATM   16  N2  UNL     1      -4.993   3.700  20.793  1.00  0.00    -0.362 N 
ATOM     17  H2  UNL     1      -5.101   2.803  21.266  1.00  0.00     0.162 HD
BRANCH  16  18
HETATM   18  C11 UNL     1      -5.712   3.852  19.628  1.00  0.00     0.175 C 
HETATM   19  S1  UNL     1      -7.279   4.305  19.673  1.00  0.00    -0.041 SA
BRANCH  18  20
HETATM   20  N3  UNL     1      -5.150   3.629  18.349  1.00  0.00    -0.299 N 
ATOM     21  H3  UNL     1      -5.236   2.704  17.929  1.00  0.00     0.171 HD
BRANCH  20  22
HETATM   22  C12 UNL     1      -4.530   4.556  17.692  1.00  0.00     0.230 A 
HETATM   23  N4  UNL     1      -3.224   4.823  17.853  1.00  0.00    -0.330 N 
HETATM   24  C13 UNL     1      -2.903   5.845  17.017  1.00  0.00     0.124 A 
ATOM     25  H4  UNL     1      -2.587   4.345  18.490  1.00  0.00     0.168 HD
HETATM   26  C14 UNL     1      -4.062   6.174  16.356  1.00  0.00     0.068 A 
HETATM   27  C15 UNL     1      -4.105   7.268  15.342  1.00  0.00     0.078 C 
HETATM   28  O1  UNL     1      -4.987   5.380  16.796  1.00  0.00    -0.283 OA
ENDBRANCH  20  22
ENDBRANCH  18  20
ENDBRANCH  16  18
ENDBRANCH   1  16
BRANCH   1  29
HETATM   29  C16 UNL     1      -4.698   5.209  22.698  1.00  0.00     0.008 C 
BRANCH  29  30
HETATM   30  C17 UNL     1      -5.052   6.661  22.660  1.00  0.00     0.002 C 
HETATM   31  C18 UNL     1      -4.371   7.321  23.871  1.00  0.00     0.005 C 
ENDBRANCH  29  30
BRANCH  29  32
HETATM   32  C19 UNL     1      -5.658   4.322  23.405  1.00  0.00     0.002 C 
HETATM   33  C20 UNL     1      -7.072   4.694  23.477  1.00  0.00     0.005 C 
ENDBRANCH  29  32
ENDBRANCH   1  29
TORSDOF 9
ENDMDL
