MODEL 1
REMARK VINA RESULT: -5.676910942      0.000      0.000
REMARK  2 active torsions:
REMARK  status: ('A' for Active; 'I' for Inactive)
REMARK    1  A    between atoms: N1_4  and  N2_6 
REMARK    2  A    between atoms: C8_12  and  O1_13 
ROOT
HETATM    1  N2  UNL     1       5.893  -1.376  12.951  1.00  0.00    -0.309 N 
ATOM      2  H2  UNL     1       6.031  -2.378  13.082  1.00  0.00     0.186 HD
HETATM    3  C4  UNL     1       6.472  -0.757  11.986  1.00  0.00     0.006 C 
HETATM    4  C5  UNL     1       6.260   0.676  11.816  1.00  0.00     0.054 C 
HETATM    5  C6  UNL     1       6.451   1.155  10.399  1.00  0.00     0.008 C 
HETATM    6  C7  UNL     1       7.618   0.484   9.723  1.00  0.00     0.032 C 
HETATM    7  C8  UNL     1       7.515  -1.008   9.739  1.00  0.00     0.123 C 
HETATM    8  C9  UNL     1       7.329  -1.593  11.106  1.00  0.00     0.085 C 
ENDROOT
BRANCH   1   9
HETATM    9  N1  UNL     1       5.074  -0.654  13.815  1.00  0.00    -0.310 N 
HETATM   10  C2  UNL     1       5.331  -0.608  15.058  1.00  0.00    -0.004 C 
HETATM   11  C1  UNL     1       6.495  -1.312  15.616  1.00  0.00     0.064 C 
HETATM   12  C3  UNL     1       4.425   0.176  15.932  1.00  0.00     0.064 C 
ATOM     13  H1  UNL     1       4.262  -0.158  13.447  1.00  0.00     0.186 HD
ENDBRANCH   1   9
BRANCH   7  14
HETATM   14  O1  UNL     1       6.442  -1.428   8.936  1.00  0.00    -0.395 OA
ATOM     15  H1  UNL     1       6.652  -2.251   8.512  1.00  0.00     0.210 HD
ENDBRANCH   7  14
TORSDOF 2
ENDMDL
MODEL 2
REMARK VINA RESULT: -5.316216929      3.396      4.369
REMARK  2 active torsions:
REMARK  status: ('A' for Active; 'I' for Inactive)
REMARK    1  A    between atoms: N1_4  and  N2_6 
REMARK    2  A    between atoms: C8_12  and  O1_13 
ROOT
HETATM    1  N2  UNL     1       6.320   0.921   9.515  1.00  0.00    -0.309 N 
ATOM      2  H2  UNL     1       5.551   1.452   9.107  1.00  0.00     0.186 HD
HETATM    3  C4  UNL     1       6.867  -0.041   8.864  1.00  0.00     0.006 C 
HETATM    4  C5  UNL     1       7.968  -0.787   9.466  1.00  0.00     0.054 C 
HETATM    5  C6  UNL     1       8.892  -1.424   8.458  1.00  0.00     0.008 C 
HETATM    6  C7  UNL     1       8.144  -2.005   7.286  1.00  0.00     0.032 C 
HETATM    7  C8  UNL     1       7.273  -1.000   6.602  1.00  0.00     0.123 C 
HETATM    8  C9  UNL     1       6.307  -0.308   7.514  1.00  0.00     0.085 C 
ENDROOT
BRANCH   1   9
HETATM    9  N1  UNL     1       6.797   1.227  10.787  1.00  0.00    -0.310 N 
HETATM   10  C2  UNL     1       6.968   2.435  11.138  1.00  0.00    -0.004 C 
HETATM   11  C1  UNL     1       6.668   3.540  10.215  1.00  0.00     0.064 C 
HETATM   12  C3  UNL     1       7.478   2.703  12.505  1.00  0.00     0.064 C 
ATOM     13  H1  UNL     1       7.010   0.474  11.442  1.00  0.00     0.186 HD
ENDBRANCH   1   9
BRANCH   7  14
HETATM   14  O1  UNL     1       8.061  -0.019   5.979  1.00  0.00    -0.395 OA
ATOM     15  H1  UNL     1       7.598   0.352   5.238  1.00  0.00     0.210 HD
ENDBRANCH   7  14
TORSDOF 2
ENDMDL
MODEL 3
REMARK VINA RESULT: -5.146238562      3.308      5.438
REMARK  2 active torsions:
REMARK  status: ('A' for Active; 'I' for Inactive)
REMARK    1  A    between atoms: N1_4  and  N2_6 
REMARK    2  A    between atoms: C8_12  and  O1_13 
ROOT
HETATM    1  N2  UNL     1       6.585   1.556   8.357  1.00  0.00    -0.309 N 
ATOM      2  H2  UNL     1       6.697   1.120   7.442  1.00  0.00     0.186 HD
HETATM    3  C4  UNL     1       6.552   0.840   9.422  1.00  0.00     0.006 C 
HETATM    4  C5  UNL     1       6.392   1.485  10.721  1.00  0.00     0.054 C 
HETATM    5  C6  UNL     1       6.961   0.689  11.869  1.00  0.00     0.008 C 
HETATM    6  C7  UNL     1       6.694  -0.787  11.726  1.00  0.00     0.032 C 
HETATM    7  C8  UNL     1       7.198  -1.342  10.432  1.00  0.00     0.123 C 
HETATM    8  C9  UNL     1       6.687  -0.625   9.220  1.00  0.00     0.085 C 
ENDROOT
BRANCH   1   9
HETATM    9  N1  UNL     1       6.464   2.938   8.473  1.00  0.00    -0.310 N 
HETATM   10  C2  UNL     1       5.514   3.553   7.898  1.00  0.00    -0.004 C 
HETATM   11  C1  UNL     1       4.519   2.825   7.096  1.00  0.00     0.064 C 
HETATM   12  C3  UNL     1       5.434   5.025   8.056  1.00  0.00     0.064 C 
ATOM     13  H1  UNL     1       7.145   3.461   9.026  1.00  0.00     0.186 HD
ENDBRANCH   1   9
BRANCH   7  14
HETATM   14  O1  UNL     1       8.602  -1.303  10.402  1.00  0.00    -0.395 OA
ATOM     15  H1  UNL     1       8.931  -1.866   9.711  1.00  0.00     0.210 HD
ENDBRANCH   7  14
TORSDOF 2
ENDMDL
MODEL 4
REMARK VINA RESULT: -5.143672585      4.921      6.142
REMARK  2 active torsions:
REMARK  status: ('A' for Active; 'I' for Inactive)
REMARK    1  A    between atoms: N1_4  and  N2_6 
REMARK    2  A    between atoms: C8_12  and  O1_13 
ROOT
HETATM    1  N2  UNL     1       7.070   0.948   7.513  1.00  0.00    -0.309 N 
ATOM      2  H2  UNL     1       6.848   0.499   6.625  1.00  0.00     0.186 HD
HETATM    3  C4  UNL     1       6.674   2.145   7.758  1.00  0.00     0.006 C 
HETATM    4  C5  UNL     1       7.002   2.769   9.035  1.00  0.00     0.054 C 
HETATM    5  C6  UNL     1       6.031   3.844   9.454  1.00  0.00     0.008 C 
HETATM    6  C7  UNL     1       5.592   4.698   8.293  1.00  0.00     0.032 C 
HETATM    7  C8  UNL     1       5.001   3.896   7.177  1.00  0.00     0.123 C 
HETATM    8  C9  UNL     1       5.890   2.798   6.678  1.00  0.00     0.085 C 
ENDROOT
BRANCH   1   9
HETATM    9  N1  UNL     1       7.810   0.276   8.483  1.00  0.00    -0.310 N 
HETATM   10  C2  UNL     1       8.238  -0.899   8.265  1.00  0.00    -0.004 C 
HETATM   11  C1  UNL     1       7.966  -1.580   6.990  1.00  0.00     0.064 C 
HETATM   12  C3  UNL     1       9.021  -1.569   9.333  1.00  0.00     0.064 C 
ATOM     13  H1  UNL     1       8.009   0.731   9.374  1.00  0.00     0.186 HD
ENDBRANCH   1   9
BRANCH   7  14
HETATM   14  O1  UNL     1       3.786   3.321   7.584  1.00  0.00    -0.395 OA
ATOM     15  H1  UNL     1       3.057   3.862   7.303  1.00  0.00     0.210 HD
ENDBRANCH   7  14
TORSDOF 2
ENDMDL
MODEL 5
REMARK VINA RESULT: -5.132728708      4.326      5.536
REMARK  2 active torsions:
REMARK  status: ('A' for Active; 'I' for Inactive)
REMARK    1  A    between atoms: N1_4  and  N2_6 
REMARK    2  A    between atoms: C8_12  and  O1_13 
ROOT
HETATM    1  N2  UNL     1       6.276   2.317   9.240  1.00  0.00    -0.309 N 
ATOM      2  H2  UNL     1       6.168   1.303   9.238  1.00  0.00     0.186 HD
HETATM    3  C4  UNL     1       5.755   3.031   8.309  1.00  0.00     0.006 C 
HETATM    4  C5  UNL     1       5.921   4.481   8.332  1.00  0.00     0.054 C 
HETATM    5  C6  UNL     1       4.826   5.229   7.613  1.00  0.00     0.008 C 
HETATM    6  C7  UNL     1       4.407   4.541   6.339  1.00  0.00     0.032 C 
HETATM    7  C8  UNL     1       3.984   3.124   6.560  1.00  0.00     0.123 C 
HETATM    8  C9  UNL     1       5.006   2.285   7.265  1.00  0.00     0.085 C 
ENDROOT
BRANCH   1   9
HETATM    9  N1  UNL     1       6.991   2.952  10.252  1.00  0.00    -0.310 N 
HETATM   10  C2  UNL     1       7.004   2.475  11.428  1.00  0.00    -0.004 C 
HETATM   11  C1  UNL     1       6.266   1.245  11.753  1.00  0.00     0.064 C 
HETATM   12  C3  UNL     1       7.782   3.192  12.467  1.00  0.00     0.064 C 
ATOM     13  H1  UNL     1       7.510   3.806  10.046  1.00  0.00     0.186 HD
ENDBRANCH   1   9
BRANCH   7  14
HETATM   14  O1  UNL     1       2.797   3.084   7.309  1.00  0.00    -0.395 OA
ATOM     15  H1  UNL     1       2.130   3.620   6.895  1.00  0.00     0.210 HD
ENDBRANCH   7  14
TORSDOF 2
ENDMDL
