MODEL 1
REMARK VINA RESULT: -4.713917508      0.000      0.000
REMARK  1 active torsions:
REMARK  status: ('A' for Active; 'I' for Inactive)
REMARK       I    between atoms: C2_2  and  N1_4 
REMARK    1  A    between atoms: N1_4  and  N2_6 
ROOT
HETATM    1  N2  UNL     1       7.402  -0.240  11.458  1.00  0.00    -0.286 N 
ATOM      2  H2  UNL     1       7.926  -0.913  12.016  1.00  0.00     0.188 HD
HETATM    3  C3  UNL     1       7.555  -0.241  10.196  1.00  0.00     0.122 C 
HETATM    4  S1  UNL     1       6.841   0.746   8.906  1.00  0.00    -0.103 SA
HETATM    5  C4  UNL     1       7.783   0.318   7.445  1.00  0.00     0.092 C 
HETATM    6  C5  UNL     1       8.361  -1.025   7.587  1.00  0.00     0.092 C 
HETATM    7  S2  UNL     1       8.653  -1.371   9.331  1.00  0.00    -0.103 SA
ENDROOT
BRANCH   1   8
HETATM    8  N1  UNL     1       6.539   0.653  12.116  1.00  0.00    -0.269 N 
HETATM    9  C2  UNL     1       5.547   0.122  12.967  1.00  0.00     0.232 C 
HETATM   10  C1  UNL     1       4.616   1.065  13.677  1.00  0.00     0.119 C 
HETATM   11  O1  UNL     1       5.462  -1.115  13.114  1.00  0.00    -0.272 OA
ATOM     12  H1  UNL     1       6.628   1.660  11.981  1.00  0.00     0.190 HD
ENDBRANCH   1   8
TORSDOF 1
ENDMDL
MODEL 2
REMARK VINA RESULT: -4.470317937      2.881      5.401
REMARK  1 active torsions:
REMARK  status: ('A' for Active; 'I' for Inactive)
REMARK       I    between atoms: C2_2  and  N1_4 
REMARK    1  A    between atoms: N1_4  and  N2_6 
ROOT
HETATM    1  N2  UNL     1       7.693   0.401   9.410  1.00  0.00    -0.286 N 
ATOM      2  H2  UNL     1       7.798   1.349   9.051  1.00  0.00     0.188 HD
HETATM    3  C3  UNL     1       7.116   0.234  10.531  1.00  0.00     0.122 C 
HETATM    4  S1  UNL     1       6.746  -1.220  11.477  1.00  0.00    -0.103 SA
HETATM    5  C4  UNL     1       6.186  -0.592  13.057  1.00  0.00     0.092 C 
HETATM    6  C5  UNL     1       5.648   0.766  12.904  1.00  0.00     0.092 C 
HETATM    7  S2  UNL     1       6.472   1.584  11.527  1.00  0.00    -0.103 SA
ENDROOT
BRANCH   1   8
HETATM    8  N1  UNL     1       8.192  -0.668   8.648  1.00  0.00    -0.269 N 
HETATM    9  C2  UNL     1       8.258  -0.519   7.247  1.00  0.00     0.232 C 
HETATM   10  C1  UNL     1       8.789  -1.655   6.418  1.00  0.00     0.119 C 
HETATM   11  O1  UNL     1       7.876   0.549   6.724  1.00  0.00    -0.272 OA
ATOM     12  H1  UNL     1       8.499  -1.531   9.097  1.00  0.00     0.190 HD
ENDBRANCH   1   8
TORSDOF 1
ENDMDL
MODEL 3
REMARK VINA RESULT: -4.397363821      2.056      2.212
REMARK  1 active torsions:
REMARK  status: ('A' for Active; 'I' for Inactive)
REMARK       I    between atoms: C2_2  and  N1_4 
REMARK    1  A    between atoms: N1_4  and  N2_6 
ROOT
HETATM    1  N2  UNL     1       6.074  -1.381  12.834  1.00  0.00    -0.286 N 
ATOM      2  H2  UNL     1       6.359  -2.324  13.100  1.00  0.00     0.188 HD
HETATM    3  C3  UNL     1       6.546  -0.880  11.765  1.00  0.00     0.122 C 
HETATM    4  S1  UNL     1       6.303   0.690  10.975  1.00  0.00    -0.103 SA
HETATM    5  C4  UNL     1       7.536   0.730   9.677  1.00  0.00     0.092 C 
HETATM    6  C5  UNL     1       7.904  -0.636   9.282  1.00  0.00     0.092 C 
HETATM    7  S2  UNL     1       7.697  -1.743  10.688  1.00  0.00    -0.103 SA
ENDROOT
BRANCH   1   8
HETATM    8  N1  UNL     1       5.176  -0.689  13.664  1.00  0.00    -0.269 N 
HETATM    9  C2  UNL     1       5.384  -0.730  15.058  1.00  0.00     0.232 C 
HETATM   10  C1  UNL     1       4.430   0.005  15.958  1.00  0.00     0.119 C 
HETATM   11  O1  UNL     1       6.351  -1.374  15.517  1.00  0.00    -0.272 OA
ATOM     12  H1  UNL     1       4.393  -0.170  13.267  1.00  0.00     0.190 HD
ENDBRANCH   1   8
TORSDOF 1
ENDMDL
MODEL 4
REMARK VINA RESULT: -4.388633359      3.588      4.481
REMARK  1 active torsions:
REMARK  status: ('A' for Active; 'I' for Inactive)
REMARK       I    between atoms: C2_2  and  N1_4 
REMARK    1  A    between atoms: N1_4  and  N2_6 
ROOT
HETATM    1  N2  UNL     1       7.018   1.449   8.576  1.00  0.00    -0.286 N 
ATOM      2  H2  UNL     1       7.177   1.007   7.671  1.00  0.00     0.188 HD
HETATM    3  C3  UNL     1       6.951   0.712   9.610  1.00  0.00     0.122 C 
HETATM    4  S1  UNL     1       6.694   1.085  11.326  1.00  0.00    -0.103 SA
HETATM    5  C4  UNL     1       6.446  -0.512  12.096  1.00  0.00     0.092 C 
HETATM    6  C5  UNL     1       7.091  -1.566  11.302  1.00  0.00     0.092 C 
HETATM    7  S2  UNL     1       7.121  -1.077   9.568  1.00  0.00    -0.103 SA
ENDROOT
BRANCH   1   8
HETATM    8  N1  UNL     1       6.881   2.846   8.630  1.00  0.00    -0.269 N 
HETATM    9  C2  UNL     1       5.672   3.419   8.185  1.00  0.00     0.232 C 
HETATM   10  C1  UNL     1       5.512   4.913   8.237  1.00  0.00     0.119 C 
HETATM   11  O1  UNL     1       4.762   2.678   7.758  1.00  0.00    -0.272 OA
ATOM     12  H1  UNL     1       7.639   3.431   8.983  1.00  0.00     0.190 HD
ENDBRANCH   1   8
TORSDOF 1
ENDMDL
MODEL 5
REMARK VINA RESULT: -4.349232272      2.782      5.002
REMARK  1 active torsions:
REMARK  status: ('A' for Active; 'I' for Inactive)
REMARK       I    between atoms: C2_2  and  N1_4 
REMARK    1  A    between atoms: N1_4  and  N2_6 
ROOT
HETATM    1  N2  UNL     1       6.850  -1.449   9.588  1.00  0.00    -0.286 N 
ATOM      2  H2  UNL     1       6.729  -2.388   9.967  1.00  0.00     0.188 HD
HETATM    3  C3  UNL     1       6.713  -0.454  10.369  1.00  0.00     0.122 C 
HETATM    4  S1  UNL     1       6.841   1.296  10.105  1.00  0.00    -0.103 SA
HETATM    5  C4  UNL     1       6.230   2.020  11.624  1.00  0.00     0.092 C 
HETATM    6  C5  UNL     1       6.394   1.078  12.739  1.00  0.00     0.092 C 
HETATM    7  S2  UNL     1       6.316  -0.610  12.115  1.00  0.00    -0.103 SA
ENDROOT
BRANCH   1   8
HETATM    8  N1  UNL     1       7.160  -1.306   8.226  1.00  0.00    -0.269 N 
HETATM    9  C2  UNL     1       8.471  -1.608   7.801  1.00  0.00     0.232 C 
HETATM   10  C1  UNL     1       8.816  -1.459   6.346  1.00  0.00     0.119 C 
HETATM   11  O1  UNL     1       9.314  -1.991   8.638  1.00  0.00    -0.272 OA
ATOM     12  H1  UNL     1       6.454  -0.991   7.560  1.00  0.00     0.190 HD
ENDBRANCH   1   8
TORSDOF 1
ENDMDL
