MODEL 1
REMARK VINA RESULT: -5.706395602      0.000      0.000
REMARK  1 active torsions:
REMARK  status: ('A' for Active; 'I' for Inactive)
REMARK    1  A    between atoms: C2_2  and  C3_4 
ROOT
HETATM    1  C3  UNL     1       6.412   0.989  10.496  1.00  0.00     0.084 C 
HETATM    2  C4  UNL     1       6.902   1.917   9.387  1.00  0.00     0.014 C 
HETATM    3  C5  UNL     1       6.167   1.510   8.105  1.00  0.00     0.001 C 
HETATM    4  C6  UNL     1       5.784   0.040   8.174  1.00  0.00     0.002 C 
HETATM    5  C7  UNL     1       6.823  -0.778   8.877  1.00  0.00     0.032 C 
HETATM    6  C8  UNL     1       7.047  -0.318  10.311  1.00  0.00     0.090 C 
HETATM    7  C9  UNL     1       6.876  -1.412  11.302  1.00  0.00     0.226 C 
HETATM    8  O2  UNL     1       8.094  -1.868  10.730  1.00  0.00    -0.283 OA
HETATM    9  N1  UNL     1       8.412  -0.527  10.660  1.00  0.00    -0.087 NA
ENDROOT
BRANCH   1  10
HETATM   10  C2  UNL     1       6.424   1.615  11.803  1.00  0.00     0.129 C 
HETATM   11  C1  UNL     1       7.405   2.690  12.101  1.00  0.00     0.091 C 
HETATM   12  O1  UNL     1       5.661   1.300  12.677  1.00  0.00    -0.298 OA
ENDBRANCH   1  10
TORSDOF 1
ENDMDL
MODEL 2
REMARK VINA RESULT: -5.675103688      2.066      2.970
REMARK  1 active torsions:
REMARK  status: ('A' for Active; 'I' for Inactive)
REMARK    1  A    between atoms: C2_2  and  C3_4 
ROOT
HETATM    1  C3  UNL     1       7.082   0.979  10.876  1.00  0.00     0.084 C 
HETATM    2  C4  UNL     1       6.550  -0.418  11.186  1.00  0.00     0.014 C 
HETATM    3  C5  UNL     1       7.621  -1.416  10.731  1.00  0.00     0.001 C 
HETATM    4  C6  UNL     1       8.440  -0.812   9.599  1.00  0.00     0.002 C 
HETATM    5  C7  UNL     1       7.605   0.040   8.695  1.00  0.00     0.032 C 
HETATM    6  C8  UNL     1       6.958   1.204   9.434  1.00  0.00     0.090 C 
HETATM    7  C9  UNL     1       7.272   2.522   8.823  1.00  0.00     0.226 C 
HETATM    8  O2  UNL     1       6.411   2.042   7.799  1.00  0.00    -0.283 OA
HETATM    9  N1  UNL     1       5.695   1.489   8.840  1.00  0.00    -0.087 NA
ENDROOT
BRANCH   1  10
HETATM   10  C2  UNL     1       6.602   1.985  11.803  1.00  0.00     0.129 C 
HETATM   11  C1  UNL     1       7.563   2.917  12.447  1.00  0.00     0.091 C 
HETATM   12  O1  UNL     1       5.439   2.104  12.082  1.00  0.00    -0.298 OA
ENDBRANCH   1  10
TORSDOF 1
ENDMDL
MODEL 3
REMARK VINA RESULT: -5.471999440      1.932      4.242
REMARK  1 active torsions:
REMARK  status: ('A' for Active; 'I' for Inactive)
REMARK    1  A    between atoms: C2_2  and  C3_4 
ROOT
HETATM    1  C3  UNL     1       6.398   0.272  11.633  1.00  0.00     0.084 C 
HETATM    2  C4  UNL     1       6.517  -0.441  12.978  1.00  0.00     0.014 C 
HETATM    3  C5  UNL     1       5.207  -0.191  13.734  1.00  0.00     0.001 C 
HETATM    4  C6  UNL     1       4.586   1.118  13.271  1.00  0.00     0.002 C 
HETATM    5  C7  UNL     1       5.623   2.153  12.963  1.00  0.00     0.032 C 
HETATM    6  C8  UNL     1       6.574   1.708  11.861  1.00  0.00     0.090 C 
HETATM    7  C9  UNL     1       6.640   2.672  10.731  1.00  0.00     0.226 C 
HETATM    8  O2  UNL     1       7.327   3.463  11.691  1.00  0.00    -0.283 OA
HETATM    9  N1  UNL     1       7.863   2.261  12.106  1.00  0.00    -0.087 NA
ENDROOT
BRANCH   1  10
HETATM   10  C2  UNL     1       7.145  -0.384  10.578  1.00  0.00     0.129 C 
HETATM   11  C1  UNL     1       6.504  -0.635   9.262  1.00  0.00     0.091 C 
HETATM   12  O1  UNL     1       8.284  -0.743  10.720  1.00  0.00    -0.298 OA
ENDBRANCH   1  10
TORSDOF 1
ENDMDL
MODEL 4
REMARK VINA RESULT: -5.459437814      2.081      3.193
REMARK  1 active torsions:
REMARK  status: ('A' for Active; 'I' for Inactive)
REMARK    1  A    between atoms: C2_2  and  C3_4 
ROOT
HETATM    1  C3  UNL     1       6.635   1.501  12.209  1.00  0.00     0.084 C 
HETATM    2  C4  UNL     1       5.184   1.612  12.670  1.00  0.00     0.014 C 
HETATM    3  C5  UNL     1       4.996   0.597  13.804  1.00  0.00     0.001 C 
HETATM    4  C6  UNL     1       5.977  -0.553  13.634  1.00  0.00     0.002 C 
HETATM    5  C7  UNL     1       6.202  -0.891  12.193  1.00  0.00     0.032 C 
HETATM    6  C8  UNL     1       6.766   0.283  11.405  1.00  0.00     0.090 C 
HETATM    7  C9  UNL     1       8.031  -0.049  10.699  1.00  0.00     0.226 C 
HETATM    8  O2  UNL     1       7.156  -0.819   9.886  1.00  0.00    -0.283 OA
HETATM    9  N1  UNL     1       6.276   0.228  10.069  1.00  0.00    -0.087 NA
ENDROOT
BRANCH   1  10
HETATM   10  C2  UNL     1       7.166   2.753  11.706  1.00  0.00     0.129 C 
HETATM   11  C1  UNL     1       6.617   3.343  10.458  1.00  0.00     0.091 C 
HETATM   12  O1  UNL     1       8.047   3.351  12.263  1.00  0.00    -0.298 OA
ENDBRANCH   1  10
TORSDOF 1
ENDMDL
MODEL 5
REMARK VINA RESULT: -5.376023890      1.479      3.390
REMARK  1 active torsions:
REMARK  status: ('A' for Active; 'I' for Inactive)
REMARK    1  A    between atoms: C2_2  and  C3_4 
ROOT
HETATM    1  C3  UNL     1       7.242   0.924  10.071  1.00  0.00     0.084 C 
HETATM    2  C4  UNL     1       6.226   0.852   8.933  1.00  0.00     0.014 C 
HETATM    3  C5  UNL     1       6.418   2.112   8.081  1.00  0.00     0.001 C 
HETATM    4  C6  UNL     1       6.981   3.235   8.940  1.00  0.00     0.002 C 
HETATM    5  C7  UNL     1       6.435   3.202  10.334  1.00  0.00     0.032 C 
HETATM    6  C8  UNL     1       6.760   1.899  11.052  1.00  0.00     0.090 C 
HETATM    7  C9  UNL     1       7.460   2.112  12.345  1.00  0.00     0.226 C 
HETATM    8  O2  UNL     1       6.185   2.593  12.743  1.00  0.00    -0.283 OA
HETATM    9  N1  UNL     1       5.697   1.580  11.944  1.00  0.00    -0.087 NA
ENDROOT
BRANCH   1  10
HETATM   10  C2  UNL     1       7.686  -0.382  10.516  1.00  0.00     0.129 C 
HETATM   11  C1  UNL     1       6.729  -1.304  11.180  1.00  0.00     0.091 C 
HETATM   12  O1  UNL     1       8.816  -0.764  10.369  1.00  0.00    -0.298 OA
ENDBRANCH   1  10
TORSDOF 1
ENDMDL
