MODEL 1
REMARK VINA RESULT: -6.310802125      0.000      0.000
REMARK  4 active torsions:
REMARK  status: ('A' for Active; 'I' for Inactive)
REMARK    1  A    between atoms: C2_2  and  C3_3 
REMARK    2  A    between atoms: C3_3  and  N1_4 
REMARK    3  A    between atoms: N1_4  and  C4_6 
REMARK    4  A    between atoms: C7_9  and  C8_10 
ROOT
HETATM    1  C8  UNL     1      65.227  38.686  25.887  1.00  0.00     0.135 C 
HETATM    2  C9  UNL     1      66.130  39.812  25.936  1.00  0.00     0.059 C 
HETATM    3  N2  UNL     1      66.845  40.721  25.957  1.00  0.00    -0.197 NA
ENDROOT
BRANCH   1   4
HETATM    4  C7  UNL     1      65.735  37.562  24.985  1.00  0.00     0.002 C 
HETATM    5  C6  UNL     1      64.750  36.422  25.072  1.00  0.00     0.014 C 
HETATM    6  C5  UNL     1      65.389  35.088  24.972  1.00  0.00     0.026 C 
HETATM    7  C4  UNL     1      66.544  34.827  25.913  1.00  0.00     0.082 C 
HETATM    8  C13 UNL     1      67.138  36.081  26.471  1.00  0.00     0.058 C 
HETATM    9  C12 UNL     1      67.112  37.170  25.415  1.00  0.00     0.197 C 
HETATM   10  N3  UNL     1      67.860  36.842  24.232  1.00  0.00    -0.070 N 
HETATM   11  C11 UNL     1      67.178  37.377  23.093  1.00  0.00     0.233 C 
ATOM     12  H32 UNL     1      68.035  35.841  24.147  1.00  0.00     0.277 HD
ATOM     13  H31 UNL     1      68.831  37.151  24.286  1.00  0.00     0.277 HD
HETATM   14  C10 UNL     1      65.922  38.026  23.557  1.00  0.00     0.040 C 
BRANCH   7  15
HETATM   15  N1  UNL     1      66.203  33.891  26.941  1.00  0.00    -0.398 N 
ATOM     16  H1  UNL     1      65.263  33.864  27.336  1.00  0.00     0.159 HD
BRANCH  15  17
HETATM   17  C3  UNL     1      67.206  33.009  27.393  1.00  0.00     0.055 C 
BRANCH  17  18
HETATM   18  C2  UNL     1      67.634  32.086  26.265  1.00  0.00     0.039 C 
HETATM   19  C1  UNL     1      66.815  30.833  26.252  1.00  0.00     0.010 C 
ENDBRANCH  17  18
ENDBRANCH  15  17
ENDBRANCH   7  15
ENDBRANCH   1   4
TORSDOF 4
ENDMDL
MODEL 2
REMARK VINA RESULT: -6.171873712      1.845      3.075
REMARK  4 active torsions:
REMARK  status: ('A' for Active; 'I' for Inactive)
REMARK    1  A    between atoms: C2_2  and  C3_3 
REMARK    2  A    between atoms: C3_3  and  N1_4 
REMARK    3  A    between atoms: N1_4  and  C4_6 
REMARK    4  A    between atoms: C7_9  and  C8_10 
ROOT
HETATM    1  C8  UNL     1      65.495  36.807  22.818  1.00  0.00     0.135 C 
HETATM    2  C9  UNL     1      64.321  35.972  22.916  1.00  0.00     0.059 C 
HETATM    3  N2  UNL     1      63.367  35.322  22.993  1.00  0.00    -0.197 NA
ENDROOT
BRANCH   1   4
HETATM    4  C7  UNL     1      65.912  37.397  24.165  1.00  0.00     0.002 C 
HETATM    5  C6  UNL     1      67.404  37.215  24.304  1.00  0.00     0.014 C 
HETATM    6  C5  UNL     1      67.835  36.967  25.700  1.00  0.00     0.026 C 
HETATM    7  C4  UNL     1      67.123  35.852  26.433  1.00  0.00     0.082 C 
HETATM    8  C13 UNL     1      65.818  35.480  25.804  1.00  0.00     0.058 C 
HETATM    9  C12 UNL     1      65.144  36.724  25.256  1.00  0.00     0.197 C 
HETATM   10  N3  UNL     1      64.858  37.712  26.260  1.00  0.00    -0.070 N 
HETATM   11  C11 UNL     1      65.044  39.013  25.691  1.00  0.00     0.233 C 
ATOM     12  H32 UNL     1      65.407  37.576  27.109  1.00  0.00     0.277 HD
ATOM     13  H31 UNL     1      63.931  37.595  26.671  1.00  0.00     0.277 HD
HETATM   14  C10 UNL     1      65.517  38.852  24.289  1.00  0.00     0.040 C 
BRANCH   7  15
HETATM   15  N1  UNL     1      67.965  34.713  26.635  1.00  0.00    -0.398 N 
ATOM     16  H1  UNL     1      68.960  34.749  26.414  1.00  0.00     0.159 HD
BRANCH  15  17
HETATM   17  C3  UNL     1      67.379  33.538  27.148  1.00  0.00     0.055 C 
BRANCH  17  18
HETATM   18  C2  UNL     1      67.774  32.344  26.297  1.00  0.00     0.039 C 
HETATM   19  C1  UNL     1      66.743  31.261  26.375  1.00  0.00     0.010 C 
ENDBRANCH  17  18
ENDBRANCH  15  17
ENDBRANCH   7  15
ENDBRANCH   1   4
TORSDOF 4
ENDMDL
MODEL 3
REMARK VINA RESULT: -6.158047613      1.183      1.391
REMARK  4 active torsions:
REMARK  status: ('A' for Active; 'I' for Inactive)
REMARK    1  A    between atoms: C2_2  and  C3_3 
REMARK    2  A    between atoms: C3_3  and  N1_4 
REMARK    3  A    between atoms: N1_4  and  C4_6 
REMARK    4  A    between atoms: C7_9  and  C8_10 
ROOT
HETATM    1  C8  UNL     1      65.291  38.352  26.279  1.00  0.00     0.135 C 
HETATM    2  C9  UNL     1      66.036  39.578  26.111  1.00  0.00     0.059 C 
HETATM    3  N2  UNL     1      66.620  40.565  25.961  1.00  0.00    -0.197 NA
ENDROOT
BRANCH   1   4
HETATM    4  C7  UNL     1      65.725  37.261  25.301  1.00  0.00     0.002 C 
HETATM    5  C6  UNL     1      64.872  36.044  25.562  1.00  0.00     0.014 C 
HETATM    6  C5  UNL     1      65.594  34.767  25.351  1.00  0.00     0.026 C 
HETATM    7  C4  UNL     1      66.915  34.617  26.072  1.00  0.00     0.082 C 
HETATM    8  C13 UNL     1      67.489  35.925  26.515  1.00  0.00     0.058 C 
HETATM    9  C12 UNL     1      67.185  36.991  25.480  1.00  0.00     0.197 C 
HETATM   10  N3  UNL     1      67.737  36.709  24.183  1.00  0.00    -0.070 N 
HETATM   11  C11 UNL     1      66.821  37.168  23.183  1.00  0.00     0.233 C 
ATOM     12  H32 UNL     1      67.979  35.724  24.068  1.00  0.00     0.277 HD
ATOM     13  H31 UNL     1      68.673  37.099  24.064  1.00  0.00     0.277 HD
HETATM   14  C10 UNL     1      65.616  37.716  23.863  1.00  0.00     0.040 C 
BRANCH   7  15
HETATM   15  N1  UNL     1      66.842  33.672  27.145  1.00  0.00    -0.398 N 
ATOM     16  H1  UNL     1      67.388  33.801  27.996  1.00  0.00     0.159 HD
BRANCH  15  17
HETATM   17  C3  UNL     1      65.994  32.557  26.989  1.00  0.00     0.055 C 
BRANCH  17  18
HETATM   18  C2  UNL     1      65.154  32.364  28.239  1.00  0.00     0.039 C 
HETATM   19  C1  UNL     1      63.729  32.755  27.999  1.00  0.00     0.010 C 
ENDBRANCH  17  18
ENDBRANCH  15  17
ENDBRANCH   7  15
ENDBRANCH   1   4
TORSDOF 4
ENDMDL
MODEL 4
REMARK VINA RESULT: -6.106568488      1.653      2.086
REMARK  4 active torsions:
REMARK  status: ('A' for Active; 'I' for Inactive)
REMARK    1  A    between atoms: C2_2  and  C3_3 
REMARK    2  A    between atoms: C3_3  and  N1_4 
REMARK    3  A    between atoms: N1_4  and  C4_6 
REMARK    4  A    between atoms: C7_9  and  C8_10 
ROOT
HETATM    1  C8  UNL     1      64.937  39.081  24.660  1.00  0.00     0.135 C 
HETATM    2  C9  UNL     1      65.895  39.793  25.474  1.00  0.00     0.059 C 
HETATM    3  N2  UNL     1      66.670  40.373  26.107  1.00  0.00    -0.197 NA
ENDROOT
BRANCH   1   4
HETATM    4  C7  UNL     1      65.547  37.869  23.956  1.00  0.00     0.002 C 
HETATM    5  C6  UNL     1      64.417  37.080  23.342  1.00  0.00     0.014 C 
HETATM    6  C5  UNL     1      64.656  35.617  23.348  1.00  0.00     0.026 C 
HETATM    7  C4  UNL     1      65.029  35.005  24.679  1.00  0.00     0.082 C 
HETATM    8  C13 UNL     1      65.528  36.012  25.666  1.00  0.00     0.058 C 
HETATM    9  C12 UNL     1      66.337  37.073  24.944  1.00  0.00     0.197 C 
HETATM   10  N3  UNL     1      67.489  36.551  24.259  1.00  0.00    -0.070 N 
HETATM   11  C11 UNL     1      67.672  37.284  23.043  1.00  0.00     0.233 C 
ATOM     12  H32 UNL     1      67.426  35.545  24.102  1.00  0.00     0.277 HD
ATOM     13  H31 UNL     1      68.324  36.551  24.845  1.00  0.00     0.277 HD
HETATM   14  C10 UNL     1      66.569  38.275  22.919  1.00  0.00     0.040 C 
BRANCH   7  15
HETATM   15  N1  UNL     1      63.975  34.201  25.220  1.00  0.00    -0.398 N 
ATOM     16  H1  UNL     1      63.507  33.496  24.652  1.00  0.00     0.159 HD
BRANCH  15  17
HETATM   17  C3  UNL     1      63.601  34.415  26.563  1.00  0.00     0.055 C 
BRANCH  17  18
HETATM   18  C2  UNL     1      63.676  33.111  27.338  1.00  0.00     0.039 C 
HETATM   19  C1  UNL     1      65.096  32.731  27.620  1.00  0.00     0.010 C 
ENDBRANCH  17  18
ENDBRANCH  15  17
ENDBRANCH   7  15
ENDBRANCH   1   4
TORSDOF 4
ENDMDL
MODEL 5
REMARK VINA RESULT: -6.105361497      1.655      2.822
REMARK  4 active torsions:
REMARK  status: ('A' for Active; 'I' for Inactive)
REMARK    1  A    between atoms: C2_2  and  C3_3 
REMARK    2  A    between atoms: C3_3  and  N1_4 
REMARK    3  A    between atoms: N1_4  and  C4_6 
REMARK    4  A    between atoms: C7_9  and  C8_10 
ROOT
HETATM    1  C8  UNL     1      65.357  36.987  22.872  1.00  0.00     0.135 C 
HETATM    2  C9  UNL     1      65.818  37.762  21.744  1.00  0.00     0.059 C 
HETATM    3  N2  UNL     1      66.207  38.372  20.842  1.00  0.00    -0.197 NA
ENDROOT
BRANCH   1   4
HETATM    4  C7  UNL     1      65.862  37.532  24.208  1.00  0.00     0.002 C 
HETATM    5  C6  UNL     1      67.342  37.251  24.288  1.00  0.00     0.014 C 
HETATM    6  C5  UNL     1      67.808  36.957  25.664  1.00  0.00     0.026 C 
HETATM    7  C4  UNL     1      67.053  35.882  26.412  1.00  0.00     0.082 C 
HETATM    8  C13 UNL     1      65.703  35.604  25.829  1.00  0.00     0.058 C 
HETATM    9  C12 UNL     1      65.093  36.897  25.321  1.00  0.00     0.197 C 
HETATM   10  N3  UNL     1      64.910  37.889  26.345  1.00  0.00    -0.070 N 
HETATM   11  C11 UNL     1      65.161  39.182  25.783  1.00  0.00     0.233 C 
ATOM     12  H32 UNL     1      65.481  37.706  27.171  1.00  0.00     0.277 HD
ATOM     13  H31 UNL     1      63.994  37.827  26.789  1.00  0.00     0.277 HD
HETATM   14  C10 UNL     1      65.568  39.008  24.362  1.00  0.00     0.040 C 
BRANCH   7  15
HETATM   15  N1  UNL     1      67.825  34.687  26.570  1.00  0.00    -0.398 N 
ATOM     16  H1  UNL     1      68.823  34.676  26.362  1.00  0.00     0.159 HD
BRANCH  15  17
HETATM   17  C3  UNL     1      67.165  33.527  27.022  1.00  0.00     0.055 C 
BRANCH  17  18
HETATM   18  C2  UNL     1      67.703  32.306  26.298  1.00  0.00     0.039 C 
HETATM   19  C1  UNL     1      66.737  31.164  26.370  1.00  0.00     0.010 C 
ENDBRANCH  17  18
ENDBRANCH  15  17
ENDBRANCH   7  15
ENDBRANCH   1   4
TORSDOF 4
ENDMDL
