MODEL 1
REMARK VINA RESULT: -6.567915293      0.000      0.000
REMARK  4 active torsions:
REMARK  status: ('A' for Active; 'I' for Inactive)
REMARK    1  A    between atoms: C1_4  and  C2_5 
REMARK    2  A    between atoms: C2_5  and  C3_6 
REMARK    3  A    between atoms: C3_6  and  N2_7 
REMARK    4  A    between atoms: C6_10  and  N3_11 
ROOT
HETATM    1  N2  UNL     1      65.330  37.763  23.808  1.00  0.00    -0.412 N 
HETATM    2  C4  UNL     1      64.855  36.611  23.126  1.00  0.00     0.119 C 
HETATM    3  C5  UNL     1      64.644  35.412  24.031  1.00  0.00     0.044 C 
HETATM    4  C6  UNL     1      65.806  35.361  24.986  1.00  0.00     0.082 C 
HETATM    5  C12 UNL     1      65.736  36.537  25.900  1.00  0.00     0.044 C 
HETATM    6  C13 UNL     1      65.169  37.771  25.225  1.00  0.00     0.119 C 
ENDROOT
BRANCH   1   7
HETATM    7  C3  UNL     1      66.594  38.269  23.412  1.00  0.00     0.122 C 
BRANCH   7   8
HETATM    8  C2  UNL     1      67.174  37.548  22.209  1.00  0.00     0.063 C 
BRANCH   8   9
HETATM    9  C1  UNL     1      67.007  38.333  20.966  1.00  0.00     0.054 C 
HETATM   10  N1  UNL     1      66.292  37.891  20.014  1.00  0.00    -0.411 N 
ATOM     11  H12 UNL     1      65.835  36.986  20.123  1.00  0.00     0.155 HD
ATOM     12  H11 UNL     1      66.177  38.433  19.157  1.00  0.00     0.155 HD
ENDBRANCH   8   9
ENDBRANCH   7   8
ENDBRANCH   1   7
BRANCH   4  13
HETATM   13  N3  UNL     1      66.035  34.108  25.620  1.00  0.00    -0.408 N 
HETATM   14  C7  UNL     1      65.010  33.702  26.501  1.00  0.00     0.117 C 
HETATM   15  C8  UNL     1      65.255  32.556  27.393  1.00  0.00     0.019 C 
HETATM   16  C9  UNL     1      66.402  31.735  26.850  1.00  0.00     0.003 C 
HETATM   17  C10 UNL     1      67.601  32.666  26.848  1.00  0.00     0.019 C 
HETATM   18  C11 UNL     1      67.380  33.876  26.006  1.00  0.00     0.117 C 
ENDBRANCH   4  13
TORSDOF 4
ENDMDL
MODEL 2
REMARK VINA RESULT: -6.523162521      0.922      1.616
REMARK  4 active torsions:
REMARK  status: ('A' for Active; 'I' for Inactive)
REMARK    1  A    between atoms: C1_4  and  C2_5 
REMARK    2  A    between atoms: C2_5  and  C3_6 
REMARK    3  A    between atoms: C3_6  and  N2_7 
REMARK    4  A    between atoms: C6_10  and  N3_11 
ROOT
HETATM    1  N2  UNL     1      65.487  37.082  23.685  1.00  0.00    -0.412 N 
HETATM    2  C4  UNL     1      64.826  35.871  23.343  1.00  0.00     0.119 C 
HETATM    3  C5  UNL     1      64.302  35.104  24.541  1.00  0.00     0.044 C 
HETATM    4  C6  UNL     1      65.357  35.171  25.613  1.00  0.00     0.082 C 
HETATM    5  C12 UNL     1      65.474  36.578  26.092  1.00  0.00     0.044 C 
HETATM    6  C13 UNL     1      65.232  37.594  24.992  1.00  0.00     0.119 C 
ENDROOT
BRANCH   1   7
HETATM    7  C3  UNL     1      66.854  37.192  23.326  1.00  0.00     0.122 C 
BRANCH   7   8
HETATM    8  C2  UNL     1      67.136  38.363  22.405  1.00  0.00     0.063 C 
BRANCH   8   9
HETATM    9  C1  UNL     1      67.314  37.926  21.002  1.00  0.00     0.054 C 
HETATM   10  N1  UNL     1      66.306  37.740  20.251  1.00  0.00    -0.411 N 
ATOM     11  H12 UNL     1      65.374  37.897  20.634  1.00  0.00     0.155 HD
ATOM     12  H11 UNL     1      66.428  37.438  19.284  1.00  0.00     0.155 HD
ENDBRANCH   8   9
ENDBRANCH   7   8
ENDBRANCH   1   7
BRANCH   4  13
HETATM   13  N3  UNL     1      65.268  34.185  26.634  1.00  0.00    -0.408 N 
HETATM   14  C7  UNL     1      66.284  33.206  26.593  1.00  0.00     0.117 C 
HETATM   15  C8  UNL     1      66.148  32.008  27.438  1.00  0.00     0.019 C 
HETATM   16  C9  UNL     1      65.163  32.288  28.551  1.00  0.00     0.003 C 
HETATM   17  C10 UNL     1      63.848  32.596  27.859  1.00  0.00     0.019 C 
HETATM   18  C11 UNL     1      63.948  33.767  26.941  1.00  0.00     0.117 C 
ENDBRANCH   4  13
TORSDOF 4
ENDMDL
MODEL 3
REMARK VINA RESULT: -6.418896846      2.002      3.297
REMARK  4 active torsions:
REMARK  status: ('A' for Active; 'I' for Inactive)
REMARK    1  A    between atoms: C1_4  and  C2_5 
REMARK    2  A    between atoms: C2_5  and  C3_6 
REMARK    3  A    between atoms: C3_6  and  N2_7 
REMARK    4  A    between atoms: C6_10  and  N3_11 
ROOT
HETATM    1  N2  UNL     1      65.587  36.397  23.815  1.00  0.00    -0.412 N 
HETATM    2  C4  UNL     1      66.736  36.014  24.559  1.00  0.00     0.119 C 
HETATM    3  C5  UNL     1      66.542  34.748  25.370  1.00  0.00     0.044 C 
HETATM    4  C6  UNL     1      65.170  34.816  25.986  1.00  0.00     0.082 C 
HETATM    5  C12 UNL     1      64.148  34.727  24.905  1.00  0.00     0.044 C 
HETATM    6  C13 UNL     1      64.598  35.388  23.616  1.00  0.00     0.119 C 
ENDROOT
BRANCH   1   7
HETATM    7  C3  UNL     1      65.012  37.655  24.125  1.00  0.00     0.122 C 
BRANCH   7   8
HETATM    8  C2  UNL     1      66.000  38.628  24.740  1.00  0.00     0.063 C 
BRANCH   8   9
HETATM    9  C1  UNL     1      65.553  39.095  26.071  1.00  0.00     0.054 C 
HETATM   10  N1  UNL     1      65.508  38.293  27.056  1.00  0.00    -0.411 N 
ATOM     11  H12 UNL     1      65.786  37.322  26.910  1.00  0.00     0.155 HD
ATOM     12  H11 UNL     1      65.199  38.614  27.973  1.00  0.00     0.155 HD
ENDBRANCH   8   9
ENDBRANCH   7   8
ENDBRANCH   1   7
BRANCH   4  13
HETATM   13  N3  UNL     1      64.949  33.966  27.106  1.00  0.00    -0.408 N 
HETATM   14  C7  UNL     1      66.011  33.080  27.388  1.00  0.00     0.117 C 
HETATM   15  C8  UNL     1      65.789  31.995  28.358  1.00  0.00     0.019 C 
HETATM   16  C9  UNL     1      64.597  32.332  29.224  1.00  0.00     0.003 C 
HETATM   17  C10 UNL     1      63.420  32.435  28.271  1.00  0.00     0.019 C 
HETATM   18  C11 UNL     1      63.621  33.481  27.228  1.00  0.00     0.117 C 
ENDBRANCH   4  13
TORSDOF 4
ENDMDL
MODEL 4
REMARK VINA RESULT: -6.364524087      1.413      2.480
REMARK  4 active torsions:
REMARK  status: ('A' for Active; 'I' for Inactive)
REMARK    1  A    between atoms: C1_4  and  C2_5 
REMARK    2  A    between atoms: C2_5  and  C3_6 
REMARK    3  A    between atoms: C3_6  and  N2_7 
REMARK    4  A    between atoms: C6_10  and  N3_11 
ROOT
HETATM    1  N2  UNL     1      65.726  36.387  23.963  1.00  0.00    -0.412 N 
HETATM    2  C4  UNL     1      66.846  35.966  24.729  1.00  0.00     0.119 C 
HETATM    3  C5  UNL     1      66.600  34.693  25.516  1.00  0.00     0.044 C 
HETATM    4  C6  UNL     1      65.215  34.786  26.098  1.00  0.00     0.082 C 
HETATM    5  C12 UNL     1      64.219  34.739  24.990  1.00  0.00     0.044 C 
HETATM    6  C13 UNL     1      64.718  35.407  23.723  1.00  0.00     0.119 C 
ENDROOT
BRANCH   1   7
HETATM    7  C3  UNL     1      65.174  37.655  24.276  1.00  0.00     0.122 C 
BRANCH   7   8
HETATM    8  C2  UNL     1      65.002  38.547  23.060  1.00  0.00     0.063 C 
BRANCH   8   9
HETATM    9  C1  UNL     1      66.106  38.370  22.091  1.00  0.00     0.054 C 
HETATM   10  N1  UNL     1      65.872  37.939  20.918  1.00  0.00    -0.411 N 
ATOM     11  H12 UNL     1      64.911  37.718  20.659  1.00  0.00     0.155 HD
ATOM     12  H11 UNL     1      66.633  37.816  20.249  1.00  0.00     0.155 HD
ENDBRANCH   8   9
ENDBRANCH   7   8
ENDBRANCH   1   7
BRANCH   4  13
HETATM   13  N3  UNL     1      64.944  33.927  27.199  1.00  0.00    -0.408 N 
HETATM   14  C7  UNL     1      65.985  33.024  27.507  1.00  0.00     0.117 C 
HETATM   15  C8  UNL     1      65.716  31.930  28.455  1.00  0.00     0.019 C 
HETATM   16  C9  UNL     1      64.499  32.273  29.284  1.00  0.00     0.003 C 
HETATM   17  C10 UNL     1      63.357  32.401  28.292  1.00  0.00     0.019 C 
HETATM   18  C11 UNL     1      63.607  33.458  27.269  1.00  0.00     0.117 C 
ENDBRANCH   4  13
TORSDOF 4
ENDMDL
MODEL 5
REMARK VINA RESULT: -6.256621776      1.520      2.288
REMARK  4 active torsions:
REMARK  status: ('A' for Active; 'I' for Inactive)
REMARK    1  A    between atoms: C1_4  and  C2_5 
REMARK    2  A    between atoms: C2_5  and  C3_6 
REMARK    3  A    between atoms: C3_6  and  N2_7 
REMARK    4  A    between atoms: C6_10  and  N3_11 
ROOT
HETATM    1  N2  UNL     1      65.507  37.847  24.306  1.00  0.00    -0.412 N 
HETATM    2  C4  UNL     1      65.237  36.784  23.402  1.00  0.00     0.119 C 
HETATM    3  C5  UNL     1      64.950  35.462  24.086  1.00  0.00     0.044 C 
HETATM    4  C6  UNL     1      65.925  35.323  25.224  1.00  0.00     0.082 C 
HETATM    5  C12 UNL     1      65.616  36.353  26.257  1.00  0.00     0.044 C 
HETATM    6  C13 UNL     1      65.097  37.646  25.658  1.00  0.00     0.119 C 
ENDROOT
BRANCH   1   7
HETATM    7  C3  UNL     1      66.785  38.455  24.221  1.00  0.00     0.122 C 
BRANCH   7   8
HETATM    8  C2  UNL     1      67.132  39.287  25.442  1.00  0.00     0.063 C 
BRANCH   8   9
HETATM    9  C1  UNL     1      68.421  38.873  26.038  1.00  0.00     0.054 C 
HETATM   10  N1  UNL     1      68.926  37.740  25.764  1.00  0.00    -0.411 N 
ATOM     11  H12 UNL     1      68.425  37.122  25.125  1.00  0.00     0.155 HD
ATOM     12  H11 UNL     1      69.815  37.454  26.175  1.00  0.00     0.155 HD
ENDBRANCH   8   9
ENDBRANCH   7   8
ENDBRANCH   1   7
BRANCH   4  13
HETATM   13  N3  UNL     1      66.120  34.003  25.718  1.00  0.00    -0.408 N 
HETATM   14  C7  UNL     1      65.138  33.569  26.634  1.00  0.00     0.117 C 
HETATM   15  C8  UNL     1      65.375  32.330  27.392  1.00  0.00     0.019 C 
HETATM   16  C9  UNL     1      66.427  31.504  26.687  1.00  0.00     0.003 C 
HETATM   17  C10 UNL     1      67.678  32.363  26.679  1.00  0.00     0.019 C 
HETATM   18  C11 UNL     1      67.473  33.661  25.974  1.00  0.00     0.117 C 
ENDBRANCH   4  13
TORSDOF 4
ENDMDL
