MODEL 1
REMARK VINA RESULT: -6.532029643      0.000      0.000
REMARK  4 active torsions:
REMARK  status: ('A' for Active; 'I' for Inactive)
REMARK    1  A    between atoms: N1_7  and  C7_8 
REMARK    2  A    between atoms: C7_8  and  C8_9 
REMARK    3  A    between atoms: C8_9  and  N2_10 
REMARK    4  A    between atoms: N2_10  and  C9_13 
ROOT
HETATM    1  C8  UNL     1      65.924  36.437  26.248  1.00  0.00     0.277 C 
ENDROOT
BRANCH   1   2
HETATM    2  C7  UNL     1      65.965  35.234  25.353  1.00  0.00     0.090 C 
BRANCH   2   3
HETATM    3  N1  UNL     1      66.121  33.980  25.964  1.00  0.00    -0.368 N 
HETATM    4  C2  UNL     1      67.365  33.356  26.027  1.00  0.00     0.084 C 
HETATM    5  C1  UNL     1      68.285  33.839  27.123  1.00  0.00     0.033 C 
HETATM    6  C3  UNL     1      67.177  31.866  26.234  1.00  0.00     0.025 C 
HETATM    7  C4  UNL     1      66.413  31.572  27.474  1.00  0.00     0.007 C 
HETATM    8  C5  UNL     1      65.368  32.577  27.846  1.00  0.00     0.045 C 
HETATM    9  C6  UNL     1      65.056  33.563  26.769  1.00  0.00     0.063 C 
ENDBRANCH   2   3
ENDBRANCH   1   2
BRANCH   1  10
HETATM   10  N2  UNL     1      64.899  37.379  25.882  1.00  0.00    -0.065 N 
ATOM     11  H22 UNL     1      64.155  36.944  25.337  1.00  0.00     0.278 HD
ATOM     12  H21 UNL     1      64.340  37.670  26.685  1.00  0.00     0.278 HD
BRANCH  10  13
HETATM   13  C9  UNL     1      65.496  38.504  25.194  1.00  0.00     0.210 C 
HETATM   14  C10 UNL     1      65.110  38.534  23.729  1.00  0.00     0.037 C 
HETATM   15  C11 UNL     1      66.198  38.015  22.836  1.00  0.00     0.028 C 
HETATM   16  C12 UNL     1      67.567  38.475  23.208  1.00  0.00     0.167 C 
HETATM   17  O1  UNL     1      67.515  39.340  24.292  1.00  0.00    -0.389 OA
HETATM   18  C13 UNL     1      66.989  38.591  25.371  1.00  0.00     0.200 C 
ENDBRANCH  10  13
ENDBRANCH   1  10
TORSDOF 4
ENDMDL
MODEL 2
REMARK VINA RESULT: -6.217194658      1.521      2.592
REMARK  4 active torsions:
REMARK  status: ('A' for Active; 'I' for Inactive)
REMARK    1  A    between atoms: N1_7  and  C7_8 
REMARK    2  A    between atoms: C7_8  and  C8_9 
REMARK    3  A    between atoms: C8_9  and  N2_10 
REMARK    4  A    between atoms: N2_10  and  C9_13 
ROOT
HETATM    1  C8  UNL     1      64.440  35.432  25.427  1.00  0.00     0.277 C 
ENDROOT
BRANCH   1   2
HETATM    2  C7  UNL     1      63.612  34.492  26.252  1.00  0.00     0.090 C 
BRANCH   2   3
HETATM    3  N1  UNL     1      64.291  33.635  27.131  1.00  0.00    -0.368 N 
HETATM    4  C2  UNL     1      63.617  32.965  28.151  1.00  0.00     0.084 C 
HETATM    5  C1  UNL     1      62.877  31.715  27.737  1.00  0.00     0.033 C 
HETATM    6  C3  UNL     1      64.603  32.558  29.229  1.00  0.00     0.025 C 
HETATM    7  C4  UNL     1      65.680  31.686  28.692  1.00  0.00     0.007 C 
HETATM    8  C5  UNL     1      66.096  31.962  27.281  1.00  0.00     0.045 C 
HETATM    9  C6  UNL     1      65.572  33.247  26.729  1.00  0.00     0.063 C 
ENDBRANCH   2   3
ENDBRANCH   1   2
BRANCH   1  10
HETATM   10  N2  UNL     1      64.782  36.644  26.123  1.00  0.00    -0.065 N 
ATOM     11  H22 UNL     1      63.965  37.225  26.308  1.00  0.00     0.278 HD
ATOM     12  H21 UNL     1      65.058  36.469  27.090  1.00  0.00     0.278 HD
BRANCH  10  13
HETATM   13  C9  UNL     1      65.803  37.357  25.385  1.00  0.00     0.210 C 
HETATM   14  C10 UNL     1      65.273  38.651  24.800  1.00  0.00     0.037 C 
HETATM   15  C11 UNL     1      64.960  38.536  23.338  1.00  0.00     0.028 C 
HETATM   16  C12 UNL     1      65.976  37.779  22.551  1.00  0.00     0.167 C 
HETATM   17  O1  UNL     1      67.030  37.387  23.364  1.00  0.00    -0.389 OA
HETATM   18  C13 UNL     1      66.480  36.517  24.334  1.00  0.00     0.200 C 
ENDBRANCH  10  13
ENDBRANCH   1  10
TORSDOF 4
ENDMDL
MODEL 3
REMARK VINA RESULT: -6.177699829      1.200      2.032
REMARK  4 active torsions:
REMARK  status: ('A' for Active; 'I' for Inactive)
REMARK    1  A    between atoms: N1_7  and  C7_8 
REMARK    2  A    between atoms: C7_8  and  C8_9 
REMARK    3  A    between atoms: C8_9  and  N2_10 
REMARK    4  A    between atoms: N2_10  and  C9_13 
ROOT
HETATM    1  C8  UNL     1      64.732  35.845  25.366  1.00  0.00     0.277 C 
ENDROOT
BRANCH   1   2
HETATM    2  C7  UNL     1      65.990  35.063  25.134  1.00  0.00     0.090 C 
BRANCH   2   3
HETATM    3  N1  UNL     1      66.139  33.855  25.834  1.00  0.00    -0.368 N 
HETATM    4  C2  UNL     1      67.392  33.273  26.013  1.00  0.00     0.084 C 
HETATM    5  C1  UNL     1      68.230  33.852  27.128  1.00  0.00     0.033 C 
HETATM    6  C3  UNL     1      67.228  31.794  26.306  1.00  0.00     0.025 C 
HETATM    7  C4  UNL     1      66.397  31.560  27.515  1.00  0.00     0.007 C 
HETATM    8  C5  UNL     1      65.306  32.556  27.757  1.00  0.00     0.045 C 
HETATM    9  C6  UNL     1      65.038  33.461  26.601  1.00  0.00     0.063 C 
ENDBRANCH   2   3
ENDBRANCH   1   2
BRANCH   1  10
HETATM   10  N2  UNL     1      64.906  36.935  26.290  1.00  0.00    -0.065 N 
ATOM     11  H22 UNL     1      64.084  37.536  26.334  1.00  0.00     0.278 HD
ATOM     12  H21 UNL     1      64.908  36.620  27.261  1.00  0.00     0.278 HD
BRANCH  10  13
HETATM   13  C9  UNL     1      66.105  37.672  25.953  1.00  0.00     0.210 C 
HETATM   14  C10 UNL     1      66.991  37.887  27.164  1.00  0.00     0.037 C 
HETATM   15  C11 UNL     1      66.866  39.270  27.730  1.00  0.00     0.028 C 
HETATM   16  C12 UNL     1      66.813  40.350  26.702  1.00  0.00     0.167 C 
HETATM   17  O1  UNL     1      66.944  39.818  25.427  1.00  0.00    -0.389 OA
HETATM   18  C13 UNL     1      65.830  38.968  25.236  1.00  0.00     0.200 C 
ENDBRANCH  10  13
ENDBRANCH   1  10
TORSDOF 4
ENDMDL
MODEL 4
REMARK VINA RESULT: -6.166791640      0.955      1.358
REMARK  4 active torsions:
REMARK  status: ('A' for Active; 'I' for Inactive)
REMARK    1  A    between atoms: N1_7  and  C7_8 
REMARK    2  A    between atoms: C7_8  and  C8_9 
REMARK    3  A    between atoms: C8_9  and  N2_10 
REMARK    4  A    between atoms: N2_10  and  C9_13 
ROOT
HETATM    1  C8  UNL     1      64.985  35.794  24.841  1.00  0.00     0.277 C 
ENDROOT
BRANCH   1   2
HETATM    2  C7  UNL     1      66.313  35.171  25.155  1.00  0.00     0.090 C 
BRANCH   2   3
HETATM    3  N1  UNL     1      66.306  33.943  25.833  1.00  0.00    -0.368 N 
HETATM    4  C2  UNL     1      67.482  33.223  26.036  1.00  0.00     0.084 C 
HETATM    5  C1  UNL     1      68.343  33.686  27.186  1.00  0.00     0.033 C 
HETATM    6  C3  UNL     1      67.148  31.766  26.294  1.00  0.00     0.025 C 
HETATM    7  C4  UNL     1      66.259  31.604  27.473  1.00  0.00     0.007 C 
HETATM    8  C5  UNL     1      65.276  32.709  27.704  1.00  0.00     0.045 C 
HETATM    9  C6  UNL     1      65.145  33.659  26.559  1.00  0.00     0.063 C 
ENDBRANCH   2   3
ENDBRANCH   1   2
BRANCH   1  10
HETATM   10  N2  UNL     1      64.912  36.329  23.506  1.00  0.00    -0.065 N 
ATOM     11  H22 UNL     1      65.500  35.812  22.853  1.00  0.00     0.278 HD
ATOM     12  H21 UNL     1      64.009  36.146  23.067  1.00  0.00     0.278 HD
BRANCH  10  13
HETATM   13  C9  UNL     1      65.232  37.740  23.531  1.00  0.00     0.210 C 
HETATM   14  C10 UNL     1      66.533  38.033  22.812  1.00  0.00     0.037 C 
HETATM   15  C11 UNL     1      67.679  38.239  23.758  1.00  0.00     0.028 C 
HETATM   16  C12 UNL     1      67.344  39.058  24.959  1.00  0.00     0.167 C 
HETATM   17  O1  UNL     1      66.028  39.496  24.899  1.00  0.00    -0.389 OA
HETATM   18  C13 UNL     1      65.223  38.333  24.916  1.00  0.00     0.200 C 
ENDBRANCH  10  13
ENDBRANCH   1  10
TORSDOF 4
ENDMDL
MODEL 5
REMARK VINA RESULT: -6.158963986      2.431      5.806
REMARK  4 active torsions:
REMARK  status: ('A' for Active; 'I' for Inactive)
REMARK    1  A    between atoms: N1_7  and  C7_8 
REMARK    2  A    between atoms: C7_8  and  C8_9 
REMARK    3  A    between atoms: C8_9  and  N2_10 
REMARK    4  A    between atoms: N2_10  and  C9_13 
ROOT
HETATM    1  C8  UNL     1      66.880  35.777  26.653  1.00  0.00     0.277 C 
ENDROOT
BRANCH   1   2
HETATM    2  C7  UNL     1      67.240  37.096  26.038  1.00  0.00     0.090 C 
BRANCH   2   3
HETATM    3  N1  UNL     1      66.716  37.381  24.767  1.00  0.00    -0.368 N 
HETATM    4  C2  UNL     1      65.381  37.744  24.602  1.00  0.00     0.084 C 
HETATM    5  C1  UNL     1      65.053  39.189  24.898  1.00  0.00     0.033 C 
HETATM    6  C3  UNL     1      64.957  37.481  23.169  1.00  0.00     0.025 C 
HETATM    7  C4  UNL     1      65.797  38.228  22.198  1.00  0.00     0.007 C 
HETATM    8  C5  UNL     1      67.228  38.424  22.592  1.00  0.00     0.045 C 
HETATM    9  C6  UNL     1      67.660  37.597  23.758  1.00  0.00     0.063 C 
ENDBRANCH   2   3
ENDBRANCH   1   2
BRANCH   1  10
HETATM   10  N2  UNL     1      67.254  34.652  25.837  1.00  0.00    -0.065 N 
ATOM     11  H22 UNL     1      67.495  34.929  24.886  1.00  0.00     0.278 HD
ATOM     12  H21 UNL     1      68.158  34.263  26.109  1.00  0.00     0.278 HD
BRANCH  10  13
HETATM   13  C9  UNL     1      66.201  33.659  25.867  1.00  0.00     0.210 C 
HETATM   14  C10 UNL     1      64.983  34.110  25.088  1.00  0.00     0.037 C 
HETATM   15  C11 UNL     1      63.886  34.616  25.976  1.00  0.00     0.028 C 
HETATM   16  C12 UNL     1      63.666  33.799  27.205  1.00  0.00     0.167 C 
HETATM   17  O1  UNL     1      64.515  32.702  27.220  1.00  0.00    -0.389 OA
HETATM   18  C13 UNL     1      65.831  33.219  27.259  1.00  0.00     0.200 C 
ENDBRANCH  10  13
ENDBRANCH   1  10
TORSDOF 4
ENDMDL
