MODEL 1
REMARK VINA RESULT: -5.798462107      0.000      0.000
REMARK  5 active torsions:
REMARK  status: ('A' for Active; 'I' for Inactive)
REMARK    1  A    between atoms: N1_1  and  S1_4 
REMARK    2  A    between atoms: S1_4  and  O2_7 
REMARK    3  A    between atoms: O2_7  and  C1_8 
REMARK    4  A    between atoms: C1_8  and  C2_9 
REMARK    5  A    between atoms: C2_9  and  C3_10 
ROOT
HETATM    1  C1  UNL     1      65.657  35.609  24.656  1.00  0.00     0.190 C 
ENDROOT
BRANCH   1   2
HETATM    2  O2  UNL     1      64.860  36.454  23.874  1.00  0.00    -0.283 OA
BRANCH   2   3
HETATM    3  S1  UNL     1      65.792  37.676  23.189  1.00  0.00     0.208 S 
HETATM    4  O1  UNL     1      65.223  38.983  23.641  1.00  0.00    -0.209 OA
HETATM    5  S2  UNL     1      67.429  37.536  23.684  1.00  0.00     0.059 SA
BRANCH   3   6
HETATM    6  N1  UNL     1      65.657  37.628  21.463  1.00  0.00    -0.330 N 
ATOM      7  H12 UNL     1      64.828  37.878  20.924  1.00  0.00     0.168 HD
ATOM      8  H11 UNL     1      66.554  37.306  21.099  1.00  0.00     0.168 HD
ENDBRANCH   3   6
ENDBRANCH   2   3
ENDBRANCH   1   2
BRANCH   1   9
HETATM    9  C2  UNL     1      64.931  35.378  25.957  1.00  0.00     0.032 C 
BRANCH   9  10
HETATM   10  C3  UNL     1      64.886  33.886  26.277  1.00  0.00    -0.013 C 
HETATM   11  C4  UNL     1      66.201  33.536  26.892  1.00  0.00     0.005 C 
HETATM   12  C5  UNL     1      66.066  32.126  27.457  1.00  0.00     0.000 C 
HETATM   13  C6  UNL     1      65.178  32.301  28.669  1.00  0.00     0.000 C 
HETATM   14  C7  UNL     1      63.801  32.632  28.202  1.00  0.00     0.000 C 
HETATM   15  C8  UNL     1      63.681  33.584  27.083  1.00  0.00     0.005 C 
ENDBRANCH   9  10
ENDBRANCH   1   9
TORSDOF 5
ENDMDL
MODEL 2
REMARK VINA RESULT: -5.790559940      1.341      1.500
REMARK  5 active torsions:
REMARK  status: ('A' for Active; 'I' for Inactive)
REMARK    1  A    between atoms: N1_1  and  S1_4 
REMARK    2  A    between atoms: S1_4  and  O2_7 
REMARK    3  A    between atoms: O2_7  and  C1_8 
REMARK    4  A    between atoms: C1_8  and  C2_9 
REMARK    5  A    between atoms: C2_9  and  C3_10 
ROOT
HETATM    1  C1  UNL     1      65.051  35.564  25.777  1.00  0.00     0.190 C 
ENDROOT
BRANCH   1   2
HETATM    2  O2  UNL     1      64.895  35.716  24.393  1.00  0.00    -0.283 OA
BRANCH   2   3
HETATM    3  S1  UNL     1      65.759  37.052  23.844  1.00  0.00     0.208 S 
HETATM    4  O1  UNL     1      65.414  37.250  22.403  1.00  0.00    -0.209 OA
HETATM    5  S2  UNL     1      65.349  38.449  24.752  1.00  0.00     0.059 SA
BRANCH   3   6
HETATM    6  N1  UNL     1      67.459  36.733  23.926  1.00  0.00    -0.330 N 
ATOM      7  H12 UNL     1      68.199  37.427  23.820  1.00  0.00     0.168 HD
ATOM      8  H11 UNL     1      67.571  35.734  24.098  1.00  0.00     0.168 HD
ENDBRANCH   3   6
ENDBRANCH   2   3
ENDBRANCH   1   2
BRANCH   1   9
HETATM    9  C2  UNL     1      63.835  34.837  26.292  1.00  0.00     0.032 C 
BRANCH   9  10
HETATM   10  C3  UNL     1      64.202  33.408  26.682  1.00  0.00    -0.013 C 
HETATM   11  C4  UNL     1      65.694  33.344  26.735  1.00  0.00     0.005 C 
HETATM   12  C5  UNL     1      66.059  32.012  27.380  1.00  0.00     0.000 C 
HETATM   13  C6  UNL     1      65.691  32.198  28.835  1.00  0.00     0.000 C 
HETATM   14  C7  UNL     1      64.205  32.252  28.945  1.00  0.00     0.000 C 
HETATM   15  C8  UNL     1      63.484  33.027  27.919  1.00  0.00     0.005 C 
ENDBRANCH   9  10
ENDBRANCH   1   9
TORSDOF 5
ENDMDL
MODEL 3
REMARK VINA RESULT: -5.730462031      2.998      3.122
REMARK  5 active torsions:
REMARK  status: ('A' for Active; 'I' for Inactive)
REMARK    1  A    between atoms: N1_1  and  S1_4 
REMARK    2  A    between atoms: S1_4  and  O2_7 
REMARK    3  A    between atoms: O2_7  and  C1_8 
REMARK    4  A    between atoms: C1_8  and  C2_9 
REMARK    5  A    between atoms: C2_9  and  C3_10 
ROOT
HETATM    1  C1  UNL     1      66.088  36.026  26.370  1.00  0.00     0.190 C 
ENDROOT
BRANCH   1   2
HETATM    2  O2  UNL     1      65.790  37.334  26.772  1.00  0.00    -0.283 OA
BRANCH   2   3
HETATM    3  S1  UNL     1      67.175  38.109  27.332  1.00  0.00     0.208 S 
HETATM    4  O1  UNL     1      68.154  37.050  27.728  1.00  0.00    -0.209 OA
HETATM    5  S2  UNL     1      67.843  39.110  26.109  1.00  0.00     0.059 SA
BRANCH   3   6
HETATM    6  N1  UNL     1      66.807  39.026  28.755  1.00  0.00    -0.330 N 
ATOM      7  H12 UNL     1      67.399  39.101  29.582  1.00  0.00     0.168 HD
ATOM      8  H11 UNL     1      65.900  39.466  28.604  1.00  0.00     0.168 HD
ENDBRANCH   3   6
ENDBRANCH   2   3
ENDBRANCH   1   2
BRANCH   1   9
HETATM    9  C2  UNL     1      64.796  35.380  25.935  1.00  0.00     0.032 C 
BRANCH   9  10
HETATM   10  C3  UNL     1      64.824  33.886  26.247  1.00  0.00    -0.013 C 
HETATM   11  C4  UNL     1      66.187  33.580  26.776  1.00  0.00     0.005 C 
HETATM   12  C5  UNL     1      66.138  32.164  27.339  1.00  0.00     0.000 C 
HETATM   13  C6  UNL     1      65.322  32.302  28.605  1.00  0.00     0.000 C 
HETATM   14  C7  UNL     1      63.908  32.587  28.228  1.00  0.00     0.000 C 
HETATM   15  C8  UNL     1      63.684  33.538  27.125  1.00  0.00     0.005 C 
ENDBRANCH   9  10
ENDBRANCH   1   9
TORSDOF 5
ENDMDL
MODEL 4
REMARK VINA RESULT: -5.711947474      1.181      1.996
REMARK  5 active torsions:
REMARK  status: ('A' for Active; 'I' for Inactive)
REMARK    1  A    between atoms: N1_1  and  S1_4 
REMARK    2  A    between atoms: S1_4  and  O2_7 
REMARK    3  A    between atoms: O2_7  and  C1_8 
REMARK    4  A    between atoms: C1_8  and  C2_9 
REMARK    5  A    between atoms: C2_9  and  C3_10 
ROOT
HETATM    1  C1  UNL     1      65.941  36.465  25.777  1.00  0.00     0.190 C 
ENDROOT
BRANCH   1   2
HETATM    2  O2  UNL     1      65.076  37.363  25.138  1.00  0.00    -0.283 OA
BRANCH   2   3
HETATM    3  S1  UNL     1      65.533  37.584  23.534  1.00  0.00     0.208 S 
HETATM    4  O1  UNL     1      65.246  39.006  23.175  1.00  0.00    -0.209 OA
HETATM    5  S2  UNL     1      67.203  37.244  23.330  1.00  0.00     0.059 SA
BRANCH   3   6
HETATM    6  N1  UNL     1      64.565  36.589  22.499  1.00  0.00    -0.330 N 
ATOM      7  H12 UNL     1      63.557  36.454  22.577  1.00  0.00     0.168 HD
ATOM      8  H11 UNL     1      65.190  36.171  21.810  1.00  0.00     0.168 HD
ENDBRANCH   3   6
ENDBRANCH   2   3
ENDBRANCH   1   2
BRANCH   1   9
HETATM    9  C2  UNL     1      65.248  35.128  25.828  1.00  0.00     0.032 C 
BRANCH   9  10
HETATM   10  C3  UNL     1      66.007  34.177  26.751  1.00  0.00    -0.013 C 
HETATM   11  C4  UNL     1      65.052  33.096  27.138  1.00  0.00     0.005 C 
HETATM   12  C5  UNL     1      65.868  32.009  27.830  1.00  0.00     0.000 C 
HETATM   13  C6  UNL     1      66.648  31.366  26.705  1.00  0.00     0.000 C 
HETATM   14  C7  UNL     1      67.675  32.334  26.226  1.00  0.00     0.000 C 
HETATM   15  C8  UNL     1      67.262  33.743  26.097  1.00  0.00     0.005 C 
ENDBRANCH   9  10
ENDBRANCH   1   9
TORSDOF 5
ENDMDL
MODEL 5
REMARK VINA RESULT: -5.693033095      1.773      2.351
REMARK  5 active torsions:
REMARK  status: ('A' for Active; 'I' for Inactive)
REMARK    1  A    between atoms: N1_1  and  S1_4 
REMARK    2  A    between atoms: S1_4  and  O2_7 
REMARK    3  A    between atoms: O2_7  and  C1_8 
REMARK    4  A    between atoms: C1_8  and  C2_9 
REMARK    5  A    between atoms: C2_9  and  C3_10 
ROOT
HETATM    1  C1  UNL     1      65.431  35.614  24.453  1.00  0.00     0.190 C 
ENDROOT
BRANCH   1   2
HETATM    2  O2  UNL     1      65.085  36.966  24.567  1.00  0.00    -0.283 OA
BRANCH   2   3
HETATM    3  S1  UNL     1      66.386  37.862  25.147  1.00  0.00     0.208 S 
HETATM    4  O1  UNL     1      66.296  39.227  24.547  1.00  0.00    -0.209 OA
HETATM    5  S2  UNL     1      66.335  37.959  26.860  1.00  0.00     0.059 SA
BRANCH   3   6
HETATM    6  N1  UNL     1      67.875  37.162  24.609  1.00  0.00    -0.330 N 
ATOM      7  H12 UNL     1      68.338  37.358  23.721  1.00  0.00     0.168 HD
ATOM      8  H11 UNL     1      68.193  36.526  25.340  1.00  0.00     0.168 HD
ENDBRANCH   3   6
ENDBRANCH   2   3
ENDBRANCH   1   2
BRANCH   1   9
HETATM    9  C2  UNL     1      64.607  34.848  25.456  1.00  0.00     0.032 C 
BRANCH   9  10
HETATM   10  C3  UNL     1      65.514  34.221  26.513  1.00  0.00    -0.013 C 
HETATM   11  C4  UNL     1      64.762  33.072  27.100  1.00  0.00     0.005 C 
HETATM   12  C5  UNL     1      65.751  32.284  27.953  1.00  0.00     0.000 C 
HETATM   13  C6  UNL     1      66.645  31.603  26.940  1.00  0.00     0.000 C 
HETATM   14  C7  UNL     1      67.489  32.640  26.280  1.00  0.00     0.000 C 
HETATM   15  C8  UNL     1      66.833  33.909  25.918  1.00  0.00     0.005 C 
ENDBRANCH   9  10
ENDBRANCH   1   9
TORSDOF 5
ENDMDL
