MODEL 1
REMARK VINA RESULT: -5.105370869      0.000      0.000
REMARK  3 active torsions:
REMARK  status: ('A' for Active; 'I' for Inactive)
REMARK    1  A    between atoms: C2_2  and  N1_3 
REMARK    2  A    between atoms: N1_3  and  C3_4 
REMARK    3  A    between atoms: N1_3  and  C4_6 
ROOT
HETATM    1  C4  UNL     1       6.921  -2.169  10.519  1.00  0.00     0.146 C 
HETATM    2  N2  UNL     1       6.419  -1.328   9.716  1.00  0.00    -0.369 N 
ATOM      3  H2  UNL     1       5.888  -0.598  10.192  1.00  0.00     0.161 HD
HETATM    4  C5  UNL     1       6.425  -1.169   8.298  1.00  0.00     0.141 C 
HETATM    5  C6  UNL     1       6.038  -2.390   7.526  1.00  0.00     0.141 C 
HETATM    6  N3  UNL     1       7.207  -3.220   7.310  1.00  0.00    -0.374 N 
ATOM      7  H3  UNL     1       7.495  -3.375   6.344  1.00  0.00     0.161 HD
HETATM    8  C7  UNL     1       7.984  -3.837   8.324  1.00  0.00     0.142 C 
HETATM    9  S1  UNL     1       9.094  -4.916   7.850  1.00  0.00    -0.052 SA
HETATM   10  S2  UNL     1       7.894  -3.577  10.086  1.00  0.00    -0.025 SA
ENDROOT
BRANCH   1  11
HETATM   11  N1  UNL     1       6.667  -1.955  11.883  1.00  0.00    -0.349 N 
BRANCH  11  12
HETATM   12  C2  UNL     1       6.749  -3.081  12.826  1.00  0.00     0.121 C 
HETATM   13  C1  UNL     1       5.488  -3.065  13.648  1.00  0.00     0.026 C 
ENDBRANCH  11  12
BRANCH  11  14
HETATM   14  C3  UNL     1       6.323  -0.628  12.342  1.00  0.00     0.240 C 
HETATM   15 CL1  UNL     1       7.868   0.242  12.612  1.00  0.00    -0.109 Cl
ENDBRANCH  11  14
ENDBRANCH   1  11
TORSDOF 3
ENDMDL
MODEL 2
REMARK VINA RESULT: -5.051852458      1.263      1.906
REMARK  3 active torsions:
REMARK  status: ('A' for Active; 'I' for Inactive)
REMARK    1  A    between atoms: C2_2  and  N1_3 
REMARK    2  A    between atoms: N1_3  and  C3_4 
REMARK    3  A    between atoms: N1_3  and  C4_6 
ROOT
HETATM    1  C4  UNL     1       6.933  -2.155  10.395  1.00  0.00     0.146 C 
HETATM    2  N2  UNL     1       6.392  -1.334   9.597  1.00  0.00    -0.369 N 
ATOM      3  H2  UNL     1       5.859  -0.609  10.078  1.00  0.00     0.161 HD
HETATM    4  C5  UNL     1       6.358  -1.191   8.177  1.00  0.00     0.141 C 
HETATM    5  C6  UNL     1       5.976  -2.428   7.429  1.00  0.00     0.141 C 
HETATM    6  N3  UNL     1       7.155  -3.238   7.192  1.00  0.00    -0.374 N 
ATOM      7  H3  UNL     1       7.421  -3.398   6.220  1.00  0.00     0.161 HD
HETATM    8  C7  UNL     1       7.972  -3.826   8.192  1.00  0.00     0.142 C 
HETATM    9  S1  UNL     1       9.091  -4.888   7.700  1.00  0.00    -0.052 SA
HETATM   10  S2  UNL     1       7.923  -3.548   9.952  1.00  0.00    -0.025 SA
ENDROOT
BRANCH   1  11
HETATM   11  N1  UNL     1       6.710  -1.929  11.763  1.00  0.00    -0.349 N 
BRANCH  11  12
HETATM   12  C2  UNL     1       6.430  -0.566  12.241  1.00  0.00     0.121 C 
HETATM   13  C1  UNL     1       7.756   0.075  12.554  1.00  0.00     0.026 C 
ENDBRANCH  11  12
BRANCH  11  14
HETATM   14  C3  UNL     1       6.763  -3.041  12.685  1.00  0.00     0.240 C 
HETATM   15 CL1  UNL     1       5.291  -2.937  13.704  1.00  0.00    -0.109 Cl
ENDBRANCH  11  14
ENDBRANCH   1  11
TORSDOF 3
ENDMDL
MODEL 3
REMARK VINA RESULT: -5.022007414      1.711      2.346
REMARK  3 active torsions:
REMARK  status: ('A' for Active; 'I' for Inactive)
REMARK    1  A    between atoms: C2_2  and  N1_3 
REMARK    2  A    between atoms: N1_3  and  C3_4 
REMARK    3  A    between atoms: N1_3  and  C4_6 
ROOT
HETATM    1  C4  UNL     1       7.284  -2.914  10.320  1.00  0.00     0.146 C 
HETATM    2  N2  UNL     1       8.095  -3.863  10.538  1.00  0.00    -0.369 N 
ATOM      3  H2  UNL     1       8.375  -3.924  11.517  1.00  0.00     0.161 HD
HETATM    4  C5  UNL     1       8.707  -4.864   9.726  1.00  0.00     0.141 C 
HETATM    5  C6  UNL     1       9.377  -4.352   8.491  1.00  0.00     0.141 C 
HETATM    6  N3  UNL     1       8.408  -4.253   7.417  1.00  0.00    -0.374 N 
ATOM      7  H3  UNL     1       8.566  -4.834   6.594  1.00  0.00     0.161 HD
HETATM    8  C7  UNL     1       7.260  -3.419   7.409  1.00  0.00     0.142 C 
HETATM    9  S1  UNL     1       6.454  -3.285   6.012  1.00  0.00    -0.052 SA
HETATM   10  S2  UNL     1       6.580  -2.477   8.762  1.00  0.00    -0.025 SA
ENDROOT
BRANCH   1  11
HETATM   11  N1  UNL     1       6.924  -2.138  11.433  1.00  0.00    -0.349 N 
BRANCH  11  12
HETATM   12  C2  UNL     1       6.755  -2.780  12.746  1.00  0.00     0.121 C 
HETATM   13  C1  UNL     1       5.345  -2.505  13.196  1.00  0.00     0.026 C 
ENDBRANCH  11  12
BRANCH  11  14
HETATM   14  C3  UNL     1       6.720  -0.716  11.272  1.00  0.00     0.240 C 
HETATM   15 CL1  UNL     1       7.704   0.094  12.534  1.00  0.00    -0.109 Cl
ENDBRANCH  11  14
ENDBRANCH   1  11
TORSDOF 3
ENDMDL
MODEL 4
REMARK VINA RESULT: -5.006872487      2.044      2.937
REMARK  3 active torsions:
REMARK  status: ('A' for Active; 'I' for Inactive)
REMARK    1  A    between atoms: C2_2  and  N1_3 
REMARK    2  A    between atoms: N1_3  and  C3_4 
REMARK    3  A    between atoms: N1_3  and  C4_6 
ROOT
HETATM    1  C4  UNL     1       7.271  -2.918  10.371  1.00  0.00     0.146 C 
HETATM    2  N2  UNL     1       8.077  -3.877  10.558  1.00  0.00    -0.369 N 
ATOM      3  H2  UNL     1       8.357  -3.971  11.534  1.00  0.00     0.161 HD
HETATM    4  C5  UNL     1       8.682  -4.856   9.714  1.00  0.00     0.141 C 
HETATM    5  C6  UNL     1       9.353  -4.309   8.495  1.00  0.00     0.141 C 
HETATM    6  N3  UNL     1       8.384  -4.171   7.426  1.00  0.00    -0.374 N 
ATOM      7  H3  UNL     1       8.537  -4.727   6.585  1.00  0.00     0.161 HD
HETATM    8  C7  UNL     1       7.241  -3.330   7.446  1.00  0.00     0.142 C 
HETATM    9  S1  UNL     1       6.434  -3.148   6.054  1.00  0.00    -0.052 SA
HETATM   10  S2  UNL     1       6.567  -2.428   8.828  1.00  0.00    -0.025 SA
ENDROOT
BRANCH   1  11
HETATM   11  N1  UNL     1       6.917  -2.174  11.508  1.00  0.00    -0.349 N 
BRANCH  11  12
HETATM   12  C2  UNL     1       6.739  -0.718  11.401  1.00  0.00     0.121 C 
HETATM   13  C1  UNL     1       7.596  -0.087  12.466  1.00  0.00     0.026 C 
ENDBRANCH  11  12
BRANCH  11  14
HETATM   14  C3  UNL     1       6.734  -2.852  12.772  1.00  0.00     0.240 C 
HETATM   15 CL1  UNL     1       5.097  -2.415  13.360  1.00  0.00    -0.109 Cl
ENDBRANCH  11  14
ENDBRANCH   1  11
TORSDOF 3
ENDMDL
MODEL 5
REMARK VINA RESULT: -4.930576496      3.116      4.002
REMARK  3 active torsions:
REMARK  status: ('A' for Active; 'I' for Inactive)
REMARK    1  A    between atoms: C2_2  and  N1_3 
REMARK    2  A    between atoms: N1_3  and  C3_4 
REMARK    3  A    between atoms: N1_3  and  C4_6 
ROOT
HETATM    1  C4  UNL     1       6.693  -3.247   8.763  1.00  0.00     0.146 C 
HETATM    2  N2  UNL     1       5.955  -3.943   8.005  1.00  0.00    -0.369 N 
ATOM      3  H2  UNL     1       6.114  -4.944   8.111  1.00  0.00     0.161 HD
HETATM    4  C5  UNL     1       4.950  -3.645   7.036  1.00  0.00     0.141 C 
HETATM    5  C6  UNL     1       5.350  -2.639   6.003  1.00  0.00     0.141 C 
HETATM    6  N3  UNL     1       5.089  -1.302   6.498  1.00  0.00    -0.374 N 
ATOM      7  H3  UNL     1       4.411  -0.740   5.984  1.00  0.00     0.161 HD
HETATM    8  C7  UNL     1       5.695  -0.705   7.634  1.00  0.00     0.142 C 
HETATM    9  S1  UNL     1       5.440   0.877   7.862  1.00  0.00    -0.052 SA
HETATM   10  S2  UNL     1       6.723  -1.484   8.865  1.00  0.00    -0.025 SA
ENDROOT
BRANCH   1  11
HETATM   11  N1  UNL     1       7.576  -3.957   9.592  1.00  0.00    -0.349 N 
BRANCH  11  12
HETATM   12  C2  UNL     1       7.061  -4.638  10.790  1.00  0.00     0.121 C 
HETATM   13  C1  UNL     1       6.929  -3.597  11.870  1.00  0.00     0.026 C 
ENDBRANCH  11  12
BRANCH  11  14
HETATM   14  C3  UNL     1       8.981  -4.007   9.258  1.00  0.00     0.240 C 
HETATM   15 CL1  UNL     1       9.122  -4.974   7.755  1.00  0.00    -0.109 Cl
ENDBRANCH  11  14
ENDBRANCH   1  11
TORSDOF 3
ENDMDL
