MODEL 1
REMARK VINA RESULT: -5.850372394      0.000      0.000
REMARK  3 active torsions:
REMARK  status: ('A' for Active; 'I' for Inactive)
REMARK    1  A    between atoms: C4_6  and  C5_7 
REMARK    2  A    between atoms: N2_8  and  N3_10 
REMARK       I    between atoms: N3_10  and  C6_11 
REMARK    3  A    between atoms: C6_11  and  C7_13 
ROOT
HETATM    1  C5  UNL     1       5.240   0.127   7.291  1.00  0.00     0.141 C 
HETATM    2  N2  UNL     1       6.016   0.104   8.299  1.00  0.00    -0.242 N 
ATOM      3  H2  UNL     1       6.402   1.014   8.551  1.00  0.00     0.201 HD
ENDROOT
BRANCH   2   4
HETATM    4  N3  UNL     1       6.406  -0.873   9.068  1.00  0.00    -0.287 NA
HETATM    5  C6  UNL     1       6.813  -1.890   9.868  1.00  0.00     0.320 C 
HETATM    6  O1  UNL     1       6.985  -1.868  11.100  1.00  0.00    -0.254 OA
BRANCH   5   7
HETATM    7  C7  UNL     1       7.116  -3.264   9.254  1.00  0.00     0.046 C 
HETATM    8  C8  UNL     1       7.076  -4.328  10.307  1.00  0.00     0.026 C 
HETATM    9  C9  UNL     1       8.485  -3.243   8.612  1.00  0.00     0.026 C 
HETATM   10  C10 UNL     1       6.105  -3.542   8.169  1.00  0.00     0.026 C 
ENDBRANCH   5   7
ENDBRANCH   2   4
BRANCH   1  11
HETATM   11  C4  UNL     1       5.004   1.399   6.644  1.00  0.00     0.040 A 
HETATM   12  C3  UNL     1       5.425   1.869   5.429  1.00  0.00     0.109 A 
HETATM   13  N1  UNL     1       5.069   3.059   5.085  1.00  0.00    -0.363 N 
HETATM   14  C2  UNL     1       4.321   3.795   5.889  1.00  0.00     0.047 A 
ATOM     15  H1  UNL     1       5.367   3.437   4.185  1.00  0.00     0.165 HD
HETATM   16  C1  UNL     1       3.805   5.197   5.675  1.00  0.00     0.076 C 
HETATM   17  S1  UNL     1       4.095   2.748   7.228  1.00  0.00    -0.075 SA
ENDBRANCH   1  11
TORSDOF 3
ENDMDL
MODEL 2
REMARK VINA RESULT: -5.723928266      2.146      2.708
REMARK  3 active torsions:
REMARK  status: ('A' for Active; 'I' for Inactive)
REMARK    1  A    between atoms: C4_6  and  C5_7 
REMARK    2  A    between atoms: N2_8  and  N3_10 
REMARK       I    between atoms: N3_10  and  C6_11 
REMARK    3  A    between atoms: C6_11  and  C7_13 
ROOT
HETATM    1  C5  UNL     1       4.717  -0.838   6.710  1.00  0.00     0.141 C 
HETATM    2  N2  UNL     1       5.737  -1.097   7.426  1.00  0.00    -0.242 N 
ATOM      3  H2  UNL     1       6.058  -0.314   7.996  1.00  0.00     0.201 HD
ENDROOT
BRANCH   2   4
HETATM    4  N3  UNL     1       6.444  -2.182   7.562  1.00  0.00    -0.287 NA
HETATM    5  C6  UNL     1       7.181  -3.313   7.703  1.00  0.00     0.320 C 
HETATM    6  O1  UNL     1       7.811  -3.691   8.707  1.00  0.00    -0.254 OA
BRANCH   5   7
HETATM    7  C7  UNL     1       7.300  -4.292   6.526  1.00  0.00     0.046 C 
HETATM    8  C8  UNL     1       7.361  -3.545   5.229  1.00  0.00     0.026 C 
HETATM    9  C9  UNL     1       6.107  -5.222   6.515  1.00  0.00     0.026 C 
HETATM   10  C10 UNL     1       8.537  -5.134   6.722  1.00  0.00     0.026 C 
ENDBRANCH   5   7
ENDBRANCH   2   4
BRANCH   1  11
HETATM   11  C4  UNL     1       4.153   0.492   6.788  1.00  0.00     0.040 A 
HETATM   12  C3  UNL     1       2.917   0.955   6.425  1.00  0.00     0.109 A 
HETATM   13  N1  UNL     1       2.664   2.208   6.603  1.00  0.00    -0.363 N 
HETATM   14  C2  UNL     1       3.578   3.010   7.120  1.00  0.00     0.047 A 
ATOM     15  H1  UNL     1       1.752   2.582   6.342  1.00  0.00     0.165 HD
HETATM   16  C1  UNL     1       3.483   4.489   7.404  1.00  0.00     0.076 C 
HETATM   17  S1  UNL     1       4.892   1.939   7.379  1.00  0.00    -0.075 SA
ENDBRANCH   1  11
TORSDOF 3
ENDMDL
MODEL 3
REMARK VINA RESULT: -5.717067337      2.146      2.498
REMARK  3 active torsions:
REMARK  status: ('A' for Active; 'I' for Inactive)
REMARK    1  A    between atoms: C4_6  and  C5_7 
REMARK    2  A    between atoms: N2_8  and  N3_10 
REMARK       I    between atoms: N3_10  and  C6_11 
REMARK    3  A    between atoms: C6_11  and  C7_13 
ROOT
HETATM    1  C5  UNL     1       4.734  -0.854   6.696  1.00  0.00     0.141 C 
HETATM    2  N2  UNL     1       5.735  -1.117   7.436  1.00  0.00    -0.242 N 
ATOM      3  H2  UNL     1       6.036  -0.341   8.026  1.00  0.00     0.201 HD
ENDROOT
BRANCH   2   4
HETATM    4  N3  UNL     1       6.445  -2.200   7.575  1.00  0.00    -0.287 NA
HETATM    5  C6  UNL     1       7.185  -3.328   7.720  1.00  0.00     0.320 C 
HETATM    6  O1  UNL     1       7.810  -3.705   8.728  1.00  0.00    -0.254 OA
BRANCH   5   7
HETATM    7  C7  UNL     1       7.316  -4.306   6.544  1.00  0.00     0.046 C 
HETATM    8  C8  UNL     1       8.581  -5.100   6.662  1.00  0.00     0.026 C 
HETATM    9  C9  UNL     1       7.326  -3.537   5.241  1.00  0.00     0.026 C 
HETATM   10  C10 UNL     1       6.110  -5.213   6.532  1.00  0.00     0.026 C 
ENDBRANCH   5   7
ENDBRANCH   2   4
BRANCH   1  11
HETATM   11  C4  UNL     1       4.159   0.471   6.777  1.00  0.00     0.040 A 
HETATM   12  C3  UNL     1       2.912   0.921   6.438  1.00  0.00     0.109 A 
HETATM   13  N1  UNL     1       2.652   2.172   6.613  1.00  0.00    -0.363 N 
HETATM   14  C2  UNL     1       3.570   2.986   7.106  1.00  0.00     0.047 A 
ATOM     15  H1  UNL     1       1.731   2.537   6.369  1.00  0.00     0.165 HD
HETATM   16  C1  UNL     1       3.466   4.466   7.382  1.00  0.00     0.076 C 
HETATM   17  S1  UNL     1       4.898   1.928   7.344  1.00  0.00    -0.075 SA
ENDBRANCH   1  11
TORSDOF 3
ENDMDL
MODEL 4
REMARK VINA RESULT: -5.713850823      2.151      2.488
REMARK  3 active torsions:
REMARK  status: ('A' for Active; 'I' for Inactive)
REMARK    1  A    between atoms: C4_6  and  C5_7 
REMARK    2  A    between atoms: N2_8  and  N3_10 
REMARK       I    between atoms: N3_10  and  C6_11 
REMARK    3  A    between atoms: C6_11  and  C7_13 
ROOT
HETATM    1  C5  UNL     1       4.731  -0.841   6.693  1.00  0.00     0.141 C 
HETATM    2  N2  UNL     1       5.739  -1.104   7.425  1.00  0.00    -0.242 N 
ATOM      3  H2  UNL     1       6.045  -0.327   8.011  1.00  0.00     0.201 HD
ENDROOT
BRANCH   2   4
HETATM    4  N3  UNL     1       6.450  -2.187   7.560  1.00  0.00    -0.287 NA
HETATM    5  C6  UNL     1       7.191  -3.315   7.700  1.00  0.00     0.320 C 
HETATM    6  O1  UNL     1       7.842  -3.680   8.696  1.00  0.00    -0.254 OA
BRANCH   5   7
HETATM    7  C7  UNL     1       7.288  -4.308   6.534  1.00  0.00     0.046 C 
HETATM    8  C8  UNL     1       6.107  -5.231   6.534  1.00  0.00     0.026 C 
HETATM    9  C9  UNL     1       8.559  -5.119   6.659  1.00  0.00     0.026 C 
HETATM   10  C10 UNL     1       7.365  -3.532   5.242  1.00  0.00     0.026 C 
ENDBRANCH   5   7
ENDBRANCH   2   4
BRANCH   1  11
HETATM   11  C4  UNL     1       4.158   0.484   6.778  1.00  0.00     0.040 A 
HETATM   12  C3  UNL     1       2.911   0.936   6.439  1.00  0.00     0.109 A 
HETATM   13  N1  UNL     1       2.652   2.187   6.617  1.00  0.00    -0.363 N 
HETATM   14  C2  UNL     1       3.570   2.998   7.113  1.00  0.00     0.047 A 
ATOM     15  H1  UNL     1       1.731   2.552   6.373  1.00  0.00     0.165 HD
HETATM   16  C1  UNL     1       3.467   4.478   7.393  1.00  0.00     0.076 C 
HETATM   17  S1  UNL     1       4.897   1.939   7.349  1.00  0.00    -0.075 SA
ENDBRANCH   1  11
TORSDOF 3
ENDMDL
MODEL 5
REMARK VINA RESULT: -5.651558286      5.524      7.253
REMARK  3 active torsions:
REMARK  status: ('A' for Active; 'I' for Inactive)
REMARK    1  A    between atoms: C4_6  and  C5_7 
REMARK    2  A    between atoms: N2_8  and  N3_10 
REMARK       I    between atoms: N3_10  and  C6_11 
REMARK    3  A    between atoms: C6_11  and  C7_13 
ROOT
HETATM    1  C5  UNL     1       8.197  -3.160   8.545  1.00  0.00     0.141 C 
HETATM    2  N2  UNL     1       7.666  -3.747   7.549  1.00  0.00    -0.242 N 
ATOM      3  H2  UNL     1       6.905  -4.381   7.793  1.00  0.00     0.201 HD
ENDROOT
BRANCH   2   4
HETATM    4  N3  UNL     1       7.921  -3.685   6.273  1.00  0.00    -0.287 NA
HETATM    5  C6  UNL     1       8.186  -3.620   4.943  1.00  0.00     0.320 C 
HETATM    6  O1  UNL     1       7.375  -3.467   4.012  1.00  0.00    -0.254 OA
BRANCH   5   7
HETATM    7  C7  UNL     1       9.635  -3.744   4.452  1.00  0.00     0.046 C 
HETATM    8  C8  UNL     1       9.794  -3.079   3.119  1.00  0.00     0.026 C 
HETATM    9  C9  UNL     1      10.010  -5.204   4.333  1.00  0.00     0.026 C 
HETATM   10  C10 UNL     1      10.548  -3.118   5.478  1.00  0.00     0.026 C 
ENDBRANCH   5   7
ENDBRANCH   2   4
BRANCH   1  11
HETATM   11  C4  UNL     1       7.674  -3.450   9.862  1.00  0.00     0.040 A 
HETATM   12  C3  UNL     1       7.562  -4.639  10.531  1.00  0.00     0.109 A 
HETATM   13  N1  UNL     1       7.050  -4.621  11.715  1.00  0.00    -0.363 N 
HETATM   14  C2  UNL     1       6.649  -3.483  12.256  1.00  0.00     0.047 A 
ATOM     15  H1  UNL     1       6.953  -5.491  12.238  1.00  0.00     0.165 HD
HETATM   16  C1  UNL     1       6.029  -3.251  13.612  1.00  0.00     0.076 C 
HETATM   17  S1  UNL     1       7.013  -2.350  11.021  1.00  0.00    -0.075 SA
ENDBRANCH   1  11
TORSDOF 3
ENDMDL
