MODEL 1
REMARK VINA RESULT: -4.969803536      0.000      0.000
REMARK  5 active torsions:
REMARK  status: ('A' for Active; 'I' for Inactive)
REMARK    1  A    between atoms: C2_2  and  C3_3 
REMARK    2  A    between atoms: C3_3  and  C4_5 
REMARK    3  A    between atoms: C4_5  and  S1_7 
REMARK    4  A    between atoms: S1_7  and  S2_8 
REMARK    5  A    between atoms: S2_8  and  C5_9 
ROOT
HETATM    1  C4  UNL     1       8.926  -4.530   8.563  1.00  0.00     0.215 C 
HETATM    2  O1  UNL     1       9.889  -4.891   9.175  1.00  0.00    -0.283 OA
ENDROOT
BRANCH   1   3
HETATM    3  C3  UNL     1       8.766  -4.926   7.152  1.00  0.00     0.163 C 
HETATM    4 CL1  UNL     1       7.084  -5.169   6.691  1.00  0.00    -0.116 Cl
BRANCH   3   5
HETATM    5  C2  UNL     1       9.495  -4.001   6.205  1.00  0.00     0.024 C 
HETATM    6  C1  UNL     1       9.982  -4.681   4.972  1.00  0.00     0.007 C 
ENDBRANCH   3   5
ENDBRANCH   1   3
BRANCH   1   7
HETATM    7  S1  UNL     1       7.691  -3.529   9.332  1.00  0.00    -0.011 SA
BRANCH   7   8
HETATM    8  S2  UNL     1       7.136  -4.456  11.158  1.00  0.00    -0.023 SA
BRANCH   8   9
HETATM    9  C5  UNL     1       6.469  -3.215  12.247  1.00  0.00     0.160 C 
HETATM   10  N1  UNL     1       5.618  -3.604  13.317  1.00  0.00    -0.081 NA
HETATM   11  S3  UNL     1       6.819  -1.625  12.038  1.00  0.00    -0.055 SA
ENDBRANCH   8   9
ENDBRANCH   7   8
ENDBRANCH   1   7
TORSDOF 5
ENDMDL
MODEL 2
REMARK VINA RESULT: -4.953208762      4.588      5.797
REMARK  5 active torsions:
REMARK  status: ('A' for Active; 'I' for Inactive)
REMARK    1  A    between atoms: C2_2  and  C3_3 
REMARK    2  A    between atoms: C3_3  and  C4_5 
REMARK    3  A    between atoms: C4_5  and  S1_7 
REMARK    4  A    between atoms: S1_7  and  S2_8 
REMARK    5  A    between atoms: S2_8  and  C5_9 
ROOT
HETATM    1  C4  UNL     1       6.656  -0.915  10.610  1.00  0.00     0.215 C 
HETATM    2  O1  UNL     1       6.283  -1.501  11.585  1.00  0.00    -0.283 OA
ENDROOT
BRANCH   1   3
HETATM    3  C3  UNL     1       6.947   0.528  10.691  1.00  0.00     0.163 C 
HETATM    4 CL1  UNL     1       8.098   0.929  11.962  1.00  0.00    -0.116 Cl
BRANCH   3   5
HETATM    5  C2  UNL     1       7.337   1.115   9.354  1.00  0.00     0.024 C 
HETATM    6  C1  UNL     1       6.242   1.890   8.707  1.00  0.00     0.007 C 
ENDBRANCH   3   5
ENDBRANCH   1   3
BRANCH   1   7
HETATM    7  S1  UNL     1       6.865  -1.762   9.075  1.00  0.00    -0.011 SA
BRANCH   7   8
HETATM    8  S2  UNL     1       7.148  -3.823   9.494  1.00  0.00    -0.023 SA
BRANCH   8   9
HETATM    9  C5  UNL     1       8.658  -4.360   8.718  1.00  0.00     0.160 C 
HETATM   10  N1  UNL     1       9.665  -4.988   9.500  1.00  0.00    -0.081 NA
HETATM   11  S3  UNL     1       8.910  -4.143   7.110  1.00  0.00    -0.055 SA
ENDBRANCH   8   9
ENDBRANCH   7   8
ENDBRANCH   1   7
TORSDOF 5
ENDMDL
MODEL 3
REMARK VINA RESULT: -4.830010167      1.372      1.754
REMARK  5 active torsions:
REMARK  status: ('A' for Active; 'I' for Inactive)
REMARK    1  A    between atoms: C2_2  and  C3_3 
REMARK    2  A    between atoms: C3_3  and  C4_5 
REMARK    3  A    between atoms: C4_5  and  S1_7 
REMARK    4  A    between atoms: S1_7  and  S2_8 
REMARK    5  A    between atoms: S2_8  and  C5_9 
ROOT
HETATM    1  C4  UNL     1       8.694  -3.986   8.412  1.00  0.00     0.215 C 
HETATM    2  O1  UNL     1       9.631  -4.531   8.919  1.00  0.00    -0.283 OA
ENDROOT
BRANCH   1   3
HETATM    3  C3  UNL     1       8.496  -4.077   6.954  1.00  0.00     0.163 C 
HETATM    4 CL1  UNL     1       9.985  -3.853   6.041  1.00  0.00    -0.116 Cl
BRANCH   3   5
HETATM    5  C2  UNL     1       7.754  -5.329   6.548  1.00  0.00     0.024 C 
HETATM    6  C1  UNL     1       6.273  -5.160   6.534  1.00  0.00     0.007 C 
ENDBRANCH   3   5
ENDBRANCH   1   3
BRANCH   1   7
HETATM    7  S1  UNL     1       7.543  -3.074   9.393  1.00  0.00    -0.011 SA
BRANCH   7   8
HETATM    8  S2  UNL     1       7.132  -4.201  11.143  1.00  0.00    -0.023 SA
BRANCH   8   9
HETATM    9  C5  UNL     1       6.410  -3.121  12.360  1.00  0.00     0.160 C 
HETATM   10  N1  UNL     1       5.611  -3.668  13.401  1.00  0.00    -0.081 NA
HETATM   11  S3  UNL     1       6.651  -1.498  12.304  1.00  0.00    -0.055 SA
ENDBRANCH   8   9
ENDBRANCH   7   8
ENDBRANCH   1   7
TORSDOF 5
ENDMDL
MODEL 4
REMARK VINA RESULT: -4.824169538      4.083      6.088
REMARK  5 active torsions:
REMARK  status: ('A' for Active; 'I' for Inactive)
REMARK    1  A    between atoms: C2_2  and  C3_3 
REMARK    2  A    between atoms: C3_3  and  C4_5 
REMARK    3  A    between atoms: C4_5  and  S1_7 
REMARK    4  A    between atoms: S1_7  and  S2_8 
REMARK    5  A    between atoms: S2_8  and  C5_9 
ROOT
HETATM    1  C4  UNL     1       6.550  -0.660  10.466  1.00  0.00     0.215 C 
HETATM    2  O1  UNL     1       5.974   0.380  10.335  1.00  0.00    -0.283 OA
ENDROOT
BRANCH   1   3
HETATM    3  C3  UNL     1       7.000  -1.084  11.804  1.00  0.00     0.163 C 
HETATM    4 CL1  UNL     1       7.882   0.175  12.665  1.00  0.00    -0.116 Cl
BRANCH   3   5
HETATM    5  C2  UNL     1       5.881  -1.672  12.632  1.00  0.00     0.024 C 
HETATM    6  C1  UNL     1       6.206  -3.010  13.200  1.00  0.00     0.007 C 
ENDBRANCH   3   5
ENDBRANCH   1   3
BRANCH   1   7
HETATM    7  S1  UNL     1       6.866  -1.697   9.071  1.00  0.00    -0.011 SA
BRANCH   7   8
HETATM    8  S2  UNL     1       7.304  -3.646   9.787  1.00  0.00    -0.023 SA
BRANCH   8   9
HETATM    9  C5  UNL     1       8.671  -4.302   8.855  1.00  0.00     0.160 C 
HETATM   10  N1  UNL     1       9.672  -5.064   9.517  1.00  0.00    -0.081 NA
HETATM   11  S3  UNL     1       8.799  -4.042   7.239  1.00  0.00    -0.055 SA
ENDBRANCH   8   9
ENDBRANCH   7   8
ENDBRANCH   1   7
TORSDOF 5
ENDMDL
MODEL 5
REMARK VINA RESULT: -4.729691179      4.159      5.426
REMARK  5 active torsions:
REMARK  status: ('A' for Active; 'I' for Inactive)
REMARK    1  A    between atoms: C2_2  and  C3_3 
REMARK    2  A    between atoms: C3_3  and  C4_5 
REMARK    3  A    between atoms: C4_5  and  S1_7 
REMARK    4  A    between atoms: S1_7  and  S2_8 
REMARK    5  A    between atoms: S2_8  and  C5_9 
ROOT
HETATM    1  C4  UNL     1       6.678  -1.236  10.695  1.00  0.00     0.215 C 
HETATM    2  O1  UNL     1       5.986  -0.752  11.543  1.00  0.00    -0.283 OA
ENDROOT
BRANCH   1   3
HETATM    3  C3  UNL     1       6.981  -0.469   9.473  1.00  0.00     0.163 C 
HETATM    4 CL1  UNL     1       5.845  -0.783   8.164  1.00  0.00    -0.116 Cl
BRANCH   3   5
HETATM    5  C2  UNL     1       7.153   1.008   9.744  1.00  0.00     0.024 C 
HETATM    6  C1  UNL     1       6.395   1.875   8.799  1.00  0.00     0.007 C 
ENDBRANCH   3   5
ENDBRANCH   1   3
BRANCH   1   7
HETATM    7  S1  UNL     1       7.343  -2.859  10.893  1.00  0.00    -0.011 SA
BRANCH   7   8
HETATM    8  S2  UNL     1       7.108  -3.894   9.055  1.00  0.00    -0.023 SA
BRANCH   8   9
HETATM    9  C5  UNL     1       8.712  -4.412   8.483  1.00  0.00     0.160 C 
HETATM   10  N1  UNL     1       9.642  -4.966   9.405  1.00  0.00    -0.081 NA
HETATM   11  S3  UNL     1       9.140  -4.262   6.906  1.00  0.00    -0.055 SA
ENDBRANCH   8   9
ENDBRANCH   7   8
ENDBRANCH   1   7
TORSDOF 5
ENDMDL
