MODEL 1
REMARK VINA RESULT: -6.405824272      0.000      0.000
REMARK  3 active torsions:
REMARK  status: ('A' for Active; 'I' for Inactive)
REMARK    1  A    between atoms: C2_2  and  N1_4 
REMARK    2  A    between atoms: N1_4  and  C4_6 
REMARK    3  A    between atoms: C7_9  and  N2_10 
ROOT
HETATM    1  C4  UNL     1       8.556  -3.641   6.884  1.00  0.00     0.077 C 
HETATM    2  C5  UNL     1       7.186  -3.385   7.401  1.00  0.00     0.027 C 
HETATM    3  C6  UNL     1       6.611  -4.370   8.369  1.00  0.00     0.029 C 
HETATM    4  C7  UNL     1       7.471  -4.626   9.572  1.00  0.00     0.109 C 
HETATM    5  C10 UNL     1       8.912  -4.382   9.167  1.00  0.00     0.029 C 
HETATM    6  C11 UNL     1       9.124  -4.791   7.745  1.00  0.00     0.027 C 
ENDROOT
BRANCH   4   7
HETATM    7  N2  UNL     1       7.174  -3.792  10.711  1.00  0.00    -0.280 N 
HETATM    8  C8  UNL     1       7.244  -2.472  10.845  1.00  0.00     0.204 A 
HETATM    9  N3  UNL     1       6.856  -2.094  12.075  1.00  0.00    -0.312 N 
HETATM   10  C9  UNL     1       6.535  -3.252  12.728  1.00  0.00     0.281 A 
ATOM     11  H3  UNL     1       6.810  -1.144  12.443  1.00  0.00     0.170 HD
HETATM   12  F1  UNL     1       6.100  -3.225  14.022  1.00  0.00    -0.164 F 
HETATM   13  N4  UNL     1       6.737  -4.232  11.882  1.00  0.00    -0.258 N 
ATOM     14  H4  UNL     1       6.577  -5.216  12.100  1.00  0.00     0.191 HD
ENDBRANCH   4   7
BRANCH   1  15
HETATM   15  N1  UNL     1       8.719  -3.980   5.504  1.00  0.00    -0.414 N 
ATOM     16  H1  UNL     1       7.935  -4.361   4.974  1.00  0.00     0.153 HD
BRANCH  15  17
HETATM   17  C2  UNL     1       9.973  -3.783   4.879  1.00  0.00     0.068 C 
HETATM   18  C1  UNL     1      10.480  -5.044   4.239  1.00  0.00     0.031 C 
HETATM   19  C3  UNL     1       9.747  -2.835   3.652  1.00  0.00     0.031 C 
ENDBRANCH  15  17
ENDBRANCH   1  15
TORSDOF 3
ENDMDL
MODEL 2
REMARK VINA RESULT: -6.389281005      3.638      5.002
REMARK  3 active torsions:
REMARK  status: ('A' for Active; 'I' for Inactive)
REMARK    1  A    between atoms: C2_2  and  N1_4 
REMARK    2  A    between atoms: N1_4  and  C4_6 
REMARK    3  A    between atoms: C7_9  and  N2_10 
ROOT
HETATM    1  C4  UNL     1       5.803   0.301   8.517  1.00  0.00     0.077 C 
HETATM    2  C5  UNL     1       6.030  -1.167   8.471  1.00  0.00     0.027 C 
HETATM    3  C6  UNL     1       7.261  -1.703   9.130  1.00  0.00     0.029 C 
HETATM    4  C7  UNL     1       7.414  -1.303  10.568  1.00  0.00     0.109 C 
HETATM    5  C10 UNL     1       6.708   0.027  10.752  1.00  0.00     0.029 C 
HETATM    6  C11 UNL     1       6.841   0.857   9.516  1.00  0.00     0.027 C 
ENDROOT
BRANCH   4   7
HETATM    7  N2  UNL     1       6.864  -2.241  11.516  1.00  0.00    -0.280 N 
HETATM    8  C8  UNL     1       6.969  -3.565  11.566  1.00  0.00     0.204 A 
HETATM    9  N3  UNL     1       6.318  -4.057  12.633  1.00  0.00    -0.312 N 
HETATM   10  C9  UNL     1       5.783  -2.969  13.267  1.00  0.00     0.281 A 
ATOM     11  H3  UNL     1       6.240  -5.034  12.913  1.00  0.00     0.170 HD
HETATM   12  F1  UNL     1       5.043  -3.119  14.405  1.00  0.00    -0.164 F 
HETATM   13  N4  UNL     1       6.133  -1.915  12.572  1.00  0.00    -0.258 N 
ATOM     14  H4  UNL     1       5.873  -0.959  12.814  1.00  0.00     0.191 HD
ENDBRANCH   4   7
BRANCH   1  15
HETATM   15  N1  UNL     1       5.890   1.050   7.301  1.00  0.00    -0.414 N 
ATOM     16  H1  UNL     1       6.630   0.850   6.628  1.00  0.00     0.153 HD
BRANCH  15  17
HETATM   17  C2  UNL     1       4.945   2.070   7.040  1.00  0.00     0.068 C 
HETATM   18  C1  UNL     1       4.704   2.240   5.566  1.00  0.00     0.031 C 
HETATM   19  C3  UNL     1       3.555   1.573   7.566  1.00  0.00     0.031 C 
ENDBRANCH  15  17
ENDBRANCH   1  15
TORSDOF 3
ENDMDL
MODEL 3
REMARK VINA RESULT: -6.369648299      1.548      1.781
REMARK  3 active torsions:
REMARK  status: ('A' for Active; 'I' for Inactive)
REMARK    1  A    between atoms: C2_2  and  N1_4 
REMARK    2  A    between atoms: N1_4  and  C4_6 
REMARK    3  A    between atoms: C7_9  and  N2_10 
ROOT
HETATM    1  C4  UNL     1       8.934  -4.080   6.738  1.00  0.00     0.077 C 
HETATM    2  C5  UNL     1       7.559  -3.563   6.968  1.00  0.00     0.027 C 
HETATM    3  C6  UNL     1       6.769  -4.160   8.089  1.00  0.00     0.029 C 
HETATM    4  C7  UNL     1       7.459  -4.117   9.420  1.00  0.00     0.109 C 
HETATM    5  C10 UNL     1       8.954  -4.131   9.164  1.00  0.00     0.029 C 
HETATM    6  C11 UNL     1       9.263  -4.964   7.962  1.00  0.00     0.027 C 
ENDROOT
BRANCH   4   7
HETATM    7  N2  UNL     1       7.148  -2.958  10.222  1.00  0.00    -0.280 N 
HETATM    8  C8  UNL     1       7.068  -2.829  11.541  1.00  0.00     0.204 A 
HETATM    9  N3  UNL     1       6.772  -1.563  11.882  1.00  0.00    -0.312 N 
HETATM   10  C9  UNL     1       6.662  -0.884  10.700  1.00  0.00     0.281 A 
ATOM     11  H3  UNL     1       6.654  -1.187  12.823  1.00  0.00     0.170 HD
HETATM   12  F1  UNL     1       6.359   0.447  10.685  1.00  0.00    -0.164 F 
HETATM   13  N4  UNL     1       6.894  -1.748   9.743  1.00  0.00    -0.258 N 
ATOM     14  H4  UNL     1       6.881  -1.518   8.749  1.00  0.00     0.191 HD
ENDBRANCH   4   7
BRANCH   1  15
HETATM   15  N1  UNL     1       9.198  -4.829   5.549  1.00  0.00    -0.414 N 
ATOM     16  H1  UNL     1       8.621  -5.636   5.312  1.00  0.00     0.153 HD
BRANCH  15  17
HETATM   17  C2  UNL     1      10.266  -4.444   4.703  1.00  0.00     0.068 C 
HETATM   18  C1  UNL     1      10.734  -5.585   3.844  1.00  0.00     0.031 C 
HETATM   19  C3  UNL     1       9.696  -3.428   3.655  1.00  0.00     0.031 C 
ENDBRANCH  15  17
ENDBRANCH   1  15
TORSDOF 3
ENDMDL
MODEL 4
REMARK VINA RESULT: -6.177998797      5.277      7.414
REMARK  3 active torsions:
REMARK  status: ('A' for Active; 'I' for Inactive)
REMARK    1  A    between atoms: C2_2  and  N1_4 
REMARK    2  A    between atoms: N1_4  and  C4_6 
REMARK    3  A    between atoms: C7_9  and  N2_10 
ROOT
HETATM    1  C4  UNL     1       6.520  -0.784  10.394  1.00  0.00     0.077 C 
HETATM    2  C5  UNL     1       6.502   0.702  10.412  1.00  0.00     0.027 C 
HETATM    3  C6  UNL     1       6.906   1.418   9.163  1.00  0.00     0.029 C 
HETATM    4  C7  UNL     1       6.140   1.005   7.940  1.00  0.00     0.109 C 
HETATM    5  C10 UNL     1       5.692  -0.430   8.141  1.00  0.00     0.029 C 
HETATM    6  C11 UNL     1       6.721  -1.187   8.917  1.00  0.00     0.027 C 
ENDROOT
BRANCH   4   7
HETATM    7  N2  UNL     1       4.974   1.808   7.661  1.00  0.00    -0.280 N 
HETATM    8  C8  UNL     1       3.694   1.459   7.592  1.00  0.00     0.204 A 
HETATM    9  N3  UNL     1       2.921   2.526   7.327  1.00  0.00    -0.312 N 
HETATM   10  C9  UNL     1       3.781   3.584   7.226  1.00  0.00     0.281 A 
ATOM     11  H3  UNL     1       1.906   2.543   7.224  1.00  0.00     0.170 HD
HETATM   12  F1  UNL     1       3.316   4.838   6.953  1.00  0.00    -0.164 F 
HETATM   13  N4  UNL     1       4.987   3.113   7.432  1.00  0.00    -0.258 N 
ATOM     14  H4  UNL     1       5.833   3.683   7.418  1.00  0.00     0.191 HD
ENDBRANCH   4   7
BRANCH   1  15
HETATM   15  N1  UNL     1       7.489  -1.471  11.192  1.00  0.00    -0.414 N 
ATOM     16  H1  UNL     1       8.485  -1.356  11.000  1.00  0.00     0.153 HD
BRANCH  15  17
HETATM   17  C2  UNL     1       7.059  -2.309  12.247  1.00  0.00     0.068 C 
HETATM   18  C1  UNL     1       5.699  -1.917  12.750  1.00  0.00     0.031 C 
HETATM   19  C3  UNL     1       6.811  -3.736  11.647  1.00  0.00     0.031 C 
ENDBRANCH  15  17
ENDBRANCH   1  15
TORSDOF 3
ENDMDL
MODEL 5
REMARK VINA RESULT: -6.164981470      4.616      5.967
REMARK  3 active torsions:
REMARK  status: ('A' for Active; 'I' for Inactive)
REMARK    1  A    between atoms: C2_2  and  N1_4 
REMARK    2  A    between atoms: N1_4  and  C4_6 
REMARK    3  A    between atoms: C7_9  and  N2_10 
ROOT
HETATM    1  C4  UNL     1       5.155   1.497   7.992  1.00  0.00     0.077 C 
HETATM    2  C5  UNL     1       5.341   0.025   7.904  1.00  0.00     0.027 C 
HETATM    3  C6  UNL     1       6.690  -0.528   8.239  1.00  0.00     0.029 C 
HETATM    4  C7  UNL     1       7.204  -0.123   9.589  1.00  0.00     0.109 C 
HETATM    5  C10 UNL     1       6.587   1.220   9.932  1.00  0.00     0.029 C 
HETATM    6  C11 UNL     1       6.419   2.041   8.694  1.00  0.00     0.027 C 
ENDROOT
BRANCH   4   7
HETATM    7  N2  UNL     1       6.896  -1.047  10.653  1.00  0.00    -0.280 N 
HETATM    8  C8  UNL     1       6.447  -0.815  11.882  1.00  0.00     0.204 A 
HETATM    9  N3  UNL     1       6.270  -1.967  12.552  1.00  0.00    -0.312 N 
HETATM   10  C9  UNL     1       6.636  -2.955  11.681  1.00  0.00     0.281 A 
ATOM     11  H3  UNL     1       5.933  -2.080  13.508  1.00  0.00     0.170 HD
HETATM   12  F1  UNL     1       6.579  -4.268  12.052  1.00  0.00    -0.164 F 
HETATM   13  N4  UNL     1       6.998  -2.366  10.569  1.00  0.00    -0.258 N 
ATOM     14  H4  UNL     1       7.320  -2.862   9.737  1.00  0.00     0.191 HD
ENDBRANCH   4   7
BRANCH   1  15
HETATM   15  N1  UNL     1       4.947   2.238   6.787  1.00  0.00    -0.414 N 
ATOM     16  H1  UNL     1       5.695   2.319   6.099  1.00  0.00     0.153 HD
BRANCH  15  17
HETATM   17  C2  UNL     1       3.695   2.857   6.555  1.00  0.00     0.068 C 
HETATM   18  C1  UNL     1       2.577   2.124   7.239  1.00  0.00     0.031 C 
HETATM   19  C3  UNL     1       3.708   4.241   7.291  1.00  0.00     0.031 C 
ENDBRANCH  15  17
ENDBRANCH   1  15
TORSDOF 3
ENDMDL
