MODEL 1
REMARK VINA RESULT: -7.973411818      0.000      0.000
REMARK  10 active torsions:
REMARK  status: ('A' for Active; 'I' for Inactive)
REMARK    1  A    between atoms: N1_1  and  N2_4 
REMARK    2  A    between atoms: N2_4  and  N3_6 
REMARK       I    between atoms: C1_8  and  N5_10 
REMARK    3  A    between atoms: N5_10  and  C2_12 
REMARK    4  A    between atoms: C2_12  and  O1_13 
REMARK    5  A    between atoms: C2_12  and  C3_15 
REMARK    6  A    between atoms: C3_15  and  N6_16 
REMARK    7  A    between atoms: C3_15  and  C8_31 
REMARK       I    between atoms: N6_16  and  C4_18 
REMARK    8  A    between atoms: C4_18  and  C5_20 
REMARK    9  A    between atoms: C8_31  and  O5_32 
REMARK   10  A    between atoms: C8_31  and  O6_34 
ROOT
HETATM    1  C3  UNL     1      11.003   6.323  26.483  1.00  0.00     0.118 C 
ENDROOT
BRANCH   1   2
HETATM    2  C2  UNL     1      10.582   5.458  25.495  1.00  0.00     0.170 C 
BRANCH   2   3
HETATM    3  N5  UNL     1       9.767   5.727  24.333  1.00  0.00    -0.308 N 
HETATM    4  C1  UNL     1       8.571   5.024  24.059  1.00  0.00     0.210 C 
HETATM    5  N3  UNL     1       7.805   5.248  23.087  1.00  0.00    -0.259 N 
HETATM    6  N4  UNL     1       8.179   3.860  24.879  1.00  0.00    -0.062 NA
ATOM      7  H3  UNL     1       7.043   4.573  23.035  1.00  0.00     0.191 HD
ATOM      8  H5  UNL     1      10.067   6.454  23.682  1.00  0.00     0.170 HD
BRANCH   5   9
HETATM    9  N2  UNL     1       7.742   6.161  22.098  1.00  0.00    -0.247 N 
ATOM     10  H2  UNL     1       8.488   6.846  21.976  1.00  0.00     0.207 HD
BRANCH   9  11
HETATM   11  N1  UNL     1       6.716   6.154  21.301  1.00  0.00    -0.331 N 
ATOM     12  H12 UNL     1       6.861   6.089  20.293  1.00  0.00     0.178 HD
ATOM     13  H11 UNL     1       5.780   6.214  21.702  1.00  0.00     0.178 HD
ENDBRANCH   9  11
ENDBRANCH   5   9
ENDBRANCH   2   3
BRANCH   2  14
HETATM   14  O1  UNL     1      10.897   4.170  25.504  1.00  0.00    -0.344 OA
ATOM     15  H1  UNL     1      11.741   4.061  25.081  1.00  0.00     0.219 HD
ENDBRANCH   2  14
ENDBRANCH   1   2
BRANCH   1  16
HETATM   16  N6  UNL     1      11.411   7.173  27.452  1.00  0.00    -0.316 N 
HETATM   17  C4  UNL     1      12.683   7.877  27.480  1.00  0.00     0.290 C 
HETATM   18  O2  UNL     1      13.493   7.605  26.573  1.00  0.00    -0.264 OA
ATOM     19  H6  UNL     1      10.772   7.334  28.231  1.00  0.00     0.169 HD
BRANCH  17  20
HETATM   20  C5  UNL     1      12.946   8.850  28.528  1.00  0.00     0.182 A 
HETATM   21  N7  UNL     1      13.912   8.604  29.426  1.00  0.00    -0.290 N 
HETATM   22  C6  UNL     1      14.313   9.513  30.329  1.00  0.00     0.329 A 
ATOM     23  H7  UNL     1      14.361   7.688  29.423  1.00  0.00     0.172 HD
HETATM   24  O3  UNL     1      15.230   9.279  31.177  1.00  0.00    -0.246 OA
HETATM   25  N8  UNL     1      13.687  10.720  30.307  1.00  0.00    -0.260 N 
HETATM   26  C7  UNL     1      12.726  10.995  29.431  1.00  0.00     0.329 A 
ATOM     27  H8  UNL     1      13.961  11.435  30.982  1.00  0.00     0.175 HD
HETATM   28  O4  UNL     1      12.209  12.147  29.482  1.00  0.00    -0.246 OA
HETATM   29  N9  UNL     1      12.350  10.068  28.542  1.00  0.00    -0.290 N 
ATOM     30  H9  UNL     1      11.610  10.279  27.872  1.00  0.00     0.172 HD
ENDBRANCH  17  20
ENDBRANCH   1  16
BRANCH   1  31
HETATM   31  C8  UNL     1       9.638   5.878  27.491  1.00  0.00     0.309 C 
BRANCH  31  32
HETATM   32  O5  UNL     1      10.263   5.095  28.447  1.00  0.00    -0.366 OA
ATOM     33  H5  UNL     1       9.782   5.345  29.226  1.00  0.00     0.213 HD
ENDBRANCH  31  32
BRANCH  31  34
HETATM   34  O6  UNL     1       9.230   7.094  27.860  1.00  0.00    -0.366 OA
ATOM     35  H6  UNL     1       8.878   7.400  27.032  1.00  0.00     0.213 HD
ENDBRANCH  31  34
ENDBRANCH   1  31
TORSDOF 10
ENDMDL
MODEL 2
REMARK VINA RESULT: -7.938379580      2.738      4.587
REMARK  10 active torsions:
REMARK  status: ('A' for Active; 'I' for Inactive)
REMARK    1  A    between atoms: N1_1  and  N2_4 
REMARK    2  A    between atoms: N2_4  and  N3_6 
REMARK       I    between atoms: C1_8  and  N5_10 
REMARK    3  A    between atoms: N5_10  and  C2_12 
REMARK    4  A    between atoms: C2_12  and  O1_13 
REMARK    5  A    between atoms: C2_12  and  C3_15 
REMARK    6  A    between atoms: C3_15  and  N6_16 
REMARK    7  A    between atoms: C3_15  and  C8_31 
REMARK       I    between atoms: N6_16  and  C4_18 
REMARK    8  A    between atoms: C4_18  and  C5_20 
REMARK    9  A    between atoms: C8_31  and  O5_32 
REMARK   10  A    between atoms: C8_31  and  O6_34 
ROOT
HETATM    1  C3  UNL     1       8.968   5.981  23.422  1.00  0.00     0.118 C 
ENDROOT
BRANCH   1   2
HETATM    2  C2  UNL     1       8.337   5.904  22.198  1.00  0.00     0.170 C 
BRANCH   2   3
HETATM    3  N5  UNL     1       7.101   5.243  21.848  1.00  0.00    -0.308 N 
HETATM    4  C1  UNL     1       7.064   4.013  21.151  1.00  0.00     0.210 C 
HETATM    5  N3  UNL     1       6.019   3.376  20.861  1.00  0.00    -0.259 N 
HETATM    6  N4  UNL     1       8.302   3.420  20.606  1.00  0.00    -0.062 NA
ATOM      7  H3  UNL     1       6.216   2.556  20.288  1.00  0.00     0.191 HD
ATOM      8  H5  UNL     1       6.220   5.681  22.114  1.00  0.00     0.170 HD
BRANCH   5   9
HETATM    9  N2  UNL     1       4.704   3.509  21.121  1.00  0.00    -0.247 N 
ATOM     10  H2  UNL     1       4.155   4.234  20.660  1.00  0.00     0.207 HD
BRANCH   9  11
HETATM   11  N1  UNL     1       4.146   2.698  21.969  1.00  0.00    -0.331 N 
ATOM     12  H12 UNL     1       3.609   1.901  21.625  1.00  0.00     0.178 HD
ATOM     13  H11 UNL     1       4.255   2.876  22.967  1.00  0.00     0.178 HD
ENDBRANCH   9  11
ENDBRANCH   5   9
ENDBRANCH   2   3
BRANCH   2  14
HETATM   14  O1  UNL     1       8.839   6.469  21.109  1.00  0.00    -0.344 OA
ATOM     15  H1  UNL     1       9.209   7.312  21.346  1.00  0.00     0.219 HD
ENDBRANCH   2  14
ENDBRANCH   1   2
BRANCH   1  16
HETATM   16  N6  UNL     1       9.588   6.051  24.621  1.00  0.00    -0.316 N 
HETATM   17  C4  UNL     1       9.047   6.676  25.818  1.00  0.00     0.290 C 
HETATM   18  O2  UNL     1       7.957   7.267  25.697  1.00  0.00    -0.264 OA
ATOM     19  H6  UNL     1      10.514   5.630  24.694  1.00  0.00     0.169 HD
BRANCH  17  20
HETATM   20  C5  UNL     1       9.773   6.580  27.074  1.00  0.00     0.182 A 
HETATM   21  N7  UNL     1      10.224   5.385  27.483  1.00  0.00    -0.290 N 
HETATM   22  C6  UNL     1      11.026   5.238  28.551  1.00  0.00     0.329 A 
ATOM     23  H7  UNL     1       9.946   4.553  26.963  1.00  0.00     0.172 HD
HETATM   24  O3  UNL     1      11.454   4.105  28.935  1.00  0.00    -0.246 OA
HETATM   25  N8  UNL     1      11.369   6.369  29.224  1.00  0.00    -0.260 N 
HETATM   26  C7  UNL     1      10.939   7.567  28.843  1.00  0.00     0.329 A 
ATOM     27  H8  UNL     1      11.973   6.295  30.042  1.00  0.00     0.175 HD
HETATM   28  O4  UNL     1      11.318   8.561  29.527  1.00  0.00    -0.246 OA
HETATM   29  N9  UNL     1      10.142   7.682  27.775  1.00  0.00    -0.290 N 
ATOM     30  H9  UNL     1       9.809   8.602  27.486  1.00  0.00     0.172 HD
ENDBRANCH  17  20
ENDBRANCH   1  16
BRANCH   1  31
HETATM   31  C8  UNL     1      10.298   5.003  22.828  1.00  0.00     0.309 C 
BRANCH  31  32
HETATM   32  O5  UNL     1      11.340   5.912  22.891  1.00  0.00    -0.366 OA
ATOM     33  H5  UNL     1      12.085   5.342  22.742  1.00  0.00     0.213 HD
ENDBRANCH  31  32
BRANCH  31  34
HETATM   34  O6  UNL     1      10.275   4.024  23.736  1.00  0.00    -0.366 OA
ATOM     35  H6  UNL     1      10.841   3.396  23.303  1.00  0.00     0.213 HD
ENDBRANCH  31  34
ENDBRANCH   1  31
TORSDOF 10
ENDMDL
MODEL 3
REMARK VINA RESULT: -7.900720747      4.840      6.452
REMARK  10 active torsions:
REMARK  status: ('A' for Active; 'I' for Inactive)
REMARK    1  A    between atoms: N1_1  and  N2_4 
REMARK    2  A    between atoms: N2_4  and  N3_6 
REMARK       I    between atoms: C1_8  and  N5_10 
REMARK    3  A    between atoms: N5_10  and  C2_12 
REMARK    4  A    between atoms: C2_12  and  O1_13 
REMARK    5  A    between atoms: C2_12  and  C3_15 
REMARK    6  A    between atoms: C3_15  and  N6_16 
REMARK    7  A    between atoms: C3_15  and  C8_31 
REMARK       I    between atoms: N6_16  and  C4_18 
REMARK    8  A    between atoms: C4_18  and  C5_20 
REMARK    9  A    between atoms: C8_31  and  O5_32 
REMARK   10  A    between atoms: C8_31  and  O6_34 
ROOT
HETATM    1  C3  UNL     1      16.227   8.937  24.776  1.00  0.00     0.118 C 
ENDROOT
BRANCH   1   2
HETATM    2  C2  UNL     1      16.586   8.368  23.572  1.00  0.00     0.170 C 
BRANCH   2   3
HETATM    3  N5  UNL     1      16.385   8.868  22.232  1.00  0.00    -0.308 N 
HETATM    4  C1  UNL     1      15.104   8.987  21.645  1.00  0.00     0.210 C 
HETATM    5  N3  UNL     1      14.871   9.455  20.501  1.00  0.00    -0.259 N 
HETATM    6  N4  UNL     1      13.910   8.451  22.330  1.00  0.00    -0.062 NA
ATOM      7  H3  UNL     1      13.888   9.373  20.246  1.00  0.00     0.191 HD
ATOM      8  H5  UNL     1      17.200   9.147  21.686  1.00  0.00     0.170 HD
BRANCH   5   9
HETATM    9  N2  UNL     1      15.601  10.038  19.529  1.00  0.00    -0.247 N 
ATOM     10  H2  UNL     1      16.170  10.860  19.731  1.00  0.00     0.207 HD
BRANCH   9  11
HETATM   11  N1  UNL     1      15.567   9.536  18.332  1.00  0.00    -0.331 N 
ATOM     12  H12 UNL     1      14.739   9.027  18.022  1.00  0.00     0.178 HD
ATOM     13  H11 UNL     1      16.374   9.662  17.722  1.00  0.00     0.178 HD
ENDBRANCH   9  11
ENDBRANCH   5   9
ENDBRANCH   2   3
BRANCH   2  14
HETATM   14  O1  UNL     1      17.200   7.196  23.500  1.00  0.00    -0.344 OA
ATOM     15  H1  UNL     1      17.127   6.762  24.342  1.00  0.00     0.219 HD
ENDBRANCH   2  14
ENDBRANCH   1   2
BRANCH   1  16
HETATM   16  N6  UNL     1      15.879   9.496  25.958  1.00  0.00    -0.316 N 
HETATM   17  C4  UNL     1      14.631   9.265  26.667  1.00  0.00     0.290 C 
HETATM   18  O2  UNL     1      13.782   8.558  26.092  1.00  0.00    -0.264 OA
ATOM     19  H6  UNL     1      16.550  10.133  26.388  1.00  0.00     0.169 HD
BRANCH  17  20
HETATM   20  C5  UNL     1      14.434   9.843  27.987  1.00  0.00     0.182 A 
HETATM   21  N7  UNL     1      13.521  10.812  28.151  1.00  0.00    -0.290 N 
HETATM   22  C6  UNL     1      13.178  11.291  29.358  1.00  0.00     0.329 A 
ATOM     23  H7  UNL     1      13.068  11.202  27.324  1.00  0.00     0.172 HD
HETATM   24  O3  UNL     1      12.311  12.207  29.511  1.00  0.00    -0.246 OA
HETATM   25  N8  UNL     1      13.809  10.752  30.436  1.00  0.00    -0.260 N 
HETATM   26  C7  UNL     1      14.718   9.792  30.306  1.00  0.00     0.329 A 
ATOM     27  H8  UNL     1      13.578  11.094  31.368  1.00  0.00     0.175 HD
HETATM   28  O4  UNL     1      15.244   9.348  31.367  1.00  0.00    -0.246 OA
HETATM   29  N9  UNL     1      15.038   9.335  29.090  1.00  0.00    -0.290 N 
ATOM     30  H9  UNL     1      15.739   8.600  28.992  1.00  0.00     0.172 HD
ENDBRANCH  17  20
ENDBRANCH   1  16
BRANCH   1  31
HETATM   31  C8  UNL     1      17.395  10.225  24.547  1.00  0.00     0.309 C 
BRANCH  31  32
HETATM   32  O5  UNL     1      16.564  11.333  24.530  1.00  0.00    -0.366 OA
ATOM     33  H5  UNL     1      17.106  11.971  24.979  1.00  0.00     0.213 HD
ENDBRANCH  31  32
BRANCH  31  34
HETATM   34  O6  UNL     1      18.149  10.036  25.632  1.00  0.00    -0.366 OA
ATOM     35  H6  UNL     1      18.636   9.269  25.354  1.00  0.00     0.213 HD
ENDBRANCH  31  34
ENDBRANCH   1  31
TORSDOF 10
ENDMDL
MODEL 4
REMARK VINA RESULT: -7.786700169      5.514      8.501
REMARK  10 active torsions:
REMARK  status: ('A' for Active; 'I' for Inactive)
REMARK    1  A    between atoms: N1_1  and  N2_4 
REMARK    2  A    between atoms: N2_4  and  N3_6 
REMARK       I    between atoms: C1_8  and  N5_10 
REMARK    3  A    between atoms: N5_10  and  C2_12 
REMARK    4  A    between atoms: C2_12  and  O1_13 
REMARK    5  A    between atoms: C2_12  and  C3_15 
REMARK    6  A    between atoms: C3_15  and  N6_16 
REMARK    7  A    between atoms: C3_15  and  C8_31 
REMARK       I    between atoms: N6_16  and  C4_18 
REMARK    8  A    between atoms: C4_18  and  C5_20 
REMARK    9  A    between atoms: C8_31  and  O5_32 
REMARK   10  A    between atoms: C8_31  and  O6_34 
ROOT
HETATM    1  C3  UNL     1      15.929  10.296  26.489  1.00  0.00     0.118 C 
ENDROOT
BRANCH   1   2
HETATM    2  C2  UNL     1      15.583  10.483  27.811  1.00  0.00     0.170 C 
BRANCH   2   3
HETATM    3  N5  UNL     1      14.525   9.862  28.573  1.00  0.00    -0.308 N 
HETATM    4  C1  UNL     1      13.467  10.599  29.154  1.00  0.00     0.210 C 
HETATM    5  N3  UNL     1      12.501  10.104  29.788  1.00  0.00    -0.259 N 
HETATM    6  N4  UNL     1      13.483  12.076  29.136  1.00  0.00    -0.062 NA
ATOM      7  H3  UNL     1      11.897  10.821  30.189  1.00  0.00     0.191 HD
ATOM      8  H5  UNL     1      14.541   8.850  28.699  1.00  0.00     0.170 HD
BRANCH   5   9
HETATM    9  N2  UNL     1      12.067   8.860  30.070  1.00  0.00    -0.247 N 
ATOM     10  H2  UNL     1      12.238   8.446  30.986  1.00  0.00     0.207 HD
BRANCH   9  11
HETATM   11  N1  UNL     1      11.426   8.196  29.155  1.00  0.00    -0.331 N 
ATOM     12  H12 UNL     1      10.975   8.699  28.391  1.00  0.00     0.178 HD
ATOM     13  H11 UNL     1      11.388   7.179  29.220  1.00  0.00     0.178 HD
ENDBRANCH   9  11
ENDBRANCH   5   9
ENDBRANCH   2   3
BRANCH   2  14
HETATM   14  O1  UNL     1      16.231  11.332  28.597  1.00  0.00    -0.344 OA
ATOM     15  H1  UNL     1      16.787  11.882  28.057  1.00  0.00     0.219 HD
ENDBRANCH   2  14
ENDBRANCH   1   2
BRANCH   1  16
HETATM   16  N6  UNL     1      16.264  10.114  25.192  1.00  0.00    -0.316 N 
HETATM   17  C4  UNL     1      16.453   8.828  24.539  1.00  0.00     0.290 C 
HETATM   18  O2  UNL     1      16.382   7.817  25.262  1.00  0.00    -0.264 OA
ATOM     19  H6  UNL     1      16.395  10.950  24.622  1.00  0.00     0.169 HD
BRANCH  17  20
HETATM   20  C5  UNL     1      16.702   8.776  23.107  1.00  0.00     0.182 A 
HETATM   21  N7  UNL     1      17.195   7.651  22.566  1.00  0.00    -0.290 N 
HETATM   22  C6  UNL     1      17.313   7.474  21.240  1.00  0.00     0.329 A 
ATOM     23  H7  UNL     1      17.493   6.900  23.187  1.00  0.00     0.172 HD
HETATM   24  O3  UNL     1      17.777   6.408  20.729  1.00  0.00    -0.246 OA
HETATM   25  N8  UNL     1      16.911   8.501  20.443  1.00  0.00    -0.260 N 
HETATM   26  C7  UNL     1      16.419   9.627  20.949  1.00  0.00     0.329 A 
ATOM     27  H8  UNL     1      16.990   8.404  19.431  1.00  0.00     0.175 HD
HETATM   28  O4  UNL     1      16.065  10.522  20.129  1.00  0.00    -0.246 OA
HETATM   29  N9  UNL     1      16.314   9.774  22.275  1.00  0.00    -0.290 N 
ATOM     30  H9  UNL     1      15.939  10.640  22.661  1.00  0.00     0.172 HD
ENDBRANCH  17  20
ENDBRANCH   1  16
BRANCH   1  31
HETATM   31  C8  UNL     1      15.010  11.714  26.020  1.00  0.00     0.309 C 
BRANCH  31  32
HETATM   32  O5  UNL     1      15.885  12.310  25.127  1.00  0.00    -0.366 OA
ATOM     33  H5  UNL     1      15.624  13.220  25.199  1.00  0.00     0.213 HD
ENDBRANCH  31  32
BRANCH  31  34
HETATM   34  O6  UNL     1      13.926  11.120  25.518  1.00  0.00    -0.366 OA
ATOM     35  H6  UNL     1      13.803  11.648  24.739  1.00  0.00     0.213 HD
ENDBRANCH  31  34
ENDBRANCH   1  31
TORSDOF 10
ENDMDL
MODEL 5
REMARK VINA RESULT: -7.745011516      5.089      6.008
REMARK  10 active torsions:
REMARK  status: ('A' for Active; 'I' for Inactive)
REMARK    1  A    between atoms: N1_1  and  N2_4 
REMARK    2  A    between atoms: N2_4  and  N3_6 
REMARK       I    between atoms: C1_8  and  N5_10 
REMARK    3  A    between atoms: N5_10  and  C2_12 
REMARK    4  A    between atoms: C2_12  and  O1_13 
REMARK    5  A    between atoms: C2_12  and  C3_15 
REMARK    6  A    between atoms: C3_15  and  N6_16 
REMARK    7  A    between atoms: C3_15  and  C8_31 
REMARK       I    between atoms: N6_16  and  C4_18 
REMARK    8  A    between atoms: C4_18  and  C5_20 
REMARK    9  A    between atoms: C8_31  and  O5_32 
REMARK   10  A    between atoms: C8_31  and  O6_34 
ROOT
HETATM    1  C3  UNL     1       9.492   5.116  24.632  1.00  0.00     0.118 C 
ENDROOT
BRANCH   1   2
HETATM    2  C2  UNL     1       8.872   5.849  23.643  1.00  0.00     0.170 C 
BRANCH   2   3
HETATM    3  N5  UNL     1       7.762   5.481  22.794  1.00  0.00    -0.308 N 
HETATM    4  C1  UNL     1       7.840   5.503  21.382  1.00  0.00     0.210 C 
HETATM    5  N3  UNL     1       6.920   5.152  20.600  1.00  0.00    -0.259 N 
HETATM    6  N4  UNL     1       9.027   6.061  20.704  1.00  0.00    -0.062 NA
ATOM      7  H3  UNL     1       7.160   5.324  19.624  1.00  0.00     0.191 HD
ATOM      8  H5  UNL     1       6.886   5.193  23.230  1.00  0.00     0.170 HD
BRANCH   5   9
HETATM    9  N2  UNL     1       5.697   4.604  20.733  1.00  0.00    -0.247 N 
ATOM     10  H2  UNL     1       4.858   5.158  20.557  1.00  0.00     0.207 HD
BRANCH   9  11
HETATM   11  N1  UNL     1       5.601   3.358  21.088  1.00  0.00    -0.331 N 
ATOM     12  H12 UNL     1       4.909   2.758  20.640  1.00  0.00     0.178 HD
ATOM     13  H11 UNL     1       6.224   3.003  21.813  1.00  0.00     0.178 HD
ENDBRANCH   9  11
ENDBRANCH   5   9
ENDBRANCH   2   3
BRANCH   2  14
HETATM   14  O1  UNL     1       9.261   7.076  23.324  1.00  0.00    -0.344 OA
ATOM     15  H1  UNL     1      10.209   7.090  23.273  1.00  0.00     0.219 HD
ENDBRANCH   2  14
ENDBRANCH   1   2
BRANCH   1  16
HETATM   16  N6  UNL     1      10.097   4.399  25.606  1.00  0.00    -0.316 N 
HETATM   17  C4  UNL     1      11.003   3.281  25.394  1.00  0.00     0.290 C 
HETATM   18  O2  UNL     1      11.164   2.906  24.217  1.00  0.00    -0.264 OA
ATOM     19  H6  UNL     1       9.902   4.664  26.571  1.00  0.00     0.169 HD
BRANCH  17  20
HETATM   20  C5  UNL     1      11.674   2.670  26.530  1.00  0.00     0.182 A 
HETATM   21  N7  UNL     1      11.058   2.646  27.722  1.00  0.00    -0.290 N 
HETATM   22  C6  UNL     1      11.545   1.974  28.778  1.00  0.00     0.329 A 
ATOM     23  H7  UNL     1      10.183   3.159  27.831  1.00  0.00     0.172 HD
HETATM   24  O3  UNL     1      10.959   1.950  29.905  1.00  0.00    -0.246 OA
HETATM   25  N8  UNL     1      12.717   1.308  28.597  1.00  0.00    -0.260 N 
HETATM   26  C7  UNL     1      13.351   1.313  27.429  1.00  0.00     0.329 A 
ATOM     27  H8  UNL     1      13.120   0.790  29.378  1.00  0.00     0.175 HD
HETATM   28  O4  UNL     1      14.430   0.658  27.354  1.00  0.00    -0.246 OA
HETATM   29  N9  UNL     1      12.840   1.991  26.395  1.00  0.00    -0.290 N 
ATOM     30  H9  UNL     1      13.330   1.997  25.500  1.00  0.00     0.172 HD
ENDBRANCH  17  20
ENDBRANCH   1  16
BRANCH   1  31
HETATM   31  C8  UNL     1       7.996   5.030  25.544  1.00  0.00     0.309 C 
BRANCH  31  32
HETATM   32  O5  UNL     1       7.585   3.740  25.253  1.00  0.00    -0.366 OA
ATOM     33  H5  UNL     1       7.789   3.691  24.327  1.00  0.00     0.213 HD
ENDBRANCH  31  32
BRANCH  31  34
HETATM   34  O6  UNL     1       8.469   5.266  26.769  1.00  0.00    -0.366 OA
ATOM     35  H6  UNL     1       7.661   5.204  27.264  1.00  0.00     0.213 HD
ENDBRANCH  31  34
ENDBRANCH   1  31
TORSDOF 10
ENDMDL
