MODEL 1
REMARK VINA RESULT: -7.441971446      0.000      0.000
REMARK  10 active torsions:
REMARK  status: ('A' for Active; 'I' for Inactive)
REMARK    1  A    between atoms: N1_1  and  C1_5 
REMARK    2  A    between atoms: C1_5  and  C2_6 
REMARK    3  A    between atoms: C2_6  and  N2_7 
REMARK    4  A    between atoms: N2_7  and  C3_9 
REMARK    5  A    between atoms: C4_12  and  N4_13 
REMARK    6  A    between atoms: N4_13  and  C5_15 
REMARK    7  A    between atoms: C5_15  and  N5_16 
REMARK    8  A    between atoms: C5_15  and  O1_20 
REMARK    9  A    between atoms: C8_31  and  N9_32 
REMARK       I    between atoms: N9_32  and  C9_34 
REMARK       I    between atoms: C9_34  and  N10_36 
REMARK   10  A    between atoms: N10_36  and  N11_38 
ROOT
HETATM    1  C3  UNL     1      15.765  11.113  25.708  1.00  0.00     0.134 A 
HETATM    2  N3  UNL     1      15.273  11.422  26.915  1.00  0.00    -0.176 N 
ATOM      3  H3  UNL     1      15.188  12.405  27.171  1.00  0.00     0.186 HD
HETATM    4  C4  UNL     1      14.884  10.481  27.812  1.00  0.00     0.684 A 
HETATM    5  N6  UNL     1      15.012   9.196  27.439  1.00  0.00    -0.175 N 
ATOM      6  H6  UNL     1      14.726   8.472  28.098  1.00  0.00     0.186 HD
HETATM    7  C6  UNL     1      15.494   8.817  26.252  1.00  0.00     0.142 A 
HETATM    8  N7  UNL     1      15.615   7.514  25.894  1.00  0.00    -0.293 N 
ATOM      9  H7  UNL     1      15.326   6.797  26.559  1.00  0.00     0.172 HD
HETATM   10  C7  UNL     1      16.099   7.128  24.702  1.00  0.00     0.327 A 
HETATM   11  O2  UNL     1      16.218   5.925  24.356  1.00  0.00    -0.247 OA
HETATM   12  N8  UNL     1      16.482   8.067  23.820  1.00  0.00    -0.293 N 
ATOM     13  H8  UNL     1      16.852   7.787  22.912  1.00  0.00     0.172 HD
HETATM   14  C8  UNL     1      16.382   9.382  24.128  1.00  0.00     0.131 A 
HETATM   15  C10 UNL     1      15.884   9.765  25.352  1.00  0.00     0.097 A 
ENDROOT
BRANCH   4  16
HETATM   16  N4  UNL     1      14.426  10.868  28.943  1.00  0.00    -0.174 N 
ATOM     17  H4  UNL     1      15.083  11.301  29.591  1.00  0.00     0.182 HD
BRANCH  16  18
HETATM   18  C5  UNL     1      13.069  10.744  29.370  1.00  0.00     0.438 C 
BRANCH  18  19
HETATM   19  N5  UNL     1      12.368  12.006  29.468  1.00  0.00    -0.034 N 
ATOM     20  H53 UNL     1      12.654  12.511  30.307  1.00  0.00     0.279 HD
ATOM     21  H52 UNL     1      12.698  12.657  28.755  1.00  0.00     0.279 HD
ATOM     22  H51 UNL     1      11.353  11.918  29.430  1.00  0.00     0.279 HD
ENDBRANCH  18  19
BRANCH  18  23
HETATM   23  O1  UNL     1      12.364   9.834  28.572  1.00  0.00    -0.354 OA
ATOM     24  H1  UNL     1      11.697  10.270  28.055  1.00  0.00     0.213 HD
ENDBRANCH  18  23
ENDBRANCH  16  18
ENDBRANCH   4  16
BRANCH   1  25
HETATM   25  N2  UNL     1      16.149  11.952  24.818  1.00  0.00    -0.373 N 
ATOM     26  H2  UNL     1      16.558  11.561  23.969  1.00  0.00     0.161 HD
BRANCH  25  27
HETATM   27  C2  UNL     1      16.066  13.378  24.886  1.00  0.00     0.148 C 
BRANCH  27  28
HETATM   28  C1  UNL     1      17.143  14.080  24.084  1.00  0.00     0.249 C 
BRANCH  28  29
HETATM   29  N1  UNL     1      17.833  15.096  24.822  1.00  0.00    -0.078 N 
ATOM     30  H13 UNL     1      17.873  15.966  24.290  1.00  0.00     0.274 HD
ATOM     31  H12 UNL     1      17.275  15.408  25.616  1.00  0.00     0.274 HD
ATOM     32  H11 UNL     1      18.767  14.816  25.124  1.00  0.00     0.274 HD
ENDBRANCH  28  29
ENDBRANCH  27  28
ENDBRANCH  25  27
ENDBRANCH   1  25
BRANCH  14  33
HETATM   33  N9  UNL     1      16.744  10.292  23.293  1.00  0.00    -0.292 N 
HETATM   34  C9  UNL     1      16.900   9.944  21.927  1.00  0.00     0.340 C 
HETATM   35  O3  UNL     1      17.931   9.277  21.607  1.00  0.00    -0.245 OA
HETATM   36  N10 UNL     1      15.950  10.319  20.954  1.00  0.00    -0.258 N 
ATOM     37  H10 UNL     1      15.136  10.855  21.255  1.00  0.00     0.191 HD
ATOM     38  H9  UNL     1      16.916  11.247  23.609  1.00  0.00     0.172 HD
BRANCH  36  39
HETATM   39  N11 UNL     1      16.065   9.996  19.601  1.00  0.00    -0.341 N 
ATOM     40 2H11 UNL     1      16.602   9.162  19.365  1.00  0.00     0.177 HD
ATOM     41 1H11 UNL     1      15.644  10.548  18.853  1.00  0.00     0.177 HD
ENDBRANCH  36  39
ENDBRANCH  14  33
TORSDOF 10
ENDMDL
MODEL 2
REMARK VINA RESULT: -7.275029452      8.103     10.674
REMARK  10 active torsions:
REMARK  status: ('A' for Active; 'I' for Inactive)
REMARK    1  A    between atoms: N1_1  and  C1_5 
REMARK    2  A    between atoms: C1_5  and  C2_6 
REMARK    3  A    between atoms: C2_6  and  N2_7 
REMARK    4  A    between atoms: N2_7  and  C3_9 
REMARK    5  A    between atoms: C4_12  and  N4_13 
REMARK    6  A    between atoms: N4_13  and  C5_15 
REMARK    7  A    between atoms: C5_15  and  N5_16 
REMARK    8  A    between atoms: C5_15  and  O1_20 
REMARK    9  A    between atoms: C8_31  and  N9_32 
REMARK       I    between atoms: N9_32  and  C9_34 
REMARK       I    between atoms: C9_34  and  N10_36 
REMARK   10  A    between atoms: N10_36  and  N11_38 
ROOT
HETATM    1  C3  UNL     1      11.090   4.244  22.179  1.00  0.00     0.134 A 
HETATM    2  N3  UNL     1      11.911   3.771  21.233  1.00  0.00    -0.176 N 
ATOM      3  H3  UNL     1      12.753   3.274  21.521  1.00  0.00     0.186 HD
HETATM    4  C4  UNL     1      11.669   3.927  19.907  1.00  0.00     0.684 A 
HETATM    5  N6  UNL     1      10.550   4.588  19.566  1.00  0.00    -0.175 N 
ATOM      6  H6  UNL     1      10.348   4.717  18.574  1.00  0.00     0.186 HD
HETATM    7  C6  UNL     1       9.687   5.085  20.456  1.00  0.00     0.142 A 
HETATM    8  N7  UNL     1       8.562   5.750  20.093  1.00  0.00    -0.293 N 
ATOM      9  H7  UNL     1       8.369   5.873  19.099  1.00  0.00     0.172 HD
HETATM   10  C7  UNL     1       7.691   6.252  20.984  1.00  0.00     0.327 A 
HETATM   11  O2  UNL     1       6.645   6.870  20.662  1.00  0.00    -0.247 OA
HETATM   12  N8  UNL     1       7.939   6.093  22.296  1.00  0.00    -0.293 N 
ATOM     13  H8  UNL     1       7.286   6.469  22.983  1.00  0.00     0.172 HD
HETATM   14  C8  UNL     1       9.048   5.438  22.712  1.00  0.00     0.131 A 
HETATM   15  C10 UNL     1       9.932   4.927  21.789  1.00  0.00     0.097 A 
ENDROOT
BRANCH   4  16
HETATM   16  N4  UNL     1      12.511   3.442  19.072  1.00  0.00    -0.174 N 
ATOM     17  H4  UNL     1      12.137   2.918  18.281  1.00  0.00     0.182 HD
BRANCH  16  18
HETATM   18  C5  UNL     1      13.929   3.574  19.160  1.00  0.00     0.438 C 
BRANCH  18  19
HETATM   19  N5  UNL     1      14.389   4.946  19.197  1.00  0.00    -0.034 N 
ATOM     20  H53 UNL     1      13.615   5.578  19.406  1.00  0.00     0.279 HD
ATOM     21  H52 UNL     1      14.970   5.108  20.019  1.00  0.00     0.279 HD
ATOM     22  H51 UNL     1      14.875   5.242  18.350  1.00  0.00     0.279 HD
ENDBRANCH  18  19
BRANCH  18  23
HETATM   23  O1  UNL     1      14.446   2.838  20.234  1.00  0.00    -0.354 OA
ATOM     24  H1  UNL     1      15.372   2.662  20.119  1.00  0.00     0.213 HD
ENDBRANCH  18  23
ENDBRANCH  16  18
ENDBRANCH   4  16
BRANCH   1  25
HETATM   25  N2  UNL     1      11.260   4.130  23.445  1.00  0.00    -0.373 N 
ATOM     26  H2  UNL     1      10.918   4.900  24.021  1.00  0.00     0.161 HD
BRANCH  25  27
HETATM   27  C2  UNL     1      11.877   3.041  24.137  1.00  0.00     0.148 C 
BRANCH  27  28
HETATM   28  C1  UNL     1      11.569   3.021  25.620  1.00  0.00     0.249 C 
BRANCH  28  29
HETATM   29  N1  UNL     1      10.264   2.517  25.925  1.00  0.00    -0.078 N 
ATOM     30  H13 UNL     1       9.584   2.829  25.232  1.00  0.00     0.274 HD
ATOM     31  H12 UNL     1      10.220   1.510  25.766  1.00  0.00     0.274 HD
ATOM     32  H11 UNL     1       9.949   2.747  26.868  1.00  0.00     0.274 HD
ENDBRANCH  28  29
ENDBRANCH  27  28
ENDBRANCH  25  27
ENDBRANCH   1  25
BRANCH  14  33
HETATM   33  N9  UNL     1       9.298   5.277  23.965  1.00  0.00    -0.292 N 
HETATM   34  C9  UNL     1       8.371   5.776  24.916  1.00  0.00     0.340 C 
HETATM   35  O3  UNL     1       8.348   7.031  25.107  1.00  0.00    -0.245 OA
HETATM   36  N10 UNL     1       7.505   4.919  25.625  1.00  0.00    -0.258 N 
ATOM     37  H10 UNL     1       7.557   3.918  25.440  1.00  0.00     0.191 HD
ATOM     38  H9  UNL     1      10.147   4.800  24.267  1.00  0.00     0.172 HD
BRANCH  36  39
HETATM   39  N11 UNL     1       6.578   5.369  26.568  1.00  0.00    -0.341 N 
ATOM     40 2H11 UNL     1       6.659   6.338  26.875  1.00  0.00     0.177 HD
ATOM     41 1H11 UNL     1       5.839   4.783  26.955  1.00  0.00     0.177 HD
ENDBRANCH  36  39
ENDBRANCH  14  33
TORSDOF 10
ENDMDL
MODEL 3
REMARK VINA RESULT: -7.272569982      7.908      9.592
REMARK  10 active torsions:
REMARK  status: ('A' for Active; 'I' for Inactive)
REMARK    1  A    between atoms: N1_1  and  C1_5 
REMARK    2  A    between atoms: C1_5  and  C2_6 
REMARK    3  A    between atoms: C2_6  and  N2_7 
REMARK    4  A    between atoms: N2_7  and  C3_9 
REMARK    5  A    between atoms: C4_12  and  N4_13 
REMARK    6  A    between atoms: N4_13  and  C5_15 
REMARK    7  A    between atoms: C5_15  and  N5_16 
REMARK    8  A    between atoms: C5_15  and  O1_20 
REMARK    9  A    between atoms: C8_31  and  N9_32 
REMARK       I    between atoms: N9_32  and  C9_34 
REMARK       I    between atoms: C9_34  and  N10_36 
REMARK   10  A    between atoms: N10_36  and  N11_38 
ROOT
HETATM    1  C3  UNL     1       9.121   5.775  22.476  1.00  0.00     0.134 A 
HETATM    2  N3  UNL     1       7.841   5.498  22.198  1.00  0.00    -0.176 N 
ATOM      3  H3  UNL     1       7.117   5.867  22.814  1.00  0.00     0.186 HD
HETATM    4  C4  UNL     1       7.466   4.746  21.132  1.00  0.00     0.684 A 
HETATM    5  N6  UNL     1       8.449   4.277  20.345  1.00  0.00    -0.175 N 
ATOM      6  H6  UNL     1       8.190   3.709  19.537  1.00  0.00     0.186 HD
HETATM    7  C6  UNL     1       9.745   4.514  20.561  1.00  0.00     0.142 A 
HETATM    8  N7  UNL     1      10.722   4.031  19.754  1.00  0.00    -0.293 N 
ATOM      9  H7  UNL     1      10.454   3.465  18.949  1.00  0.00     0.172 HD
HETATM   10  C7  UNL     1      12.028   4.267  19.968  1.00  0.00     0.327 A 
HETATM   11  O2  UNL     1      12.944   3.826  19.229  1.00  0.00    -0.247 OA
HETATM   12  N8  UNL     1      12.389   5.012  21.027  1.00  0.00    -0.293 N 
ATOM     13  H8  UNL     1      13.377   5.198  21.201  1.00  0.00     0.172 HD
HETATM   14  C8  UNL     1      11.453   5.518  21.864  1.00  0.00     0.131 A 
HETATM   15  C10 UNL     1      10.119   5.270  21.634  1.00  0.00     0.097 A 
ENDROOT
BRANCH   4  16
HETATM   16  N4  UNL     1       6.218   4.533  20.945  1.00  0.00    -0.174 N 
ATOM     17  H4  UNL     1       5.655   5.312  20.604  1.00  0.00     0.182 HD
BRANCH  16  18
HETATM   18  C5  UNL     1       5.549   3.293  21.174  1.00  0.00     0.438 C 
BRANCH  18  19
HETATM   19  N5  UNL     1       4.124   3.341  20.930  1.00  0.00    -0.034 N 
ATOM     20  H53 UNL     1       3.663   3.946  21.611  1.00  0.00     0.279 HD
ATOM     21  H52 UNL     1       3.924   3.862  20.075  1.00  0.00     0.279 HD
ATOM     22  H51 UNL     1       3.678   2.425  20.903  1.00  0.00     0.279 HD
ENDBRANCH  18  19
BRANCH  18  23
HETATM   23  O1  UNL     1       6.150   2.248  20.460  1.00  0.00    -0.354 OA
ATOM     24  H1  UNL     1       6.416   1.542  21.037  1.00  0.00     0.213 HD
ENDBRANCH  18  23
ENDBRANCH  16  18
ENDBRANCH   4  16
BRANCH   1  25
HETATM   25  N2  UNL     1       9.540   6.477  23.464  1.00  0.00    -0.373 N 
ATOM     26  H2  UNL     1      10.497   6.823  23.403  1.00  0.00     0.161 HD
BRANCH  25  27
HETATM   27  C2  UNL     1       8.810   6.826  24.643  1.00  0.00     0.148 C 
BRANCH  27  28
HETATM   28  C1  UNL     1       8.736   5.703  25.657  1.00  0.00     0.249 C 
BRANCH  28  29
HETATM   29  N1  UNL     1       7.397   5.298  25.965  1.00  0.00    -0.078 N 
ATOM     30  H13 UNL     1       7.048   5.796  26.785  1.00  0.00     0.274 HD
ATOM     31  H12 UNL     1       6.744   5.648  25.264  1.00  0.00     0.274 HD
ATOM     32  H11 UNL     1       7.293   4.290  26.085  1.00  0.00     0.274 HD
ENDBRANCH  28  29
ENDBRANCH  27  28
ENDBRANCH  25  27
ENDBRANCH   1  25
BRANCH  14  33
HETATM   33  N9  UNL     1      11.784   6.234  22.882  1.00  0.00    -0.292 N 
HETATM   34  C9  UNL     1      13.040   6.894  22.872  1.00  0.00     0.340 C 
HETATM   35  O3  UNL     1      14.074   6.185  23.067  1.00  0.00    -0.245 OA
HETATM   36  N10 UNL     1      13.143   8.284  22.657  1.00  0.00    -0.258 N 
ATOM     37  H10 UNL     1      12.286   8.815  22.505  1.00  0.00     0.191 HD
ATOM     38  H9  UNL     1      11.155   6.324  23.679  1.00  0.00     0.172 HD
BRANCH  36  39
HETATM   39  N11 UNL     1      14.359   8.971  22.640  1.00  0.00    -0.341 N 
ATOM     40 2H11 UNL     1      14.807   9.103  21.734  1.00  0.00     0.177 HD
ATOM     41 1H11 UNL     1      14.808   9.340  23.478  1.00  0.00     0.177 HD
ENDBRANCH  36  39
ENDBRANCH  14  33
TORSDOF 10
ENDMDL
MODEL 4
REMARK VINA RESULT: -6.961995734      2.500      5.960
REMARK  10 active torsions:
REMARK  status: ('A' for Active; 'I' for Inactive)
REMARK    1  A    between atoms: N1_1  and  C1_5 
REMARK    2  A    between atoms: C1_5  and  C2_6 
REMARK    3  A    between atoms: C2_6  and  N2_7 
REMARK    4  A    between atoms: N2_7  and  C3_9 
REMARK    5  A    between atoms: C4_12  and  N4_13 
REMARK    6  A    between atoms: N4_13  and  C5_15 
REMARK    7  A    between atoms: C5_15  and  N5_16 
REMARK    8  A    between atoms: C5_15  and  O1_20 
REMARK    9  A    between atoms: C8_31  and  N9_32 
REMARK       I    between atoms: N9_32  and  C9_34 
REMARK       I    between atoms: C9_34  and  N10_36 
REMARK   10  A    between atoms: N10_36  and  N11_38 
ROOT
HETATM    1  C3  UNL     1      15.282   9.560  24.926  1.00  0.00     0.134 A 
HETATM    2  N3  UNL     1      16.028  10.542  24.405  1.00  0.00    -0.176 N 
ATOM      3  H3  UNL     1      16.501  10.378  23.517  1.00  0.00     0.186 HD
HETATM    4  C4  UNL     1      16.182  11.747  25.010  1.00  0.00     0.684 A 
HETATM    5  N6  UNL     1      15.544  11.926  26.179  1.00  0.00    -0.175 N 
ATOM      6  H6  UNL     1      15.645  12.825  26.652  1.00  0.00     0.186 HD
HETATM    7  C6  UNL     1      14.783  10.991  26.755  1.00  0.00     0.142 A 
HETATM    8  N7  UNL     1      14.147  11.191  27.936  1.00  0.00    -0.293 N 
ATOM      9  H7  UNL     1      14.254  12.093  28.401  1.00  0.00     0.172 HD
HETATM   10  C7  UNL     1      13.381  10.254  28.519  1.00  0.00     0.327 A 
HETATM   11  O2  UNL     1      12.785  10.425  29.613  1.00  0.00    -0.247 OA
HETATM   12  N8  UNL     1      13.235   9.064  27.913  1.00  0.00    -0.293 N 
ATOM     13  H8  UNL     1      12.656   8.343  28.345  1.00  0.00     0.172 HD
HETATM   14  C8  UNL     1      13.849   8.812  26.733  1.00  0.00     0.131 A 
HETATM   15  C10 UNL     1      14.630   9.781  26.145  1.00  0.00     0.097 A 
ENDROOT
BRANCH   4  16
HETATM   16  N4  UNL     1      16.915  12.627  24.439  1.00  0.00    -0.174 N 
ATOM     17  H4  UNL     1      17.758  12.301  23.967  1.00  0.00     0.182 HD
BRANCH  16  18
HETATM   18  C5  UNL     1      16.650  14.030  24.409  1.00  0.00     0.438 C 
BRANCH  18  19
HETATM   19  N5  UNL     1      17.823  14.853  24.610  1.00  0.00    -0.034 N 
ATOM     20  H53 UNL     1      18.617  14.477  24.092  1.00  0.00     0.279 HD
ATOM     21  H52 UNL     1      17.717  15.750  24.135  1.00  0.00     0.279 HD
ATOM     22  H51 UNL     1      18.066  14.992  25.590  1.00  0.00     0.279 HD
ENDBRANCH  18  19
BRANCH  18  23
HETATM   23  O1  UNL     1      15.968  14.395  23.241  1.00  0.00    -0.354 OA
ATOM     24  H1  UNL     1      16.061  15.324  23.062  1.00  0.00     0.213 HD
ENDBRANCH  18  23
ENDBRANCH  16  18
ENDBRANCH   4  16
BRANCH   1  25
HETATM   25  N2  UNL     1      15.096   8.403  24.406  1.00  0.00    -0.373 N 
ATOM     26  H2  UNL     1      14.821   7.656  25.044  1.00  0.00     0.161 HD
BRANCH  25  27
HETATM   27  C2  UNL     1      15.234   8.046  23.028  1.00  0.00     0.148 C 
BRANCH  27  28
HETATM   28  C1  UNL     1      14.014   8.384  22.196  1.00  0.00     0.249 C 
BRANCH  28  29
HETATM   29  N1  UNL     1      14.309   9.192  21.051  1.00  0.00    -0.078 N 
ATOM     30  H13 UNL     1      13.478   9.317  20.472  1.00  0.00     0.274 HD
ATOM     31  H12 UNL     1      14.472  10.161  21.326  1.00  0.00     0.274 HD
ATOM     32  H11 UNL     1      15.087   8.839  20.493  1.00  0.00     0.274 HD
ENDBRANCH  28  29
ENDBRANCH  27  28
ENDBRANCH  25  27
ENDBRANCH   1  25
BRANCH  14  33
HETATM   33  N9  UNL     1      13.718   7.677  26.140  1.00  0.00    -0.292 N 
HETATM   34  C9  UNL     1      12.888   6.689  26.731  1.00  0.00     0.340 C 
HETATM   35  O3  UNL     1      13.342   6.078  27.747  1.00  0.00    -0.245 OA
HETATM   36  N10 UNL     1      11.609   6.392  26.218  1.00  0.00    -0.258 N 
ATOM     37  H10 UNL     1      11.285   6.908  25.400  1.00  0.00     0.191 HD
ATOM     38  H9  UNL     1      14.201   7.492  25.261  1.00  0.00     0.172 HD
BRANCH  36  39
HETATM   39  N11 UNL     1      10.763   5.429  26.770  1.00  0.00    -0.341 N 
ATOM     40 2H11 UNL     1      11.166   4.514  26.971  1.00  0.00     0.177 HD
ATOM     41 1H11 UNL     1       9.778   5.597  26.977  1.00  0.00     0.177 HD
ENDBRANCH  36  39
ENDBRANCH  14  33
TORSDOF 10
ENDMDL
MODEL 5
REMARK VINA RESULT: -6.897070215      8.295     10.106
REMARK  10 active torsions:
REMARK  status: ('A' for Active; 'I' for Inactive)
REMARK    1  A    between atoms: N1_1  and  C1_5 
REMARK    2  A    between atoms: C1_5  and  C2_6 
REMARK    3  A    between atoms: C2_6  and  N2_7 
REMARK    4  A    between atoms: N2_7  and  C3_9 
REMARK    5  A    between atoms: C4_12  and  N4_13 
REMARK    6  A    between atoms: N4_13  and  C5_15 
REMARK    7  A    between atoms: C5_15  and  N5_16 
REMARK    8  A    between atoms: C5_15  and  O1_20 
REMARK    9  A    between atoms: C8_31  and  N9_32 
REMARK       I    between atoms: N9_32  and  C9_34 
REMARK       I    between atoms: C9_34  and  N10_36 
REMARK   10  A    between atoms: N10_36  and  N11_38 
ROOT
HETATM    1  C3  UNL     1       9.265   4.714  22.826  1.00  0.00     0.134 A 
HETATM    2  N3  UNL     1       8.002   4.955  22.451  1.00  0.00    -0.176 N 
ATOM      3  H3  UNL     1       7.309   5.156  23.171  1.00  0.00     0.186 HD
HETATM    4  C4  UNL     1       7.607   4.945  21.152  1.00  0.00     0.684 A 
HETATM    5  N6  UNL     1       8.549   4.676  20.233  1.00  0.00    -0.175 N 
ATOM      6  H6  UNL     1       8.275   4.663  19.250  1.00  0.00     0.186 HD
HETATM    7  C6  UNL     1       9.826   4.426  20.536  1.00  0.00     0.142 A 
HETATM    8  N7  UNL     1      10.763   4.157  19.592  1.00  0.00    -0.293 N 
ATOM      9  H7  UNL     1      10.479   4.146  18.612  1.00  0.00     0.172 HD
HETATM   10  C7  UNL     1      12.048   3.905  19.891  1.00  0.00     0.327 A 
HETATM   11  O2  UNL     1      12.927   3.654  19.028  1.00  0.00    -0.247 OA
HETATM   12  N8  UNL     1      12.430   3.918  21.180  1.00  0.00    -0.293 N 
ATOM     13  H8  UNL     1      13.403   3.728  21.421  1.00  0.00     0.172 HD
HETATM   14  C8  UNL     1      11.535   4.180  22.161  1.00  0.00     0.131 A 
HETATM   15  C10 UNL     1      10.221   4.438  21.841  1.00  0.00     0.097 A 
ENDROOT
BRANCH   4  16
HETATM   16  N4  UNL     1       6.379   5.187  20.887  1.00  0.00    -0.174 N 
ATOM     17  H4  UNL     1       5.692   4.484  21.161  1.00  0.00     0.182 HD
BRANCH  16  18
HETATM   18  C5  UNL     1       5.891   6.362  20.239  1.00  0.00     0.438 C 
BRANCH  18  19
HETATM   19  N5  UNL     1       5.715   7.491  21.126  1.00  0.00    -0.034 N 
ATOM     20  H53 UNL     1       5.377   7.181  22.038  1.00  0.00     0.279 HD
ATOM     21  H52 UNL     1       6.619   7.877  21.400  1.00  0.00     0.279 HD
ATOM     22  H51 UNL     1       5.112   8.222  20.749  1.00  0.00     0.279 HD
ENDBRANCH  18  19
BRANCH  18  23
HETATM   23  O1  UNL     1       6.684   6.703  19.136  1.00  0.00    -0.354 OA
ATOM     24  H1  UNL     1       6.488   7.579  18.825  1.00  0.00     0.213 HD
ENDBRANCH  18  23
ENDBRANCH  16  18
ENDBRANCH   4  16
BRANCH   1  25
HETATM   25  N2  UNL     1       9.702   4.709  24.032  1.00  0.00    -0.373 N 
ATOM     26  H2  UNL     1      10.675   4.982  24.164  1.00  0.00     0.161 HD
BRANCH  25  27
HETATM   27  C2  UNL     1       8.971   4.362  25.211  1.00  0.00     0.148 C 
BRANCH  27  28
HETATM   28  C1  UNL     1       8.350   5.557  25.904  1.00  0.00     0.249 C 
BRANCH  28  29
HETATM   29  N1  UNL     1       6.982   5.354  26.277  1.00  0.00    -0.078 N 
ATOM     30  H13 UNL     1       6.483   4.833  25.555  1.00  0.00     0.274 HD
ATOM     31  H12 UNL     1       6.912   4.688  27.046  1.00  0.00     0.274 HD
ATOM     32  H11 UNL     1       6.489   6.219  26.503  1.00  0.00     0.274 HD
ENDBRANCH  28  29
ENDBRANCH  27  28
ENDBRANCH  25  27
ENDBRANCH   1  25
BRANCH  14  33
HETATM   33  N9  UNL     1      11.886   4.197  23.399  1.00  0.00    -0.292 N 
HETATM   34  C9  UNL     1      12.364   2.998  23.990  1.00  0.00     0.340 C 
HETATM   35  O3  UNL     1      11.509   2.104  24.271  1.00  0.00    -0.245 OA
HETATM   36  N10 UNL     1      13.734   2.801  24.258  1.00  0.00    -0.258 N 
ATOM     37  H10 UNL     1      14.386   3.546  24.016  1.00  0.00     0.191 HD
ATOM     38  H9  UNL     1      11.822   5.055  23.946  1.00  0.00     0.172 HD
BRANCH  36  39
HETATM   39  N11 UNL     1      14.245   1.637  24.837  1.00  0.00    -0.341 N 
ATOM     40 2H11 UNL     1      13.602   1.070  25.387  1.00  0.00     0.177 HD
ATOM     41 1H11 UNL     1      15.215   1.337  24.734  1.00  0.00     0.177 HD
ENDBRANCH  36  39
ENDBRANCH  14  33
TORSDOF 10
ENDMDL
