MODEL 1
REMARK VINA RESULT: -7.264414962      0.000      0.000
REMARK  6 active torsions:
REMARK  status: ('A' for Active; 'I' for Inactive)
REMARK    1  A    between atoms: C2_3  and  N2_4 
REMARK       I    between atoms: N2_4  and  C3_6 
REMARK       I    between atoms: C3_6  and  N3_8 
REMARK    2  A    between atoms: N3_8  and  N4_10 
REMARK    3  A    between atoms: C5_14  and  O2_15 
REMARK    4  A    between atoms: C5_14  and  C6_17 
REMARK    5  A    between atoms: C6_17  and  N5_18 
REMARK    6  A    between atoms: C9_27  and  C10_28 
ROOT
HETATM    1  N1  UNL     1       8.203   7.003  25.929  1.00  0.00    -0.195 NA
HETATM    2  C1  UNL     1       8.711   6.441  25.047  1.00  0.00     0.092 C 
HETATM    3  C2  UNL     1       9.337   5.732  23.907  1.00  0.00     0.146 C 
HETATM    4  C4  UNL     1      10.237   6.672  23.210  1.00  0.00     0.110 C 
HETATM    5  C5  UNL     1      11.363   6.040  22.460  1.00  0.00     0.151 C 
HETATM    6  N8  UNL     1      11.650   4.682  22.770  1.00  0.00    -0.348 N 
ATOM      7  H8  UNL     1      12.368   4.223  22.209  1.00  0.00     0.163 HD
HETATM    8  C8  UNL     1      11.104   3.996  23.666  1.00  0.00     0.107 C 
HETATM    9  N9  UNL     1      11.526   2.616  23.843  1.00  0.00    -0.087 NA
HETATM   10  C9  UNL     1      10.058   4.557  24.533  1.00  0.00     0.182 C 
ENDROOT
BRANCH   3  11
HETATM   11  N2  UNL     1       8.243   5.259  23.089  1.00  0.00    -0.318 N 
HETATM   12  C3  UNL     1       7.688   5.947  21.994  1.00  0.00     0.335 C 
HETATM   13  O1  UNL     1       8.121   7.067  21.641  1.00  0.00    -0.246 OA
HETATM   14  N3  UNL     1       6.615   5.397  21.247  1.00  0.00    -0.258 N 
ATOM     15  H3  UNL     1       6.251   4.485  21.522  1.00  0.00     0.191 HD
ATOM     16  H2  UNL     1       7.841   4.352  23.325  1.00  0.00     0.166 HD
BRANCH  14  17
HETATM   17  N4  UNL     1       6.035   6.043  20.157  1.00  0.00    -0.341 N 
ATOM     18  H42 UNL     1       5.097   5.752  19.884  1.00  0.00     0.177 HD
ATOM     19  H41 UNL     1       6.503   6.782  19.631  1.00  0.00     0.177 HD
ENDBRANCH  14  17
ENDBRANCH   3  11
BRANCH  10  20
HETATM   20  C10 UNL     1      10.509   4.846  25.901  1.00  0.00     0.245 C 
HETATM   21  N10 UNL     1       9.918   4.323  27.082  1.00  0.00    -0.061 NA
HETATM   22  O3  UNL     1      11.491   5.609  26.060  1.00  0.00    -0.276 OA
ENDBRANCH  10  20
BRANCH   5  23
HETATM   23  O2  UNL     1      11.155   6.197  21.073  1.00  0.00    -0.369 OA
ATOM     24  H2  UNL     1      11.093   5.343  20.662  1.00  0.00     0.212 HD
ENDBRANCH   5  23
BRANCH   5  25
HETATM   25  C6  UNL     1      12.650   6.829  22.737  1.00  0.00     0.182 C 
BRANCH  25  26
HETATM   26  N5  UNL     1      13.088   7.541  21.572  1.00  0.00    -0.362 N 
HETATM   27  C7  UNL     1      14.062   8.377  21.712  1.00  0.00     0.197 C 
HETATM   28  N6  UNL     1      14.701   8.611  22.958  1.00  0.00    -0.067 NA
HETATM   29  N7  UNL     1      14.487   9.077  20.547  1.00  0.00    -0.067 NA
ATOM     30  H5  UNL     1      12.647   7.392  20.666  1.00  0.00     0.161 HD
ENDBRANCH  25  26
ENDBRANCH   5  25
TORSDOF 6
ENDMDL
MODEL 2
REMARK VINA RESULT: -7.184438927      2.343      5.552
REMARK  6 active torsions:
REMARK  status: ('A' for Active; 'I' for Inactive)
REMARK    1  A    between atoms: C2_3  and  N2_4 
REMARK       I    between atoms: N2_4  and  C3_6 
REMARK       I    between atoms: C3_6  and  N3_8 
REMARK    2  A    between atoms: N3_8  and  N4_10 
REMARK    3  A    between atoms: C5_14  and  O2_15 
REMARK    4  A    between atoms: C5_14  and  C6_17 
REMARK    5  A    between atoms: C6_17  and  N5_18 
REMARK    6  A    between atoms: C9_27  and  C10_28 
ROOT
HETATM    1  N1  UNL     1      13.528   5.174  24.048  1.00  0.00    -0.195 NA
HETATM    2  C1  UNL     1      12.409   5.417  24.248  1.00  0.00     0.092 C 
HETATM    3  C2  UNL     1      10.990   5.750  24.515  1.00  0.00     0.146 C 
HETATM    4  C4  UNL     1      10.448   6.458  23.338  1.00  0.00     0.110 C 
HETATM    5  C5  UNL     1       8.970   6.346  23.151  1.00  0.00     0.151 C 
HETATM    6  N8  UNL     1       8.312   5.323  23.887  1.00  0.00    -0.348 N 
ATOM      7  H8  UNL     1       7.295   5.289  23.822  1.00  0.00     0.163 HD
HETATM    8  C8  UNL     1       8.864   4.459  24.610  1.00  0.00     0.107 C 
HETATM    9  N9  UNL     1       8.029   3.484  25.291  1.00  0.00    -0.087 NA
HETATM   10  C9  UNL     1      10.324   4.416  24.776  1.00  0.00     0.182 C 
ENDROOT
BRANCH   3  11
HETATM   11  N2  UNL     1      10.992   6.544  25.722  1.00  0.00    -0.318 N 
HETATM   12  C3  UNL     1      11.198   6.049  27.023  1.00  0.00     0.335 C 
HETATM   13  O1  UNL     1      11.398   4.832  27.233  1.00  0.00    -0.246 OA
HETATM   14  N3  UNL     1      11.186   6.912  28.149  1.00  0.00    -0.258 N 
ATOM     15  H3  UNL     1      11.025   7.907  27.996  1.00  0.00     0.191 HD
ATOM     16  H2  UNL     1      10.831   7.547  25.622  1.00  0.00     0.166 HD
BRANCH  14  17
HETATM   17  N4  UNL     1      11.385   6.465  29.454  1.00  0.00    -0.341 N 
ATOM     18  H42 UNL     1      10.953   5.580  29.718  1.00  0.00     0.177 HD
ATOM     19  H41 UNL     1      11.935   6.979  30.143  1.00  0.00     0.177 HD
ENDBRANCH  14  17
ENDBRANCH   3  11
BRANCH  10  20
HETATM   20  C10 UNL     1      10.974   3.317  24.049  1.00  0.00     0.245 C 
HETATM   21  N10 UNL     1      11.685   2.247  24.654  1.00  0.00    -0.061 NA
HETATM   22  O3  UNL     1      10.906   3.304  22.797  1.00  0.00    -0.276 OA
ENDBRANCH  10  20
BRANCH   5  23
HETATM   23  O2  UNL     1       8.366   7.598  23.396  1.00  0.00    -0.369 OA
ATOM     24  H2  UNL     1       7.592   7.689  22.852  1.00  0.00     0.212 HD
ENDBRANCH   5  23
BRANCH   5  25
HETATM   25  C6  UNL     1       8.676   6.072  21.670  1.00  0.00     0.182 C 
BRANCH  25  26
HETATM   26  N5  UNL     1       7.304   5.712  21.466  1.00  0.00    -0.362 N 
HETATM   27  C7  UNL     1       6.675   6.275  20.489  1.00  0.00     0.197 C 
HETATM   28  N6  UNL     1       7.288   7.221  19.625  1.00  0.00    -0.067 NA
HETATM   29  N7  UNL     1       5.313   5.907  20.299  1.00  0.00    -0.067 NA
ATOM     30  H5  UNL     1       6.840   5.035  22.072  1.00  0.00     0.161 HD
ENDBRANCH  25  26
ENDBRANCH   5  25
TORSDOF 6
ENDMDL
MODEL 3
REMARK VINA RESULT: -7.159046183      4.818      7.008
REMARK  6 active torsions:
REMARK  status: ('A' for Active; 'I' for Inactive)
REMARK    1  A    between atoms: C2_3  and  N2_4 
REMARK       I    between atoms: N2_4  and  C3_6 
REMARK       I    between atoms: C3_6  and  N3_8 
REMARK    2  A    between atoms: N3_8  and  N4_10 
REMARK    3  A    between atoms: C5_14  and  O2_15 
REMARK    4  A    between atoms: C5_14  and  C6_17 
REMARK    5  A    between atoms: C6_17  and  N5_18 
REMARK    6  A    between atoms: C9_27  and  C10_28 
ROOT
HETATM    1  N1  UNL     1      17.099   6.835  24.617  1.00  0.00    -0.195 NA
HETATM    2  C1  UNL     1      16.492   7.590  23.974  1.00  0.00     0.092 C 
HETATM    3  C2  UNL     1      15.728   8.573  23.170  1.00  0.00     0.146 C 
HETATM    4  C4  UNL     1      16.573   9.012  22.043  1.00  0.00     0.110 C 
HETATM    5  C5  UNL     1      15.832   9.496  20.840  1.00  0.00     0.151 C 
HETATM    6  N8  UNL     1      14.450   9.168  20.771  1.00  0.00    -0.348 N 
ATOM      7  H8  UNL     1      13.922   9.558  19.991  1.00  0.00     0.163 HD
HETATM    8  C8  UNL     1      13.820   8.444  21.578  1.00  0.00     0.107 C 
HETATM    9  N9  UNL     1      12.403   8.214  21.349  1.00  0.00    -0.087 NA
HETATM   10  C9  UNL     1      14.482   7.831  22.738  1.00  0.00     0.182 C 
ENDROOT
BRANCH   3  11
HETATM   11  N2  UNL     1      15.375   9.637  24.082  1.00  0.00    -0.318 N 
HETATM   12  C3  UNL     1      14.682   9.475  25.296  1.00  0.00     0.335 C 
HETATM   13  O1  UNL     1      14.303   8.348  25.684  1.00  0.00    -0.246 OA
HETATM   14  N3  UNL     1      14.385  10.585  26.127  1.00  0.00    -0.258 N 
ATOM     15  H3  UNL     1      14.687  11.512  25.826  1.00  0.00     0.191 HD
ATOM     16  H2  UNL     1      15.652  10.585  23.824  1.00  0.00     0.166 HD
BRANCH  14  17
HETATM   17  N4  UNL     1      13.700  10.471  27.336  1.00  0.00    -0.341 N 
ATOM     18  H42 UNL     1      12.681  10.468  27.299  1.00  0.00     0.177 HD
ATOM     19  H41 UNL     1      14.169  10.393  28.238  1.00  0.00     0.177 HD
ENDBRANCH  14  17
ENDBRANCH   3  11
BRANCH  10  20
HETATM   20  C10 UNL     1      14.715   6.386  22.595  1.00  0.00     0.245 C 
HETATM   21  N10 UNL     1      14.278   5.395  23.514  1.00  0.00    -0.061 NA
HETATM   22  O3  UNL     1      15.346   5.978  21.592  1.00  0.00    -0.276 OA
ENDBRANCH  10  20
BRANCH   5  23
HETATM   23  O2  UNL     1      16.017  10.888  20.699  1.00  0.00    -0.369 OA
ATOM     24  H2  UNL     1      16.909  11.115  20.933  1.00  0.00     0.212 HD
ENDBRANCH   5  23
BRANCH   5  25
HETATM   25  C6  UNL     1      16.482   8.903  19.583  1.00  0.00     0.182 C 
BRANCH  25  26
HETATM   26  N5  UNL     1      16.844   7.530  19.779  1.00  0.00    -0.362 N 
HETATM   27  C7  UNL     1      17.818   7.060  19.073  1.00  0.00     0.197 C 
HETATM   28  N6  UNL     1      18.529   7.845  18.127  1.00  0.00    -0.067 NA
HETATM   29  N7  UNL     1      18.167   5.695  19.279  1.00  0.00    -0.067 NA
ATOM     30  H5  UNL     1      16.350   6.944  20.452  1.00  0.00     0.161 HD
ENDBRANCH  25  26
ENDBRANCH   5  25
TORSDOF 6
ENDMDL
MODEL 4
REMARK VINA RESULT: -7.154636499      3.306      7.842
REMARK  6 active torsions:
REMARK  status: ('A' for Active; 'I' for Inactive)
REMARK    1  A    between atoms: C2_3  and  N2_4 
REMARK       I    between atoms: N2_4  and  C3_6 
REMARK       I    between atoms: C3_6  and  N3_8 
REMARK    2  A    between atoms: N3_8  and  N4_10 
REMARK    3  A    between atoms: C5_14  and  O2_15 
REMARK    4  A    between atoms: C5_14  and  C6_17 
REMARK    5  A    between atoms: C6_17  and  N5_18 
REMARK    6  A    between atoms: C9_27  and  C10_28 
ROOT
HETATM    1  N1  UNL     1      15.971  10.397  19.842  1.00  0.00    -0.195 NA
HETATM    2  C1  UNL     1      15.706   9.622  20.667  1.00  0.00     0.092 C 
HETATM    3  C2  UNL     1      15.363   8.654  21.735  1.00  0.00     0.146 C 
HETATM    4  C4  UNL     1      13.916   8.369  21.660  1.00  0.00     0.110 C 
HETATM    5  C5  UNL     1      13.498   7.043  22.205  1.00  0.00     0.151 C 
HETATM    6  N8  UNL     1      14.529   6.085  22.408  1.00  0.00    -0.348 N 
ATOM      7  H8  UNL     1      14.262   5.206  22.849  1.00  0.00     0.163 HD
HETATM    8  C8  UNL     1      15.736   6.220  22.095  1.00  0.00     0.107 C 
HETATM    9  N9  UNL     1      16.656   5.130  22.378  1.00  0.00    -0.087 NA
HETATM   10  C9  UNL     1      16.231   7.447  21.455  1.00  0.00     0.182 C 
ENDROOT
BRANCH   3  11
HETATM   11  N2  UNL     1      15.769   9.276  22.975  1.00  0.00    -0.318 N 
HETATM   12  C3  UNL     1      17.092   9.605  23.326  1.00  0.00     0.335 C 
HETATM   13  O1  UNL     1      18.049   9.367  22.556  1.00  0.00    -0.246 OA
HETATM   14  N3  UNL     1      17.391  10.220  24.568  1.00  0.00    -0.258 N 
ATOM     15  H3  UNL     1      16.623  10.421  25.208  1.00  0.00     0.191 HD
ATOM     16  H2  UNL     1      15.037   9.494  23.651  1.00  0.00     0.166 HD
BRANCH  14  17
HETATM   17  N4  UNL     1      18.685  10.562  24.958  1.00  0.00    -0.341 N 
ATOM     18  H42 UNL     1      19.452  10.014  24.570  1.00  0.00     0.177 HD
ATOM     19  H41 UNL     1      18.891  11.326  25.602  1.00  0.00     0.177 HD
ENDBRANCH  14  17
ENDBRANCH   3  11
BRANCH  10  20
HETATM   20  C10 UNL     1      16.526   7.294  20.023  1.00  0.00     0.245 C 
HETATM   21  N10 UNL     1      15.579   6.925  19.030  1.00  0.00    -0.061 NA
HETATM   22  O3  UNL     1      17.697   7.500  19.627  1.00  0.00    -0.276 OA
ENDBRANCH  10  20
BRANCH   5  23
HETATM   23  O2  UNL     1      12.758   7.231  23.392  1.00  0.00    -0.369 OA
ATOM     24  H2  UNL     1      12.447   6.392  23.710  1.00  0.00     0.212 HD
ENDBRANCH   5  23
BRANCH   5  25
HETATM   25  C6  UNL     1      12.494   6.402  21.237  1.00  0.00     0.182 C 
BRANCH  25  26
HETATM   26  N5  UNL     1      11.694   5.410  21.894  1.00  0.00    -0.362 N 
HETATM   27  C7  UNL     1      10.459   5.301  21.534  1.00  0.00     0.197 C 
HETATM   28  N6  UNL     1       9.878   6.117  20.527  1.00  0.00    -0.067 NA
HETATM   29  N7  UNL     1       9.677   4.312  22.194  1.00  0.00    -0.067 NA
ATOM     30  H5  UNL     1      12.086   4.811  22.620  1.00  0.00     0.161 HD
ENDBRANCH  25  26
ENDBRANCH   5  25
TORSDOF 6
ENDMDL
MODEL 5
REMARK VINA RESULT: -7.147216273      1.957      5.536
REMARK  6 active torsions:
REMARK  status: ('A' for Active; 'I' for Inactive)
REMARK    1  A    between atoms: C2_3  and  N2_4 
REMARK       I    between atoms: N2_4  and  C3_6 
REMARK       I    between atoms: C3_6  and  N3_8 
REMARK    2  A    between atoms: N3_8  and  N4_10 
REMARK    3  A    between atoms: C5_14  and  O2_15 
REMARK    4  A    between atoms: C5_14  and  C6_17 
REMARK    5  A    between atoms: C6_17  and  N5_18 
REMARK    6  A    between atoms: C9_27  and  C10_28 
ROOT
HETATM    1  N1  UNL     1      13.153   6.875  24.841  1.00  0.00    -0.195 NA
HETATM    2  C1  UNL     1      12.381   6.161  24.345  1.00  0.00     0.092 C 
HETATM    3  C2  UNL     1      11.394   5.239  23.737  1.00  0.00     0.146 C 
HETATM    4  C4  UNL     1      10.054   5.849  23.849  1.00  0.00     0.110 C 
HETATM    5  C5  UNL     1       9.064   5.408  22.821  1.00  0.00     0.151 C 
HETATM    6  N8  UNL     1       9.588   4.745  21.678  1.00  0.00    -0.348 N 
ATOM      7  H8  UNL     1       8.913   4.376  21.009  1.00  0.00     0.163 HD
HETATM    8  C8  UNL     1      10.802   4.572  21.414  1.00  0.00     0.107 C 
HETATM    9  N9  UNL     1      11.156   3.869  20.192  1.00  0.00    -0.087 NA
HETATM   10  C9  UNL     1      11.860   5.063  22.309  1.00  0.00     0.182 C 
ENDROOT
BRANCH   3  11
HETATM   11  N2  UNL     1      11.526   3.991  24.456  1.00  0.00    -0.318 N 
HETATM   12  C3  UNL     1      11.277   3.811  25.829  1.00  0.00     0.335 C 
HETATM   13  O1  UNL     1      10.912   4.763  26.555  1.00  0.00    -0.246 OA
HETATM   14  N3  UNL     1      11.432   2.543  26.444  1.00  0.00    -0.258 N 
ATOM     15  H3  UNL     1      11.729   1.757  25.867  1.00  0.00     0.191 HD
ATOM     16  H2  UNL     1      11.825   3.174  23.923  1.00  0.00     0.166 HD
BRANCH  14  17
HETATM   17  N4  UNL     1      11.197   2.320  27.800  1.00  0.00    -0.341 N 
ATOM     18  H42 UNL     1      10.986   1.365  28.088  1.00  0.00     0.177 HD
ATOM     19  H41 UNL     1      11.228   3.059  28.502  1.00  0.00     0.177 HD
ENDBRANCH  14  17
ENDBRANCH   3  11
BRANCH  10  20
HETATM   20  C10 UNL     1      12.564   6.249  21.802  1.00  0.00     0.245 C 
HETATM   21  N10 UNL     1      13.970   6.347  21.619  1.00  0.00    -0.061 NA
HETATM   22  O3  UNL     1      11.891   7.263  21.503  1.00  0.00    -0.276 OA
ENDBRANCH  10  20
BRANCH   5  23
HETATM   23  O2  UNL     1       8.065   4.622  23.434  1.00  0.00    -0.369 OA
ATOM     24  H2  UNL     1       8.329   3.710  23.427  1.00  0.00     0.212 HD
ENDBRANCH   5  23
BRANCH   5  25
HETATM   25  C6  UNL     1       8.307   6.637  22.301  1.00  0.00     0.182 C 
BRANCH  25  26
HETATM   26  N5  UNL     1       7.033   6.274  21.754  1.00  0.00    -0.362 N 
HETATM   27  C7  UNL     1       6.859   6.433  20.484  1.00  0.00     0.197 C 
HETATM   28  N6  UNL     1       7.869   6.947  19.629  1.00  0.00    -0.067 NA
HETATM   29  N7  UNL     1       5.589   6.068  19.954  1.00  0.00    -0.067 NA
ATOM     30  H5  UNL     1       6.290   5.902  22.345  1.00  0.00     0.161 HD
ENDBRANCH  25  26
ENDBRANCH   5  25
TORSDOF 6
ENDMDL
