MODEL 1
REMARK VINA RESULT: -8.381625502      0.000      0.000
REMARK  4 active torsions:
REMARK  status: ('A' for Active; 'I' for Inactive)
REMARK    1  A    between atoms: N1_1  and  N2_4 
REMARK       I    between atoms: N2_4  and  C1_6 
REMARK    2  A    between atoms: N4_8  and  C2_10 
REMARK    3  A    between atoms: C2_10  and  C3_11 
REMARK    4  A    between atoms: C3_11  and  N5_12 
ROOT
HETATM    1  N5  UNL     1      12.866   4.858  20.949  1.00  0.00    -0.254 N 
HETATM    2  N6  UNL     1      12.746   3.605  21.555  1.00  0.00    -0.262 N 
ATOM      3  H6  UNL     1      13.373   2.816  21.396  1.00  0.00     0.190 HD
HETATM    4  C4  UNL     1      11.639   3.591  22.413  1.00  0.00     0.287 C 
HETATM    5  O1  UNL     1      11.334   2.815  23.361  1.00  0.00    -0.267 OA
HETATM    6  C5  UNL     1      10.791   4.759  21.983  1.00  0.00     0.267 C 
HETATM    7  N7  UNL     1      10.110   5.268  23.122  1.00  0.00    -0.329 N 
ATOM      8  H7  UNL     1      10.700   5.293  23.953  1.00  0.00     0.164 HD
HETATM    9  C6  UNL     1       8.811   5.744  23.366  1.00  0.00     0.192 C 
HETATM   10  N8  UNL     1       8.377   5.803  24.713  1.00  0.00    -0.063 NA
HETATM   11  N9  UNL     1       7.951   6.141  22.491  1.00  0.00    -0.304 N 
ATOM     12  H9  UNL     1       7.069   6.446  22.903  1.00  0.00     0.171 HD
HETATM   13  C7  UNL     1       7.970   6.244  21.078  1.00  0.00     0.200 C 
HETATM   14  N10 UNL     1       7.178   7.268  20.496  1.00  0.00    -0.063 NA
HETATM   15  N11 UNL     1       8.631   5.508  20.253  1.00  0.00    -0.301 N 
ATOM     16  H11 UNL     1       8.529   5.724  19.261  1.00  0.00     0.176 HD
HETATM   17  S1  UNL     1       9.705   4.154  20.674  1.00  0.00    -0.000 SA
HETATM   18  C8  UNL     1      11.808   5.668  21.431  1.00  0.00     0.289 C 
HETATM   19  O2  UNL     1      11.737   6.912  21.400  1.00  0.00    -0.267 OA
ENDROOT
BRANCH   1  20
HETATM   20  C3  UNL     1      13.914   5.183  20.013  1.00  0.00     0.172 C 
BRANCH  20  21
HETATM   21  C2  UNL     1      15.077   5.891  20.634  1.00  0.00     0.144 C 
BRANCH  21  22
HETATM   22  N4  UNL     1      14.854   7.309  20.526  1.00  0.00    -0.362 N 
HETATM   23  C1  UNL     1      15.443   8.091  19.717  1.00  0.00     0.202 C 
HETATM   24  N2  UNL     1      15.129   9.465  19.714  1.00  0.00    -0.280 N 
HETATM   25  N3  UNL     1      16.424   7.636  18.793  1.00  0.00    -0.062 NA
ATOM     26  H2  UNL     1      14.407   9.822  19.089  1.00  0.00     0.189 HD
ATOM     27  H4  UNL     1      14.165   7.722  21.154  1.00  0.00     0.162 HD
BRANCH  24  28
HETATM   28  N1  UNL     1      15.801  10.329  20.560  1.00  0.00    -0.343 N 
ATOM     29  H12 UNL     1      16.801  10.479  20.421  1.00  0.00     0.176 HD
ATOM     30  H11 UNL     1      15.297  10.805  21.307  1.00  0.00     0.176 HD
ENDBRANCH  24  28
ENDBRANCH  21  22
ENDBRANCH  20  21
ENDBRANCH   1  20
TORSDOF 4
ENDMDL
MODEL 2
REMARK VINA RESULT: -7.702598769      2.472      6.906
REMARK  4 active torsions:
REMARK  status: ('A' for Active; 'I' for Inactive)
REMARK    1  A    between atoms: N1_1  and  N2_4 
REMARK       I    between atoms: N2_4  and  C1_6 
REMARK    2  A    between atoms: N4_8  and  C2_10 
REMARK    3  A    between atoms: C2_10  and  C3_11 
REMARK    4  A    between atoms: C3_11  and  N5_12 
ROOT
HETATM    1  N5  UNL     1      12.920   5.303  20.743  1.00  0.00    -0.254 N 
HETATM    2  N6  UNL     1      13.873   4.888  19.810  1.00  0.00    -0.262 N 
ATOM      3  H6  UNL     1      13.904   3.965  19.376  1.00  0.00     0.190 HD
HETATM    4  C4  UNL     1      14.781   5.925  19.558  1.00  0.00     0.287 C 
HETATM    5  O1  UNL     1      15.588   6.107  18.605  1.00  0.00    -0.267 OA
HETATM    6  C5  UNL     1      14.626   6.875  20.715  1.00  0.00     0.267 C 
HETATM    7  N7  UNL     1      14.893   8.194  20.256  1.00  0.00    -0.329 N 
ATOM      8  H7  UNL     1      14.493   8.378  19.336  1.00  0.00     0.164 HD
HETATM    9  C6  UNL     1      15.580   9.303  20.778  1.00  0.00     0.192 C 
HETATM   10  N8  UNL     1      15.969  10.319  19.872  1.00  0.00    -0.063 NA
HETATM   11  N9  UNL     1      15.904   9.508  22.010  1.00  0.00    -0.304 N 
ATOM     12  H9  UNL     1      16.400  10.387  22.154  1.00  0.00     0.171 HD
HETATM   13  C7  UNL     1      15.716   8.771  23.206  1.00  0.00     0.200 C 
HETATM   14  N10 UNL     1      15.602   9.514  24.409  1.00  0.00    -0.063 NA
HETATM   15  N11 UNL     1      15.637   7.491  23.326  1.00  0.00    -0.301 N 
ATOM     16  H11 UNL     1      15.500   7.126  24.269  1.00  0.00     0.176 HD
HETATM   17  S1  UNL     1      15.742   6.298  22.011  1.00  0.00    -0.000 SA
HETATM   18  C8  UNL     1      13.225   6.641  21.098  1.00  0.00     0.289 C 
HETATM   19  O2  UNL     1      12.464   7.471  21.633  1.00  0.00    -0.267 OA
ENDROOT
BRANCH   1  20
HETATM   20  C3  UNL     1      11.848   4.456  21.204  1.00  0.00     0.172 C 
BRANCH  20  21
HETATM   21  C2  UNL     1      10.633   4.495  20.331  1.00  0.00     0.144 C 
BRANCH  21  22
HETATM   22  N4  UNL     1       9.580   5.167  21.049  1.00  0.00    -0.362 N 
HETATM   23  C1  UNL     1       8.404   4.723  21.223  1.00  0.00     0.202 C 
HETATM   24  N2  UNL     1       7.466   5.484  21.949  1.00  0.00    -0.280 N 
HETATM   25  N3  UNL     1       7.978   3.467  20.709  1.00  0.00    -0.062 NA
ATOM     26  H2  UNL     1       7.362   5.342  22.954  1.00  0.00     0.189 HD
ATOM     27  H4  UNL     1       9.799   6.078  21.452  1.00  0.00     0.162 HD
BRANCH  24  28
HETATM   28  N1  UNL     1       6.687   6.424  21.299  1.00  0.00    -0.343 N 
ATOM     29  H12 UNL     1       6.941   6.707  20.352  1.00  0.00     0.176 HD
ATOM     30  H11 UNL     1       5.873   6.822  21.766  1.00  0.00     0.176 HD
ENDBRANCH  24  28
ENDBRANCH  21  22
ENDBRANCH  20  21
ENDBRANCH   1  20
TORSDOF 4
ENDMDL
MODEL 3
REMARK VINA RESULT: -7.564446217      3.249      6.093
REMARK  4 active torsions:
REMARK  status: ('A' for Active; 'I' for Inactive)
REMARK    1  A    between atoms: N1_1  and  N2_4 
REMARK       I    between atoms: N2_4  and  C1_6 
REMARK    2  A    between atoms: N4_8  and  C2_10 
REMARK    3  A    between atoms: C2_10  and  C3_11 
REMARK    4  A    between atoms: C3_11  and  N5_12 
ROOT
HETATM    1  N5  UNL     1      12.110   4.592  24.965  1.00  0.00    -0.254 N 
HETATM    2  N6  UNL     1      12.854   5.702  24.556  1.00  0.00    -0.262 N 
ATOM      3  H6  UNL     1      13.313   6.362  25.185  1.00  0.00     0.190 HD
HETATM    4  C4  UNL     1      12.878   5.775  23.158  1.00  0.00     0.287 C 
HETATM    5  O1  UNL     1      13.645   6.399  22.373  1.00  0.00    -0.267 OA
HETATM    6  C5  UNL     1      11.734   4.911  22.698  1.00  0.00     0.267 C 
HETATM    7  N7  UNL     1      12.075   4.342  21.440  1.00  0.00    -0.329 N 
ATOM      8  H7  UNL     1      13.046   4.036  21.398  1.00  0.00     0.164 HD
HETATM    9  C6  UNL     1      11.380   4.103  20.242  1.00  0.00     0.192 C 
HETATM   10  N8  UNL     1      12.148   3.874  19.074  1.00  0.00    -0.063 NA
HETATM   11  N9  UNL     1      10.101   4.066  20.079  1.00  0.00    -0.304 N 
ATOM     12  H9  UNL     1       9.824   3.874  19.117  1.00  0.00     0.171 HD
HETATM   13  C7  UNL     1       8.998   4.236  20.953  1.00  0.00     0.200 C 
HETATM   14  N10 UNL     1       7.810   3.528  20.635  1.00  0.00    -0.063 NA
HETATM   15  N11 UNL     1       8.951   4.967  22.012  1.00  0.00    -0.301 N 
ATOM     16  H11 UNL     1       8.070   4.974  22.527  1.00  0.00     0.176 HD
HETATM   17  S1  UNL     1      10.270   5.967  22.666  1.00  0.00    -0.000 SA
HETATM   18  C8  UNL     1      11.644   3.938  23.797  1.00  0.00     0.289 C 
HETATM   19  O2  UNL     1      11.234   2.764  23.704  1.00  0.00    -0.267 OA
ENDROOT
BRANCH   1  20
HETATM   20  C3  UNL     1      11.906   4.248  26.350  1.00  0.00     0.172 C 
BRANCH  20  21
HETATM   21  C2  UNL     1      10.576   3.618  26.624  1.00  0.00     0.144 C 
BRANCH  21  22
HETATM   22  N4  UNL     1       9.590   4.663  26.720  1.00  0.00    -0.362 N 
HETATM   23  C1  UNL     1       8.554   4.771  25.994  1.00  0.00     0.202 C 
HETATM   24  N2  UNL     1       7.666   5.846  26.193  1.00  0.00    -0.280 N 
HETATM   25  N3  UNL     1       8.241   3.838  24.966  1.00  0.00    -0.062 NA
ATOM     26  H2  UNL     1       6.868   5.740  26.820  1.00  0.00     0.189 HD
ATOM     27  H4  UNL     1       9.737   5.378  27.432  1.00  0.00     0.162 HD
BRANCH  24  28
HETATM   28  N1  UNL     1       7.876   7.047  25.540  1.00  0.00    -0.343 N 
ATOM     29  H12 UNL     1       8.822   7.291  25.246  1.00  0.00     0.176 HD
ATOM     30  H11 UNL     1       7.091   7.673  25.358  1.00  0.00     0.176 HD
ENDBRANCH  24  28
ENDBRANCH  21  22
ENDBRANCH  20  21
ENDBRANCH   1  20
TORSDOF 4
ENDMDL
MODEL 4
REMARK VINA RESULT: -7.496158221      2.332      3.612
REMARK  4 active torsions:
REMARK  status: ('A' for Active; 'I' for Inactive)
REMARK    1  A    between atoms: N1_1  and  N2_4 
REMARK       I    between atoms: N2_4  and  C1_6 
REMARK    2  A    between atoms: N4_8  and  C2_10 
REMARK    3  A    between atoms: C2_10  and  C3_11 
REMARK    4  A    between atoms: C3_11  and  N5_12 
ROOT
HETATM    1  N5  UNL     1      12.917   4.737  21.063  1.00  0.00    -0.254 N 
HETATM    2  N6  UNL     1      12.767   3.512  21.718  1.00  0.00    -0.262 N 
ATOM      3  H6  UNL     1      13.389   2.710  21.609  1.00  0.00     0.190 HD
HETATM    4  C4  UNL     1      11.638   3.546  22.546  1.00  0.00     0.287 C 
HETATM    5  O1  UNL     1      11.299   2.814  23.517  1.00  0.00    -0.267 OA
HETATM    6  C5  UNL     1      10.815   4.703  22.045  1.00  0.00     0.267 C 
HETATM    7  N7  UNL     1      10.110   5.266  23.143  1.00  0.00    -0.329 N 
ATOM      8  H7  UNL     1      10.678   5.321  23.988  1.00  0.00     0.164 HD
HETATM    9  C6  UNL     1       8.810   5.766  23.332  1.00  0.00     0.192 C 
HETATM   10  N8  UNL     1       8.342   5.886  24.664  1.00  0.00    -0.063 NA
HETATM   11  N9  UNL     1       7.978   6.135  22.418  1.00  0.00    -0.304 N 
ATOM     12  H9  UNL     1       7.090   6.466  22.794  1.00  0.00     0.171 HD
HETATM   13  C7  UNL     1       8.036   6.178  21.003  1.00  0.00     0.200 C 
HETATM   14  N10 UNL     1       7.271   7.185  20.358  1.00  0.00    -0.063 NA
HETATM   15  N11 UNL     1       8.710   5.401  20.228  1.00  0.00    -0.301 N 
ATOM     16  H11 UNL     1       8.636   5.576  19.225  1.00  0.00     0.176 HD
HETATM   17  S1  UNL     1       9.757   4.055  20.733  1.00  0.00    -0.000 SA
HETATM   18  C8  UNL     1      11.856   5.577  21.482  1.00  0.00     0.289 C 
HETATM   19  O2  UNL     1      11.800   6.820  21.398  1.00  0.00    -0.267 OA
ENDROOT
BRANCH   1  20
HETATM   20  C3  UNL     1      13.993   5.011  20.143  1.00  0.00     0.172 C 
BRANCH  20  21
HETATM   21  C2  UNL     1      13.787   4.420  18.784  1.00  0.00     0.144 C 
BRANCH  21  22
HETATM   22  N4  UNL     1      13.906   2.988  18.889  1.00  0.00    -0.362 N 
HETATM   23  C1  UNL     1      14.682   2.258  18.200  1.00  0.00     0.202 C 
HETATM   24  N2  UNL     1      14.700   0.864  18.405  1.00  0.00    -0.280 N 
HETATM   25  N3  UNL     1      15.552   2.791  17.209  1.00  0.00    -0.062 NA
ATOM     26  H2  UNL     1      15.363   0.453  19.063  1.00  0.00     0.189 HD
ATOM     27  H4  UNL     1      13.315   2.521  19.577  1.00  0.00     0.162 HD
BRANCH  24  28
HETATM   28  N1  UNL     1      13.820   0.052  17.714  1.00  0.00    -0.343 N 
ATOM     29  H12 UNL     1      14.007  -0.159  16.733  1.00  0.00     0.176 HD
ATOM     30  H11 UNL     1      12.998  -0.327  18.185  1.00  0.00     0.176 HD
ENDBRANCH  24  28
ENDBRANCH  21  22
ENDBRANCH  20  21
ENDBRANCH   1  20
TORSDOF 4
ENDMDL
MODEL 5
REMARK VINA RESULT: -7.403804625      1.263      1.312
REMARK  4 active torsions:
REMARK  status: ('A' for Active; 'I' for Inactive)
REMARK    1  A    between atoms: N1_1  and  N2_4 
REMARK       I    between atoms: N2_4  and  C1_6 
REMARK    2  A    between atoms: N4_8  and  C2_10 
REMARK    3  A    between atoms: C2_10  and  C3_11 
REMARK    4  A    between atoms: C3_11  and  N5_12 
ROOT
HETATM    1  N5  UNL     1      12.937   4.936  21.081  1.00  0.00    -0.254 N 
HETATM    2  N6  UNL     1      12.827   3.657  21.634  1.00  0.00    -0.262 N 
ATOM      3  H6  UNL     1      13.477   2.890  21.466  1.00  0.00     0.190 HD
HETATM    4  C4  UNL     1      11.692   3.585  22.453  1.00  0.00     0.287 C 
HETATM    5  O1  UNL     1      11.374   2.765  23.358  1.00  0.00    -0.267 OA
HETATM    6  C5  UNL     1      10.832   4.749  22.039  1.00  0.00     0.267 C 
HETATM    7  N7  UNL     1      10.101   5.196  23.173  1.00  0.00    -0.329 N 
ATOM      8  H7  UNL     1      10.662   5.202  24.024  1.00  0.00     0.164 HD
HETATM    9  C6  UNL     1       8.783   5.633  23.391  1.00  0.00     0.192 C 
HETATM   10  N8  UNL     1       8.303   5.628  24.724  1.00  0.00    -0.063 NA
HETATM   11  N9  UNL     1       7.943   6.045  22.503  1.00  0.00    -0.304 N 
ATOM     12  H9  UNL     1       7.042   6.313  22.896  1.00  0.00     0.171 HD
HETATM   13  C7  UNL     1       8.007   6.204  21.096  1.00  0.00     0.200 C 
HETATM   14  N10 UNL     1       7.211   7.232  20.528  1.00  0.00    -0.063 NA
HETATM   15  N11 UNL     1       8.713   5.517  20.267  1.00  0.00    -0.301 N 
ATOM     16  H11 UNL     1       8.638   5.769  19.281  1.00  0.00     0.176 HD
HETATM   17  S1  UNL     1       9.805   4.171  20.671  1.00  0.00    -0.000 SA
HETATM   18  C8  UNL     1      11.844   5.702  21.558  1.00  0.00     0.289 C 
HETATM   19  O2  UNL     1      11.744   6.944  21.573  1.00  0.00    -0.267 OA
ENDROOT
BRANCH   1  20
HETATM   20  C3  UNL     1      14.007   5.321  20.195  1.00  0.00     0.172 C 
BRANCH  20  21
HETATM   21  C2  UNL     1      15.367   5.208  20.810  1.00  0.00     0.144 C 
BRANCH  21  22
HETATM   22  N4  UNL     1      15.748   6.503  21.310  1.00  0.00    -0.362 N 
HETATM   23  C1  UNL     1      16.900   7.026  21.207  1.00  0.00     0.202 C 
HETATM   24  N2  UNL     1      17.140   8.307  21.743  1.00  0.00    -0.280 N 
HETATM   25  N3  UNL     1      17.984   6.365  20.564  1.00  0.00    -0.062 NA
ATOM     26  H2  UNL     1      17.026   9.135  21.157  1.00  0.00     0.189 HD
ATOM     27  H4  UNL     1      15.030   7.048  21.788  1.00  0.00     0.162 HD
BRANCH  24  28
HETATM   28  N1  UNL     1      17.532   8.442  23.062  1.00  0.00    -0.343 N 
ATOM     29  H12 UNL     1      17.026   7.927  23.783  1.00  0.00     0.176 HD
ATOM     30  H11 UNL     1      18.315   9.050  23.301  1.00  0.00     0.176 HD
ENDBRANCH  24  28
ENDBRANCH  21  22
ENDBRANCH  20  21
ENDBRANCH   1  20
TORSDOF 4
ENDMDL
