MODEL 1
REMARK VINA RESULT: -7.759188384      0.000      0.000
REMARK  7 active torsions:
REMARK  status: ('A' for Active; 'I' for Inactive)
REMARK    1  A    between atoms: N1_1  and  C1_4 
REMARK    2  A    between atoms: C2_7  and  N3_8 
REMARK    3  A    between atoms: N3_8  and  N4_9 
REMARK    4  A    between atoms: N5_15  and  C5_16 
REMARK    5  A    between atoms: C5_16  and  C6_17 
REMARK    6  A    between atoms: C7_20  and  N7_21 
REMARK    7  A    between atoms: N7_21  and  N8_23 
REMARK       I    between atoms: N8_23  and  C8_24 
ROOT
HETATM    1  C1  UNL     1      14.667  10.209  26.656  1.00  0.00     0.679 A 
HETATM    2  N2  UNL     1      15.962  10.430  26.499  1.00  0.00    -0.161 N 
ATOM      3  H2  UNL     1      16.489  10.821  27.280  1.00  0.00     0.187 HD
HETATM    4  C2  UNL     1      16.634  10.152  25.320  1.00  0.00     0.236 A 
HETATM    5  C3  UNL     1      15.847   9.617  24.282  1.00  0.00     0.138 A 
HETATM    6  C4  UNL     1      16.417   9.298  23.063  1.00  0.00     0.281 A 
HETATM    7  O1  UNL     1      17.637   9.476  22.826  1.00  0.00    -0.266 OA
HETATM    8  N5  UNL     1      15.669   8.776  22.072  1.00  0.00    -0.136 N 
HETATM    9  C7  UNL     1      14.358   8.584  22.322  1.00  0.00     0.714 A 
HETATM   10  N10 UNL     1      13.787   8.889  23.499  1.00  0.00    -0.172 N 
ATOM     11  H10 UNL     1      12.789   8.723  23.629  1.00  0.00     0.186 HD
HETATM   12  C9  UNL     1      14.512   9.415  24.518  1.00  0.00     0.157 A 
HETATM   13  N11 UNL     1      13.907   9.698  25.674  1.00  0.00    -0.175 N 
ATOM     14  H11 UNL     1      12.909   9.533  25.805  1.00  0.00     0.186 HD
ENDROOT
BRANCH   9  15
HETATM   15  N7  UNL     1      13.690   8.072  21.347  1.00  0.00    -0.060 N 
ATOM     16  H7  UNL     1      13.890   8.518  20.452  1.00  0.00     0.221 HD
BRANCH  15  17
HETATM   17  N8  UNL     1      12.819   7.115  21.252  1.00  0.00    -0.253 NA
HETATM   18  C8  UNL     1      11.918   6.125  21.152  1.00  0.00     0.424 C 
HETATM   19  N9  UNL     1      12.346   4.718  21.098  1.00  0.00    -0.024 NA
HETATM   20  O3  UNL     1      10.651   6.241  21.095  1.00  0.00    -0.232 OA
ENDBRANCH  15  17
ENDBRANCH   9  15
BRANCH   8  21
HETATM   21  C5  UNL     1      16.254   8.436  20.792  1.00  0.00     0.250 C 
BRANCH  21  22
HETATM   22  C6  UNL     1      15.984   9.450  19.733  1.00  0.00     0.250 C 
HETATM   23  N6  UNL     1      15.371   8.962  18.557  1.00  0.00    -0.061 NA
HETATM   24  O2  UNL     1      16.297  10.653  19.915  1.00  0.00    -0.275 OA
ENDBRANCH  21  22
ENDBRANCH   8  21
BRANCH   4  25
HETATM   25  N3  UNL     1      17.817  10.333  25.209  1.00  0.00    -0.313 NA
BRANCH  25  26
HETATM   26  N4  UNL     1      19.089  10.525  25.108  1.00  0.00    -0.278 N 
ATOM     27  H42 UNL     1      18.353  10.052  25.632  1.00  0.00     0.191 HD
ATOM     28  H41 UNL     1      20.093  10.685  25.017  1.00  0.00     0.191 HD
ENDBRANCH  25  26
ENDBRANCH   4  25
BRANCH   1  29
HETATM   29  N1  UNL     1      14.100  10.496  27.785  1.00  0.00    -0.234 N 
ATOM     30  H12 UNL     1      13.784  11.454  27.937  1.00  0.00     0.174 HD
ATOM     31  H11 UNL     1      13.988   9.770  28.491  1.00  0.00     0.174 HD
ENDBRANCH   1  29
TORSDOF 7
ENDMDL
MODEL 2
REMARK VINA RESULT: -7.712662823      3.821      6.317
REMARK  7 active torsions:
REMARK  status: ('A' for Active; 'I' for Inactive)
REMARK    1  A    between atoms: N1_1  and  C1_4 
REMARK    2  A    between atoms: C2_7  and  N3_8 
REMARK    3  A    between atoms: N3_8  and  N4_9 
REMARK    4  A    between atoms: N5_15  and  C5_16 
REMARK    5  A    between atoms: C5_16  and  C6_17 
REMARK    6  A    between atoms: C7_20  and  N7_21 
REMARK    7  A    between atoms: N7_21  and  N8_23 
REMARK       I    between atoms: N8_23  and  C8_24 
ROOT
HETATM    1  C1  UNL     1      17.087   9.059  23.222  1.00  0.00     0.679 A 
HETATM    2  N2  UNL     1      17.098  10.369  23.410  1.00  0.00    -0.161 N 
ATOM      3  H2  UNL     1      17.561  10.957  22.716  1.00  0.00     0.187 HD
HETATM    4  C2  UNL     1      16.509  10.976  24.506  1.00  0.00     0.236 A 
HETATM    5  C3  UNL     1      15.890  10.106  25.425  1.00  0.00     0.138 A 
HETATM    6  C4  UNL     1      15.266  10.605  26.553  1.00  0.00     0.281 A 
HETATM    7  O1  UNL     1      15.231  11.833  26.811  1.00  0.00    -0.266 OA
HETATM    8  N5  UNL     1      14.666   9.776  27.428  1.00  0.00    -0.136 N 
HETATM    9  C7  UNL     1      14.702   8.456  27.155  1.00  0.00     0.714 A 
HETATM   10  N10 UNL     1      15.305   7.953  26.065  1.00  0.00    -0.172 N 
ATOM     11  H10 UNL     1      15.301   6.945  25.912  1.00  0.00     0.186 HD
HETATM   12  C9  UNL     1      15.919   8.760  25.164  1.00  0.00     0.157 A 
HETATM   13  N11 UNL     1      16.500   8.219  24.091  1.00  0.00    -0.175 N 
ATOM     14  H11 UNL     1      16.498   7.211  23.937  1.00  0.00     0.186 HD
ENDROOT
BRANCH   9  15
HETATM   15  N7  UNL     1      14.103   7.708  28.015  1.00  0.00    -0.060 N 
ATOM     16  H7  UNL     1      13.625   8.242  28.741  1.00  0.00     0.221 HD
BRANCH  15  17
HETATM   17  N8  UNL     1      13.973   6.425  28.164  1.00  0.00    -0.253 NA
HETATM   18  C8  UNL     1      13.839   5.099  28.317  1.00  0.00     0.424 C 
HETATM   19  N9  UNL     1      15.006   4.251  28.606  1.00  0.00    -0.024 NA
HETATM   20  O3  UNL     1      12.763   4.421  28.242  1.00  0.00    -0.232 OA
ENDBRANCH  15  17
ENDBRANCH   9  15
BRANCH   8  21
HETATM   21  C5  UNL     1      14.006  10.286  28.612  1.00  0.00     0.250 C 
BRANCH  21  22
HETATM   22  C6  UNL     1      14.886  10.301  29.816  1.00  0.00     0.250 C 
HETATM   23  N6  UNL     1      14.860   9.133  30.611  1.00  0.00    -0.061 NA
HETATM   24  O2  UNL     1      15.592  11.309  30.071  1.00  0.00    -0.275 OA
ENDBRANCH  21  22
ENDBRANCH   8  21
BRANCH   4  25
HETATM   25  N3  UNL     1      16.505  12.170  24.641  1.00  0.00    -0.313 NA
BRANCH  25  26
HETATM   26  N4  UNL     1      16.507  13.454  24.770  1.00  0.00    -0.278 N 
ATOM     27  H42 UNL     1      16.044  12.657  24.333  1.00  0.00     0.191 HD
ATOM     28  H41 UNL     1      16.520  14.468  24.880  1.00  0.00     0.191 HD
ENDBRANCH  25  26
ENDBRANCH   4  25
BRANCH   1  29
HETATM   29  N1  UNL     1      17.662   8.556  22.176  1.00  0.00    -0.234 N 
ATOM     30  H12 UNL     1      17.493   7.575  21.956  1.00  0.00     0.174 HD
ATOM     31  H11 UNL     1      18.269   9.143  21.604  1.00  0.00     0.174 HD
ENDBRANCH   1  29
TORSDOF 7
ENDMDL
MODEL 3
REMARK VINA RESULT: -7.686101328      6.115      8.968
REMARK  7 active torsions:
REMARK  status: ('A' for Active; 'I' for Inactive)
REMARK    1  A    between atoms: N1_1  and  C1_4 
REMARK    2  A    between atoms: C2_7  and  N3_8 
REMARK    3  A    between atoms: N3_8  and  N4_9 
REMARK    4  A    between atoms: N5_15  and  C5_16 
REMARK    5  A    between atoms: C5_16  and  C6_17 
REMARK    6  A    between atoms: C7_20  and  N7_21 
REMARK    7  A    between atoms: N7_21  and  N8_23 
REMARK       I    between atoms: N8_23  and  C8_24 
ROOT
HETATM    1  C1  UNL     1       7.274   6.099  20.473  1.00  0.00     0.679 A 
HETATM    2  N2  UNL     1       8.301   5.528  19.864  1.00  0.00    -0.161 N 
ATOM      3  H2  UNL     1       8.297   5.477  18.845  1.00  0.00     0.187 HD
HETATM    4  C2  UNL     1       9.380   4.996  20.549  1.00  0.00     0.236 A 
HETATM    5  C3  UNL     1       9.320   5.097  21.952  1.00  0.00     0.138 A 
HETATM    6  C4  UNL     1      10.348   4.603  22.736  1.00  0.00     0.281 A 
HETATM    7  O1  UNL     1      11.357   4.044  22.243  1.00  0.00    -0.266 OA
HETATM    8  N5  UNL     1      10.297   4.707  24.078  1.00  0.00    -0.136 N 
HETATM    9  C7  UNL     1       9.214   5.307  24.612  1.00  0.00     0.714 A 
HETATM   10  N10 UNL     1       8.206   5.791  23.867  1.00  0.00    -0.172 N 
ATOM     11  H10 UNL     1       7.411   6.233  24.328  1.00  0.00     0.186 HD
HETATM   12  C9  UNL     1       8.225   5.703  22.513  1.00  0.00     0.157 A 
HETATM   13  N11 UNL     1       7.206   6.202  21.811  1.00  0.00    -0.175 N 
ATOM     14  H11 UNL     1       6.410   6.644  22.270  1.00  0.00     0.186 HD
ENDROOT
BRANCH   9  15
HETATM   15  N7  UNL     1       9.221   5.392  25.897  1.00  0.00    -0.060 N 
ATOM     16  H7  UNL     1       8.704   4.638  26.347  1.00  0.00     0.221 HD
BRANCH  15  17
HETATM   17  N8  UNL     1       9.739   6.226  26.745  1.00  0.00    -0.253 NA
HETATM   18  C8  UNL     1      10.276   7.088  27.623  1.00  0.00     0.424 C 
HETATM   19  N9  UNL     1      11.669   7.539  27.482  1.00  0.00    -0.024 NA
HETATM   20  O3  UNL     1       9.706   7.610  28.635  1.00  0.00    -0.232 OA
ENDBRANCH  15  17
ENDBRANCH   9  15
BRANCH   8  21
HETATM   21  C5  UNL     1      11.367   4.197  24.909  1.00  0.00     0.250 C 
BRANCH  21  22
HETATM   22  C6  UNL     1      11.082   2.846  25.473  1.00  0.00     0.250 C 
HETATM   23  N6  UNL     1      10.780   2.807  26.852  1.00  0.00    -0.061 NA
HETATM   24  O2  UNL     1      11.117   1.831  24.732  1.00  0.00    -0.275 OA
ENDBRANCH  21  22
ENDBRANCH   8  21
BRANCH   4  25
HETATM   25  N3  UNL     1      10.316   4.507  19.974  1.00  0.00    -0.313 NA
BRANCH  25  26
HETATM   26  N4  UNL     1      11.312   3.985  19.341  1.00  0.00    -0.278 N 
ATOM     27  H42 UNL     1      10.825   4.853  19.568  1.00  0.00     0.191 HD
ATOM     28  H41 UNL     1      12.095   3.560  18.845  1.00  0.00     0.191 HD
ENDBRANCH  25  26
ENDBRANCH   4  25
BRANCH   1  29
HETATM   29  N1  UNL     1       6.295   6.572  19.770  1.00  0.00    -0.234 N 
ATOM     30  H12 UNL     1       6.473   7.382  19.177  1.00  0.00     0.174 HD
ATOM     31  H11 UNL     1       5.375   6.135  19.828  1.00  0.00     0.174 HD
ENDBRANCH   1  29
TORSDOF 7
ENDMDL
MODEL 4
REMARK VINA RESULT: -7.657011141      3.869      6.406
REMARK  7 active torsions:
REMARK  status: ('A' for Active; 'I' for Inactive)
REMARK    1  A    between atoms: N1_1  and  C1_4 
REMARK    2  A    between atoms: C2_7  and  N3_8 
REMARK    3  A    between atoms: N3_8  and  N4_9 
REMARK    4  A    between atoms: N5_15  and  C5_16 
REMARK    5  A    between atoms: C5_16  and  C6_17 
REMARK    6  A    between atoms: C7_20  and  N7_21 
REMARK    7  A    between atoms: N7_21  and  N8_23 
REMARK       I    between atoms: N8_23  and  C8_24 
ROOT
HETATM    1  C1  UNL     1      17.038   8.905  23.351  1.00  0.00     0.679 A 
HETATM    2  N2  UNL     1      17.051  10.221  23.497  1.00  0.00    -0.161 N 
ATOM      3  H2  UNL     1      17.507  10.786  22.781  1.00  0.00     0.187 HD
HETATM    4  C2  UNL     1      16.473  10.862  24.580  1.00  0.00     0.236 A 
HETATM    5  C3  UNL     1      15.865  10.022  25.532  1.00  0.00     0.138 A 
HETATM    6  C4  UNL     1      15.252  10.557  26.651  1.00  0.00     0.281 A 
HETATM    7  O1  UNL     1      15.220  11.792  26.871  1.00  0.00    -0.266 OA
HETATM    8  N5  UNL     1      14.661   9.756  27.558  1.00  0.00    -0.136 N 
HETATM    9  C7  UNL     1      14.693   8.428  27.326  1.00  0.00     0.714 A 
HETATM   10  N10 UNL     1      15.285   7.891  26.246  1.00  0.00    -0.172 N 
ATOM     11  H10 UNL     1      15.279   6.878  26.125  1.00  0.00     0.186 HD
HETATM   12  C9  UNL     1      15.889   8.668  25.313  1.00  0.00     0.157 A 
HETATM   13  N11 UNL     1      16.459   8.094  24.252  1.00  0.00    -0.175 N 
ATOM     14  H11 UNL     1      16.456   7.081  24.130  1.00  0.00     0.186 HD
ENDROOT
BRANCH   9  15
HETATM   15  N7  UNL     1      14.103   7.708  28.215  1.00  0.00    -0.060 N 
ATOM     16  H7  UNL     1      14.748   7.319  28.903  1.00  0.00     0.221 HD
BRANCH  15  17
HETATM   17  N8  UNL     1      12.869   7.368  28.431  1.00  0.00    -0.253 NA
HETATM   18  C8  UNL     1      11.594   7.016  28.655  1.00  0.00     0.424 C 
HETATM   19  N9  UNL     1      10.509   8.005  28.548  1.00  0.00    -0.024 NA
HETATM   20  O3  UNL     1      11.158   5.862  28.969  1.00  0.00    -0.232 OA
ENDBRANCH  15  17
ENDBRANCH   9  15
BRANCH   8  21
HETATM   21  C5  UNL     1      14.014  10.304  28.731  1.00  0.00     0.250 C 
BRANCH  21  22
HETATM   22  C6  UNL     1      14.908  10.363  29.923  1.00  0.00     0.250 C 
HETATM   23  N6  UNL     1      14.912   9.216  30.748  1.00  0.00    -0.061 NA
HETATM   24  O2  UNL     1      15.601  11.389  30.143  1.00  0.00    -0.275 OA
ENDBRANCH  21  22
ENDBRANCH   8  21
BRANCH   4  25
HETATM   25  N3  UNL     1      16.472  12.060  24.678  1.00  0.00    -0.313 NA
BRANCH  25  26
HETATM   26  N4  UNL     1      16.467  13.347  24.765  1.00  0.00    -0.278 N 
ATOM     27  H42 UNL     1      16.910  12.539  24.328  1.00  0.00     0.191 HD
ATOM     28  H41 UNL     1      16.453  14.365  24.843  1.00  0.00     0.191 HD
ENDBRANCH  25  26
ENDBRANCH   4  25
BRANCH   1  29
HETATM   29  N1  UNL     1      17.602   8.370  22.316  1.00  0.00    -0.234 N 
ATOM     30  H12 UNL     1      18.283   8.923  21.797  1.00  0.00     0.174 HD
ATOM     31  H11 UNL     1      17.352   7.420  22.040  1.00  0.00     0.174 HD
ENDBRANCH   1  29
TORSDOF 7
ENDMDL
MODEL 5
REMARK VINA RESULT: -7.376121172      5.579      6.621
REMARK  7 active torsions:
REMARK  status: ('A' for Active; 'I' for Inactive)
REMARK    1  A    between atoms: N1_1  and  C1_4 
REMARK    2  A    between atoms: C2_7  and  N3_8 
REMARK    3  A    between atoms: N3_8  and  N4_9 
REMARK    4  A    between atoms: N5_15  and  C5_16 
REMARK    5  A    between atoms: C5_16  and  C6_17 
REMARK    6  A    between atoms: C7_20  and  N7_21 
REMARK    7  A    between atoms: N7_21  and  N8_23 
REMARK       I    between atoms: N8_23  and  C8_24 
ROOT
HETATM    1  C1  UNL     1       9.660   6.806  27.264  1.00  0.00     0.679 A 
HETATM    2  N2  UNL     1      10.924   6.449  27.096  1.00  0.00    -0.161 N 
ATOM      3  H2  UNL     1      11.590   6.647  27.843  1.00  0.00     0.187 HD
HETATM    4  C2  UNL     1      11.380   5.819  25.950  1.00  0.00     0.236 A 
HETATM    5  C3  UNL     1      10.409   5.579  24.959  1.00  0.00     0.138 A 
HETATM    6  C4  UNL     1      10.755   4.951  23.776  1.00  0.00     0.281 A 
HETATM    7  O1  UNL     1      11.929   4.582  23.532  1.00  0.00    -0.266 OA
HETATM    8  N5  UNL     1       9.826   4.711  22.831  1.00  0.00    -0.136 N 
HETATM    9  C7  UNL     1       8.563   5.107  23.089  1.00  0.00     0.714 A 
HETATM   10  N10 UNL     1       8.210   5.720  24.232  1.00  0.00    -0.172 N 
ATOM     11  H10 UNL     1       7.239   5.998  24.370  1.00  0.00     0.186 HD
HETATM   12  C9  UNL     1       9.120   5.976  25.204  1.00  0.00     0.157 A 
HETATM   13  N11 UNL     1       8.725   6.581  26.327  1.00  0.00    -0.175 N 
ATOM     14  H11 UNL     1       7.755   6.861  26.466  1.00  0.00     0.186 HD
ENDROOT
BRANCH   9  15
HETATM   15  N7  UNL     1       7.712   4.843  22.160  1.00  0.00    -0.060 N 
ATOM     16  H7  UNL     1       7.393   3.875  22.176  1.00  0.00     0.221 HD
BRANCH  15  17
HETATM   17  N8  UNL     1       7.171   5.538  21.206  1.00  0.00    -0.253 NA
HETATM   18  C8  UNL     1       6.610   6.256  20.220  1.00  0.00     0.424 C 
HETATM   19  N9  UNL     1       7.389   7.267  19.488  1.00  0.00    -0.024 NA
HETATM   20  O3  UNL     1       5.412   6.177  19.797  1.00  0.00    -0.232 OA
ENDBRANCH  15  17
ENDBRANCH   9  15
BRANCH   8  21
HETATM   21  C5  UNL     1      10.174   4.052  21.590  1.00  0.00     0.250 C 
BRANCH  21  22
HETATM   22  C6  UNL     1      10.798   4.967  20.592  1.00  0.00     0.250 C 
HETATM   23  N6  UNL     1      11.838   4.411  19.814  1.00  0.00    -0.061 NA
HETATM   24  O2  UNL     1      10.394   6.152  20.480  1.00  0.00    -0.275 OA
ENDBRANCH  21  22
ENDBRANCH   8  21
BRANCH   4  25
HETATM   25  N3  UNL     1      12.527   5.477  25.831  1.00  0.00    -0.313 NA
BRANCH  25  26
HETATM   26  N4  UNL     1      13.761   5.126  25.695  1.00  0.00    -0.278 N 
ATOM     27  H42 UNL     1      12.997   5.673  25.297  1.00  0.00     0.191 HD
ATOM     28  H41 UNL     1      14.735   4.840  25.598  1.00  0.00     0.191 HD
ENDBRANCH  25  26
ENDBRANCH   4  25
BRANCH   1  29
HETATM   29  N1  UNL     1       9.302   7.396  28.360  1.00  0.00    -0.234 N 
ATOM     30  H12 UNL     1       8.321   7.351  28.634  1.00  0.00     0.174 HD
ATOM     31  H11 UNL     1       9.998   7.892  28.916  1.00  0.00     0.174 HD
ENDBRANCH   1  29
TORSDOF 7
ENDMDL
