MODEL 1
REMARK VINA RESULT: -8.803573792      0.000      0.000
REMARK  14 active torsions:
REMARK  status: ('A' for Active; 'I' for Inactive)
REMARK    1  A    between atoms: N2_3  and  S1_5 
REMARK    2  A    between atoms: S1_5  and  C2_7 
REMARK    3  A    between atoms: S1_5  and  N3_11 
REMARK    4  A    between atoms: C2_7  and  C3_8 
REMARK    5  A    between atoms: N3_11  and  C6_13 
REMARK    6  A    between atoms: C6_13  and  C7_14 
REMARK    7  A    between atoms: C7_14  and  C8_16 
REMARK    8  A    between atoms: C11_19  and  C12_20 
REMARK    9  A    between atoms: C14_26  and  N6_27 
REMARK   10  A    between atoms: C15_32  and  N8_33 
REMARK   11  A    between atoms: C17_39  and  N10_40 
REMARK   12  A    between atoms: N10_40  and  C18_42 
REMARK   13  A    between atoms: C18_42  and  C19_43 
REMARK   14  A    between atoms: C19_43  and  N11_44 
ROOT
HETATM    1  N1  UNL     1      -9.355  26.345 -15.477  1.00  0.00    -0.171 NA
HETATM    2  C1  UNL     1      -8.204  26.544 -15.655  1.00  0.00     0.190 C 
HETATM    3  N2  UNL     1      -6.812  26.769 -15.892  1.00  0.00    -0.238 N 
ATOM      4  H2  UNL     1      -6.229  27.167 -15.155  1.00  0.00     0.189 HD
ENDROOT
BRANCH   3   5
HETATM    5  S1  UNL     1      -6.077  26.350 -17.493  1.00  0.00     0.115 S 
HETATM    6  O1  UNL     1      -4.557  26.396 -16.511  1.00  0.00    -0.228 OA
BRANCH   5   7
HETATM    7  C2  UNL     1      -6.384  27.966 -18.549  1.00  0.00     0.144 C 
BRANCH   7   8
HETATM    8  C3  UNL     1      -7.868  27.980 -18.899  1.00  0.00    -0.000 A 
HETATM    9  C4  UNL     1      -8.731  29.066 -18.381  1.00  0.00     0.006 A 
HETATM   10  C5  UNL     1      -8.391  29.000 -19.859  1.00  0.00     0.006 A 
ENDBRANCH   7   8
ENDBRANCH   5   7
BRANCH   5  11
HETATM   11  N3  UNL     1      -5.145  25.400 -18.539  1.00  0.00    -0.328 N 
ATOM     12  H3  UNL     1      -4.280  25.742 -18.957  1.00  0.00     0.171 HD
BRANCH  11  13
HETATM   13  C6  UNL     1      -5.664  24.048 -18.807  1.00  0.00     0.214 C 
BRANCH  13  14
HETATM   14  C7  UNL     1      -5.554  23.211 -17.608  1.00  0.00     0.177 C 
HETATM   15  O2  UNL     1      -4.476  22.575 -17.343  1.00  0.00    -0.291 OA
BRANCH  14  16
HETATM   16  C8  UNL     1      -6.682  23.104 -16.715  1.00  0.00     0.014 A 
HETATM   17  C9  UNL     1      -7.979  22.951 -17.138  1.00  0.00     0.016 A 
HETATM   18  C10 UNL     1      -9.026  22.850 -16.253  1.00  0.00     0.018 A 
HETATM   19  C11 UNL     1      -8.821  22.898 -14.868  1.00  0.00     0.034 A 
HETATM   20  C17 UNL     1      -7.533  23.051 -14.430  1.00  0.00     0.043 A 
HETATM   21  C24 UNL     1      -6.486  23.151 -15.364  1.00  0.00     0.045 A 
BRANCH  19  22
HETATM   22  C12 UNL     1      -9.984  22.808 -13.971  1.00  0.00     0.120 A 
HETATM   23  N4  UNL     1     -10.400  21.834 -13.155  1.00  0.00    -0.325 N 
HETATM   24  C13 UNL     1     -11.506  22.163 -12.513  1.00  0.00     0.153 A 
ATOM     25  H4  UNL     1      -9.919  20.942 -13.042  1.00  0.00     0.169 HD
HETATM   26  N5  UNL     1     -12.312  21.577 -11.614  1.00  0.00    -0.174 N 
HETATM   27  C16 UNL     1     -11.845  23.429 -12.928  1.00  0.00     0.123 A 
HETATM   28  C14 UNL     1     -13.413  22.198 -11.130  1.00  0.00     0.679 A 
ATOM     29  H5  UNL     1     -12.088  20.637 -11.286  1.00  0.00     0.186 HD
HETATM   30  N7  UNL     1     -13.750  23.446 -11.536  1.00  0.00    -0.175 N 
HETATM   31  C15 UNL     1     -12.970  24.065 -12.433  1.00  0.00     0.145 A 
ATOM     32  H7  UNL     1     -14.580  23.907 -11.165  1.00  0.00     0.186 HD
HETATM   33  N9  UNL     1     -10.888  23.792 -13.823  1.00  0.00    -0.336 N 
ATOM     34  H9  UNL     1     -10.860  24.686 -14.312  1.00  0.00     0.168 HD
BRANCH  28  35
HETATM   35  N6  UNL     1     -14.155  21.610 -10.283  1.00  0.00    -0.234 N 
ATOM     36  H62 UNL     1     -14.454  20.654 -10.475  1.00  0.00     0.174 HD
ATOM     37  H61 UNL     1     -14.438  22.092  -9.430  1.00  0.00     0.174 HD
ENDBRANCH  28  35
BRANCH  31  38
HETATM   38  N8  UNL     1     -13.244  25.240 -12.844  1.00  0.00    -0.383 N 
ATOM     39  H82 UNL     1     -13.910  25.803 -12.317  1.00  0.00     0.157 HD
ATOM     40  H81 UNL     1     -12.810  25.618 -13.686  1.00  0.00     0.157 HD
ENDBRANCH  31  38
ENDBRANCH  19  22
BRANCH  20  41
HETATM   41  N10 UNL     1      -7.204  23.060 -13.040  1.00  0.00    -0.387 N 
ATOM     42  H10 UNL     1      -7.817  22.594 -12.371  1.00  0.00     0.159 HD
BRANCH  41  43
HETATM   43  C18 UNL     1      -5.993  23.734 -12.572  1.00  0.00     0.150 C 
BRANCH  43  44
HETATM   44  C19 UNL     1      -5.228  22.786 -11.714  1.00  0.00     0.292 C 
BRANCH  44  45
HETATM   45  N11 UNL     1      -3.806  22.750 -12.006  1.00  0.00     0.090 N 
HETATM   46  C20 UNL     1      -3.622  22.715 -13.446  1.00  0.00     0.272 C 
HETATM   47  C21 UNL     1      -2.362  23.512 -13.710  1.00  0.00     0.032 C 
HETATM   48  C22 UNL     1      -2.474  24.619 -12.682  1.00  0.00     0.032 C 
HETATM   49  C23 UNL     1      -3.193  23.970 -11.548  1.00  0.00     0.272 C 
ENDBRANCH  44  45
ENDBRANCH  43  44
ENDBRANCH  41  43
ENDBRANCH  20  41
ENDBRANCH  14  16
ENDBRANCH  13  14
ENDBRANCH  11  13
ENDBRANCH   5  11
ENDBRANCH   3   5
TORSDOF 14
ENDMDL
MODEL 2
REMARK VINA RESULT: -8.774424400      1.302      1.893
REMARK  14 active torsions:
REMARK  status: ('A' for Active; 'I' for Inactive)
REMARK    1  A    between atoms: N2_3  and  S1_5 
REMARK    2  A    between atoms: S1_5  and  C2_7 
REMARK    3  A    between atoms: S1_5  and  N3_11 
REMARK    4  A    between atoms: C2_7  and  C3_8 
REMARK    5  A    between atoms: N3_11  and  C6_13 
REMARK    6  A    between atoms: C6_13  and  C7_14 
REMARK    7  A    between atoms: C7_14  and  C8_16 
REMARK    8  A    between atoms: C11_19  and  C12_20 
REMARK    9  A    between atoms: C14_26  and  N6_27 
REMARK   10  A    between atoms: C15_32  and  N8_33 
REMARK   11  A    between atoms: C17_39  and  N10_40 
REMARK   12  A    between atoms: N10_40  and  C18_42 
REMARK   13  A    between atoms: C18_42  and  C19_43 
REMARK   14  A    between atoms: C19_43  and  N11_44 
ROOT
HETATM    1  N1  UNL     1      -3.055  27.823 -14.413  1.00  0.00    -0.171 NA
HETATM    2  C1  UNL     1      -3.127  27.111 -15.352  1.00  0.00     0.190 C 
HETATM    3  N2  UNL     1      -3.241  26.248 -16.487  1.00  0.00    -0.238 N 
ATOM      4  H2  UNL     1      -2.409  25.793 -16.864  1.00  0.00     0.189 HD
ENDROOT
BRANCH   3   5
HETATM    5  S1  UNL     1      -4.853  25.958 -17.259  1.00  0.00     0.115 S 
HETATM    6  O1  UNL     1      -4.006  26.680 -18.685  1.00  0.00    -0.228 OA
BRANCH   5   7
HETATM    7  C2  UNL     1      -6.019  27.212 -16.314  1.00  0.00     0.144 C 
BRANCH   7   8
HETATM    8  C3  UNL     1      -7.428  26.635 -16.392  1.00  0.00    -0.000 A 
HETATM    9  C4  UNL     1      -8.254  26.552 -15.166  1.00  0.00     0.006 A 
HETATM   10  C5  UNL     1      -8.607  27.546 -16.258  1.00  0.00     0.006 A 
ENDBRANCH   7   8
ENDBRANCH   5   7
BRANCH   5  11
HETATM   11  N3  UNL     1      -5.884  25.316 -18.437  1.00  0.00    -0.328 N 
ATOM     12  H3  UNL     1      -6.613  25.873 -18.882  1.00  0.00     0.171 HD
BRANCH  11  13
HETATM   13  C6  UNL     1      -5.660  23.901 -18.779  1.00  0.00     0.214 C 
BRANCH  13  14
HETATM   14  C7  UNL     1      -5.556  23.091 -17.562  1.00  0.00     0.177 C 
HETATM   15  O2  UNL     1      -4.479  22.459 -17.279  1.00  0.00    -0.291 OA
BRANCH  14  16
HETATM   16  C8  UNL     1      -6.687  23.004 -16.671  1.00  0.00     0.014 A 
HETATM   17  C9  UNL     1      -7.985  22.867 -17.097  1.00  0.00     0.016 A 
HETATM   18  C10 UNL     1      -9.036  22.786 -16.214  1.00  0.00     0.018 A 
HETATM   19  C11 UNL     1      -8.833  22.838 -14.828  1.00  0.00     0.034 A 
HETATM   20  C17 UNL     1      -7.544  22.975 -14.388  1.00  0.00     0.043 A 
HETATM   21  C24 UNL     1      -6.494  23.056 -15.320  1.00  0.00     0.045 A 
BRANCH  19  22
HETATM   22  C12 UNL     1      -9.999  22.770 -13.934  1.00  0.00     0.120 A 
HETATM   23  N4  UNL     1     -10.458  21.789 -13.150  1.00  0.00    -0.325 N 
HETATM   24  C13 UNL     1     -11.549  22.144 -12.497  1.00  0.00     0.153 A 
ATOM     25  H4  UNL     1     -10.017  20.873 -13.067  1.00  0.00     0.169 HD
HETATM   26  N5  UNL     1     -12.380  21.565 -11.617  1.00  0.00    -0.174 N 
HETATM   27  C16 UNL     1     -11.832  23.437 -12.869  1.00  0.00     0.123 A 
HETATM   28  C14 UNL     1     -13.453  22.217 -11.112  1.00  0.00     0.679 A 
ATOM     29  H5  UNL     1     -12.198  20.606 -11.321  1.00  0.00     0.186 HD
HETATM   30  N7  UNL     1     -13.734  23.492 -11.475  1.00  0.00    -0.175 N 
HETATM   31  C15 UNL     1     -12.928  24.105 -12.352  1.00  0.00     0.145 A 
ATOM     32  H7  UNL     1     -14.544  23.976 -11.088  1.00  0.00     0.186 HD
HETATM   33  N9  UNL     1     -10.859  23.788 -13.752  1.00  0.00    -0.336 N 
ATOM     34  H9  UNL     1     -10.792  24.695 -14.212  1.00  0.00     0.168 HD
BRANCH  28  35
HETATM   35  N6  UNL     1     -14.221  21.635 -10.284  1.00  0.00    -0.234 N 
ATOM     36  H62 UNL     1     -13.855  20.849  -9.747  1.00  0.00     0.174 HD
ATOM     37  H61 UNL     1     -15.181  21.956 -10.164  1.00  0.00     0.174 HD
ENDBRANCH  28  35
BRANCH  31  38
HETATM   38  N8  UNL     1     -13.149  25.304 -12.723  1.00  0.00    -0.383 N 
ATOM     39  H82 UNL     1     -13.331  25.489 -13.710  1.00  0.00     0.157 HD
ATOM     40  H81 UNL     1     -13.144  26.072 -12.053  1.00  0.00     0.157 HD
ENDBRANCH  31  38
ENDBRANCH  19  22
BRANCH  20  41
HETATM   41  N10 UNL     1      -7.219  22.986 -12.998  1.00  0.00    -0.387 N 
ATOM     42  H10 UNL     1      -7.822  22.504 -12.331  1.00  0.00     0.159 HD
BRANCH  41  43
HETATM   43  C18 UNL     1      -6.024  23.687 -12.524  1.00  0.00     0.150 C 
BRANCH  43  44
HETATM   44  C19 UNL     1      -5.233  22.749 -11.678  1.00  0.00     0.292 C 
BRANCH  44  45
HETATM   45  N11 UNL     1      -3.818  22.724 -12.001  1.00  0.00     0.090 N 
HETATM   46  C20 UNL     1      -3.662  22.788 -13.444  1.00  0.00     0.272 C 
HETATM   47  C21 UNL     1      -2.401  23.593 -13.676  1.00  0.00     0.032 C 
HETATM   48  C22 UNL     1      -2.483  24.626 -12.572  1.00  0.00     0.032 C 
HETATM   49  C23 UNL     1      -3.185  23.905 -11.472  1.00  0.00     0.272 C 
ENDBRANCH  44  45
ENDBRANCH  43  44
ENDBRANCH  41  43
ENDBRANCH  20  41
ENDBRANCH  14  16
ENDBRANCH  13  14
ENDBRANCH  11  13
ENDBRANCH   5  11
ENDBRANCH   3   5
TORSDOF 14
ENDMDL
MODEL 3
REMARK VINA RESULT: -8.768862581      1.240      1.918
REMARK  14 active torsions:
REMARK  status: ('A' for Active; 'I' for Inactive)
REMARK    1  A    between atoms: N2_3  and  S1_5 
REMARK    2  A    between atoms: S1_5  and  C2_7 
REMARK    3  A    between atoms: S1_5  and  N3_11 
REMARK    4  A    between atoms: C2_7  and  C3_8 
REMARK    5  A    between atoms: N3_11  and  C6_13 
REMARK    6  A    between atoms: C6_13  and  C7_14 
REMARK    7  A    between atoms: C7_14  and  C8_16 
REMARK    8  A    between atoms: C11_19  and  C12_20 
REMARK    9  A    between atoms: C14_26  and  N6_27 
REMARK   10  A    between atoms: C15_32  and  N8_33 
REMARK   11  A    between atoms: C17_39  and  N10_40 
REMARK   12  A    between atoms: N10_40  and  C18_42 
REMARK   13  A    between atoms: C18_42  and  C19_43 
REMARK   14  A    between atoms: C19_43  and  N11_44 
ROOT
HETATM    1  N1  UNL     1      -7.503  30.215 -19.014  1.00  0.00    -0.171 NA
HETATM    2  C1  UNL     1      -6.545  29.648 -18.621  1.00  0.00     0.190 C 
HETATM    3  N2  UNL     1      -5.400  28.941 -18.135  1.00  0.00    -0.238 N 
ATOM      4  H2  UNL     1      -4.511  29.429 -18.028  1.00  0.00     0.189 HD
ENDROOT
BRANCH   3   5
HETATM    5  S1  UNL     1      -5.521  27.185 -17.710  1.00  0.00     0.115 S 
HETATM    6  O1  UNL     1      -4.994  27.002 -19.432  1.00  0.00    -0.228 OA
BRANCH   5   7
HETATM    7  C2  UNL     1      -7.441  26.934 -17.441  1.00  0.00     0.144 C 
BRANCH   7   8
HETATM    8  C3  UNL     1      -7.739  27.372 -16.011  1.00  0.00    -0.000 A 
HETATM    9  C4  UNL     1      -8.663  26.570 -15.178  1.00  0.00     0.006 A 
HETATM   10  C5  UNL     1      -7.177  26.590 -14.867  1.00  0.00     0.006 A 
ENDBRANCH   7   8
ENDBRANCH   5   7
BRANCH   5  11
HETATM   11  N3  UNL     1      -4.920  25.610 -17.559  1.00  0.00    -0.328 N 
ATOM     12  H3  UNL     1      -4.301  25.336 -16.796  1.00  0.00     0.171 HD
BRANCH  11  13
HETATM   13  C6  UNL     1      -5.348  24.661 -18.600  1.00  0.00     0.214 C 
BRANCH  13  14
HETATM   14  C7  UNL     1      -5.638  23.351 -18.009  1.00  0.00     0.177 C 
HETATM   15  O2  UNL     1      -4.940  22.322 -18.310  1.00  0.00    -0.291 OA
BRANCH  14  16
HETATM   16  C8  UNL     1      -6.731  23.222 -17.076  1.00  0.00     0.014 A 
HETATM   17  C9  UNL     1      -8.054  23.247 -17.441  1.00  0.00     0.016 A 
HETATM   18  C10 UNL     1      -9.066  23.118 -16.519  1.00  0.00     0.018 A 
HETATM   19  C11 UNL     1      -8.795  22.954 -15.154  1.00  0.00     0.034 A 
HETATM   20  C17 UNL     1      -7.481  22.928 -14.774  1.00  0.00     0.043 A 
HETATM   21  C24 UNL     1      -6.471  23.063 -15.744  1.00  0.00     0.045 A 
BRANCH  19  22
HETATM   22  C12 UNL     1      -9.921  22.846 -14.213  1.00  0.00     0.120 A 
HETATM   23  N4  UNL     1     -10.271  21.879 -13.358  1.00  0.00    -0.325 N 
HETATM   24  C13 UNL     1     -11.364  22.183 -12.683  1.00  0.00     0.153 A 
ATOM     25  H4  UNL     1      -9.753  21.007 -13.241  1.00  0.00     0.169 HD
HETATM   26  N5  UNL     1     -12.114  21.593 -11.741  1.00  0.00    -0.174 N 
HETATM   27  C16 UNL     1     -11.764  23.426 -13.115  1.00  0.00     0.123 A 
HETATM   28  C14 UNL     1     -13.219  22.186 -11.232  1.00  0.00     0.679 A 
ATOM     29  H5  UNL     1     -11.844  20.670 -11.399  1.00  0.00     0.186 HD
HETATM   30  N7  UNL     1     -13.616  23.410 -11.654  1.00  0.00    -0.175 N 
HETATM   31  C15 UNL     1     -12.893  24.033 -12.595  1.00  0.00     0.145 A 
ATOM     32  H7  UNL     1     -14.449  23.850 -11.263  1.00  0.00     0.186 HD
HETATM   33  N9  UNL     1     -10.854  23.800 -14.054  1.00  0.00    -0.336 N 
ATOM     34  H9  UNL     1     -10.877  24.682 -14.566  1.00  0.00     0.168 HD
BRANCH  28  35
HETATM   35  N6  UNL     1     -13.907  21.593 -10.343  1.00  0.00    -0.234 N 
ATOM     36  H62 UNL     1     -14.924  21.634 -10.405  1.00  0.00     0.174 HD
ATOM     37  H61 UNL     1     -13.443  21.088  -9.589  1.00  0.00     0.174 HD
ENDBRANCH  28  35
BRANCH  31  38
HETATM   38  N8  UNL     1     -13.224  25.186 -13.023  1.00  0.00    -0.383 N 
ATOM     39  H82 UNL     1     -13.999  25.675 -12.575  1.00  0.00     0.157 HD
ATOM     40  H81 UNL     1     -12.731  25.621 -13.803  1.00  0.00     0.157 HD
ENDBRANCH  31  38
ENDBRANCH  19  22
BRANCH  20  41
HETATM   41  N10 UNL     1      -7.091  22.714 -13.417  1.00  0.00    -0.387 N 
ATOM     42  H10 UNL     1      -7.574  22.011 -12.855  1.00  0.00     0.159 HD
BRANCH  41  43
HETATM   43  C18 UNL     1      -6.003  23.496 -12.827  1.00  0.00     0.150 C 
BRANCH  43  44
HETATM   44  C19 UNL     1      -5.192  22.595 -11.962  1.00  0.00     0.292 C 
BRANCH  44  45
HETATM   45  N11 UNL     1      -3.761  22.703 -12.184  1.00  0.00     0.090 N 
HETATM   46  C20 UNL     1      -3.514  22.822 -13.610  1.00  0.00     0.272 C 
HETATM   47  C21 UNL     1      -2.317  23.742 -13.736  1.00  0.00     0.032 C 
HETATM   48  C22 UNL     1      -2.568  24.732 -12.617  1.00  0.00     0.032 C 
HETATM   49  C23 UNL     1      -3.276  23.920 -11.586  1.00  0.00     0.272 C 
ENDBRANCH  44  45
ENDBRANCH  43  44
ENDBRANCH  41  43
ENDBRANCH  20  41
ENDBRANCH  14  16
ENDBRANCH  13  14
ENDBRANCH  11  13
ENDBRANCH   5  11
ENDBRANCH   3   5
TORSDOF 14
ENDMDL
MODEL 4
REMARK VINA RESULT: -8.471800325      1.018      1.248
REMARK  14 active torsions:
REMARK  status: ('A' for Active; 'I' for Inactive)
REMARK    1  A    between atoms: N2_3  and  S1_5 
REMARK    2  A    between atoms: S1_5  and  C2_7 
REMARK    3  A    between atoms: S1_5  and  N3_11 
REMARK    4  A    between atoms: C2_7  and  C3_8 
REMARK    5  A    between atoms: N3_11  and  C6_13 
REMARK    6  A    between atoms: C6_13  and  C7_14 
REMARK    7  A    between atoms: C7_14  and  C8_16 
REMARK    8  A    between atoms: C11_19  and  C12_20 
REMARK    9  A    between atoms: C14_26  and  N6_27 
REMARK   10  A    between atoms: C15_32  and  N8_33 
REMARK   11  A    between atoms: C17_39  and  N10_40 
REMARK   12  A    between atoms: N10_40  and  C18_42 
REMARK   13  A    between atoms: C18_42  and  C19_43 
REMARK   14  A    between atoms: C19_43  and  N11_44 
ROOT
HETATM    1  N1  UNL     1      -9.518  26.728 -16.527  1.00  0.00    -0.171 NA
HETATM    2  C1  UNL     1      -8.393  27.039 -16.346  1.00  0.00     0.190 C 
HETATM    3  N2  UNL     1      -7.023  27.395 -16.142  1.00  0.00    -0.238 N 
ATOM      4  H2  UNL     1      -6.771  28.034 -15.388  1.00  0.00     0.189 HD
ENDROOT
BRANCH   3   5
HETATM    5  S1  UNL     1      -5.732  26.717 -17.216  1.00  0.00     0.115 S 
HETATM    6  O1  UNL     1      -4.997  26.288 -15.619  1.00  0.00    -0.228 OA
BRANCH   5   7
HETATM    7  C2  UNL     1      -4.963  28.317 -18.035  1.00  0.00     0.144 C 
BRANCH   7   8
HETATM    8  C3  UNL     1      -5.222  28.203 -19.533  1.00  0.00    -0.000 A 
HETATM    9  C4  UNL     1      -4.887  29.339 -20.422  1.00  0.00     0.006 A 
HETATM   10  C5  UNL     1      -4.069  28.061 -20.474  1.00  0.00     0.006 A 
ENDBRANCH   7   8
ENDBRANCH   5   7
BRANCH   5  11
HETATM   11  N3  UNL     1      -4.723  25.487 -17.794  1.00  0.00    -0.328 N 
ATOM     12  H3  UNL     1      -3.751  25.398 -17.497  1.00  0.00     0.171 HD
BRANCH  11  13
HETATM   13  C6  UNL     1      -5.338  24.554 -18.753  1.00  0.00     0.214 C 
BRANCH  13  14
HETATM   14  C7  UNL     1      -5.601  23.262 -18.112  1.00  0.00     0.177 C 
HETATM   15  O2  UNL     1      -4.886  22.235 -18.380  1.00  0.00    -0.291 OA
BRANCH  14  16
HETATM   16  C8  UNL     1      -6.685  23.148 -17.168  1.00  0.00     0.014 A 
HETATM   17  C9  UNL     1      -8.012  23.210 -17.516  1.00  0.00     0.016 A 
HETATM   18  C10 UNL     1      -9.015  23.094 -16.584  1.00  0.00     0.018 A 
HETATM   19  C11 UNL     1      -8.732  22.907 -15.224  1.00  0.00     0.034 A 
HETATM   20  C17 UNL     1      -7.415  22.844 -14.860  1.00  0.00     0.043 A 
HETATM   21  C24 UNL     1      -6.414  22.966 -15.841  1.00  0.00     0.045 A 
BRANCH  19  22
HETATM   22  C12 UNL     1      -9.849  22.814 -14.270  1.00  0.00     0.120 A 
HETATM   23  N4  UNL     1     -10.192  21.860 -13.398  1.00  0.00    -0.325 N 
HETATM   24  C13 UNL     1     -11.278  22.176 -12.717  1.00  0.00     0.153 A 
ATOM     25  H4  UNL     1      -9.674  20.990 -13.273  1.00  0.00     0.169 HD
HETATM   26  N5  UNL     1     -12.020  21.601 -11.759  1.00  0.00    -0.174 N 
HETATM   27  C16 UNL     1     -11.681  23.413 -13.164  1.00  0.00     0.123 A 
HETATM   28  C14 UNL     1     -13.119  22.203 -11.249  1.00  0.00     0.679 A 
ATOM     29  H5  UNL     1     -11.748  20.683 -11.406  1.00  0.00     0.186 HD
HETATM   30  N7  UNL     1     -13.519  23.422 -11.685  1.00  0.00    -0.175 N 
HETATM   31  C15 UNL     1     -12.804  24.029 -12.642  1.00  0.00     0.145 A 
ATOM     32  H7  UNL     1     -14.347  23.869 -11.293  1.00  0.00     0.186 HD
HETATM   33  N9  UNL     1     -10.780  23.772 -14.117  1.00  0.00    -0.336 N 
ATOM     34  H9  UNL     1     -10.807  24.646 -14.642  1.00  0.00     0.168 HD
BRANCH  28  35
HETATM   35  N6  UNL     1     -13.800  21.625 -10.345  1.00  0.00    -0.234 N 
ATOM     36  H62 UNL     1     -13.885  20.609 -10.371  1.00  0.00     0.174 HD
ATOM     37  H61 UNL     1     -14.246  22.174  -9.611  1.00  0.00     0.174 HD
ENDBRANCH  28  35
BRANCH  31  38
HETATM   38  N8  UNL     1     -13.138  25.177 -13.085  1.00  0.00    -0.383 N 
ATOM     39  H82 UNL     1     -13.526  25.861 -12.436  1.00  0.00     0.157 HD
ATOM     40  H81 UNL     1     -13.025  25.415 -14.070  1.00  0.00     0.157 HD
ENDBRANCH  31  38
ENDBRANCH  19  22
BRANCH  20  41
HETATM   41  N10 UNL     1      -7.014  22.603 -13.511  1.00  0.00    -0.387 N 
ATOM     42  H10 UNL     1      -7.426  21.827 -12.991  1.00  0.00     0.159 HD
BRANCH  41  43
HETATM   43  C18 UNL     1      -6.017  23.462 -12.871  1.00  0.00     0.150 C 
BRANCH  43  44
HETATM   44  C19 UNL     1      -5.150  22.613 -12.007  1.00  0.00     0.292 C 
BRANCH  44  45
HETATM   45  N11 UNL     1      -3.729  22.803 -12.239  1.00  0.00     0.090 N 
HETATM   46  C20 UNL     1      -3.518  23.105 -13.644  1.00  0.00     0.272 C 
HETATM   47  C21 UNL     1      -2.358  24.078 -13.677  1.00  0.00     0.032 C 
HETATM   48  C22 UNL     1      -2.620  24.914 -12.441  1.00  0.00     0.032 C 
HETATM   49  C23 UNL     1      -3.275  23.956 -11.505  1.00  0.00     0.272 C 
ENDBRANCH  44  45
ENDBRANCH  43  44
ENDBRANCH  41  43
ENDBRANCH  20  41
ENDBRANCH  14  16
ENDBRANCH  13  14
ENDBRANCH  11  13
ENDBRANCH   5  11
ENDBRANCH   3   5
TORSDOF 14
ENDMDL
MODEL 5
REMARK VINA RESULT: -8.465224927      5.067     10.107
REMARK  14 active torsions:
REMARK  status: ('A' for Active; 'I' for Inactive)
REMARK    1  A    between atoms: N2_3  and  S1_5 
REMARK    2  A    between atoms: S1_5  and  C2_7 
REMARK    3  A    between atoms: S1_5  and  N3_11 
REMARK    4  A    between atoms: C2_7  and  C3_8 
REMARK    5  A    between atoms: N3_11  and  C6_13 
REMARK    6  A    between atoms: C6_13  and  C7_14 
REMARK    7  A    between atoms: C7_14  and  C8_16 
REMARK    8  A    between atoms: C11_19  and  C12_20 
REMARK    9  A    between atoms: C14_26  and  N6_27 
REMARK   10  A    between atoms: C15_32  and  N8_33 
REMARK   11  A    between atoms: C17_39  and  N10_40 
REMARK   12  A    between atoms: N10_40  and  C18_42 
REMARK   13  A    between atoms: C18_42  and  C19_43 
REMARK   14  A    between atoms: C19_43  and  N11_44 
ROOT
HETATM    1  N1  UNL     1     -20.296  19.377 -10.573  1.00  0.00    -0.171 NA
HETATM    2  C1  UNL     1     -19.306  19.828 -10.114  1.00  0.00     0.190 C 
HETATM    3  N2  UNL     1     -18.105  20.391  -9.579  1.00  0.00    -0.238 N 
ATOM      4  H2  UNL     1     -17.607  19.907  -8.832  1.00  0.00     0.189 HD
ENDROOT
BRANCH   3   5
HETATM    5  S1  UNL     1     -17.464  21.958 -10.221  1.00  0.00     0.115 S 
HETATM    6  O1  UNL     1     -16.230  21.681  -8.927  1.00  0.00    -0.228 OA
BRANCH   5   7
HETATM    7  C2  UNL     1     -18.858  23.236  -9.724  1.00  0.00     0.144 C 
BRANCH   7   8
HETATM    8  C3  UNL     1     -19.696  23.471 -10.975  1.00  0.00    -0.000 A 
HETATM    9  C4  UNL     1     -21.160  23.256 -10.925  1.00  0.00     0.006 A 
HETATM   10  C5  UNL     1     -20.599  24.661 -11.047  1.00  0.00     0.006 A 
ENDBRANCH   7   8
ENDBRANCH   5   7
BRANCH   5  11
HETATM   11  N3  UNL     1     -16.268  22.958 -10.880  1.00  0.00    -0.328 N 
ATOM     12  H3  UNL     1     -16.492  23.833 -11.354  1.00  0.00     0.171 HD
BRANCH  11  13
HETATM   13  C6  UNL     1     -14.882  22.485 -10.725  1.00  0.00     0.214 C 
BRANCH  13  14
HETATM   14  C7  UNL     1     -13.973  23.618 -10.534  1.00  0.00     0.177 C 
HETATM   15  O2  UNL     1     -14.305  24.616  -9.804  1.00  0.00    -0.291 OA
BRANCH  14  16
HETATM   16  C8  UNL     1     -12.683  23.608 -11.181  1.00  0.00     0.014 A 
HETATM   17  C9  UNL     1     -11.489  23.680 -10.508  1.00  0.00     0.016 A 
HETATM   18  C10 UNL     1     -10.282  23.665 -11.164  1.00  0.00     0.018 A 
HETATM   19  C11 UNL     1     -10.209  23.574 -12.560  1.00  0.00     0.034 A 
HETATM   20  C17 UNL     1     -11.390  23.502 -13.247  1.00  0.00     0.043 A 
HETATM   21  C24 UNL     1     -12.608  23.521 -12.543  1.00  0.00     0.045 A 
BRANCH  19  22
HETATM   22  C12 UNL     1      -8.887  23.586 -13.207  1.00  0.00     0.120 A 
HETATM   23  N4  UNL     1      -8.175  22.613 -13.785  1.00  0.00    -0.325 N 
HETATM   24  C13 UNL     1      -7.022  23.053 -14.254  1.00  0.00     0.153 A 
ATOM     25  H4  UNL     1      -8.486  21.644 -13.854  1.00  0.00     0.169 HD
HETATM   26  N5  UNL     1      -5.973  22.518 -14.897  1.00  0.00    -0.174 N 
HETATM   27  C16 UNL     1      -6.964  24.397 -13.971  1.00  0.00     0.123 A 
HETATM   28  C14 UNL     1      -4.900  23.261 -15.256  1.00  0.00     0.679 A 
ATOM     29  H5  UNL     1      -5.984  21.523 -15.122  1.00  0.00     0.186 HD
HETATM   30  N7  UNL     1      -4.840  24.586 -14.980  1.00  0.00    -0.175 N 
HETATM   31  C15 UNL     1      -5.869  25.158 -14.338  1.00  0.00     0.145 A 
ATOM     32  H7  UNL     1      -4.028  25.139 -15.255  1.00  0.00     0.186 HD
HETATM   33  N9  UNL     1      -8.126  24.688 -13.328  1.00  0.00    -0.336 N 
ATOM     34  H9  UNL     1      -8.385  25.613 -12.985  1.00  0.00     0.168 HD
BRANCH  28  35
HETATM   35  N6  UNL     1      -3.923  22.719 -15.860  1.00  0.00    -0.234 N 
ATOM     36  H62 UNL     1      -3.947  21.713 -16.025  1.00  0.00     0.174 HD
ATOM     37  H61 UNL     1      -3.135  23.287 -16.171  1.00  0.00     0.174 HD
ENDBRANCH  28  35
BRANCH  31  38
HETATM   38  N8  UNL     1      -5.860  26.401 -14.057  1.00  0.00    -0.383 N 
ATOM     39  H82 UNL     1      -5.155  26.756 -13.412  1.00  0.00     0.157 HD
ATOM     40  H81 UNL     1      -6.545  27.037 -14.465  1.00  0.00     0.157 HD
ENDBRANCH  31  38
ENDBRANCH  19  22
BRANCH  20  41
HETATM   41  N10 UNL     1     -11.431  23.354 -14.666  1.00  0.00    -0.387 N 
ATOM     42  H10 UNL     1     -11.739  22.472 -15.076  1.00  0.00     0.159 HD
BRANCH  41  43
HETATM   43  C18 UNL     1     -11.033  24.461 -15.537  1.00  0.00     0.150 C 
BRANCH  43  44
HETATM   44  C19 UNL     1     -10.232  23.908 -16.665  1.00  0.00     0.292 C 
BRANCH  44  45
HETATM   45  N11 UNL     1      -9.890  24.891 -17.677  1.00  0.00     0.090 N 
HETATM   46  C20 UNL     1     -11.042  25.743 -17.914  1.00  0.00     0.272 C 
HETATM   47  C21 UNL     1     -10.474  27.116 -18.206  1.00  0.00     0.032 C 
HETATM   48  C22 UNL     1      -9.293  27.171 -17.259  1.00  0.00     0.032 C 
HETATM   49  C23 UNL     1      -8.848  25.750 -17.175  1.00  0.00     0.272 C 
ENDBRANCH  44  45
ENDBRANCH  43  44
ENDBRANCH  41  43
ENDBRANCH  20  41
ENDBRANCH  14  16
ENDBRANCH  13  14
ENDBRANCH  11  13
ENDBRANCH   5  11
ENDBRANCH   3   5
TORSDOF 14
ENDMDL
