MODEL 1
REMARK VINA RESULT: -8.346673437      0.000      0.000
REMARK  17 active torsions:
REMARK  status: ('A' for Active; 'I' for Inactive)
REMARK    1  A    between atoms: C3_5  and  C4_6 
REMARK    2  A    between atoms: C4_6  and  N2_7 
REMARK    3  A    between atoms: C4_6  and  N3_11 
REMARK    4  A    between atoms: N3_11  and  C5_14 
REMARK    5  A    between atoms: C5_14  and  C6_15 
REMARK    6  A    between atoms: C6_15  and  C7_16 
REMARK    7  A    between atoms: C7_16  and  N4_17 
REMARK    8  A    between atoms: N4_17  and  C8_19 
REMARK    9  A    between atoms: C9_23  and  C10_24 
REMARK   10  A    between atoms: C10_24  and  C11_25 
REMARK   11  A    between atoms: C11_25  and  C12_26 
REMARK   12  A    between atoms: C15_34  and  N8_35 
REMARK   13  A    between atoms: C17_41  and  C18_42 
REMARK   14  A    between atoms: C18_42  and  C19_43 
REMARK   15  A    between atoms: C19_43  and  N10_44 
REMARK       I    between atoms: N10_44  and  C20_46 
REMARK   16  A    between atoms: C20_46  and  O5_48 
REMARK   17  A    between atoms: O5_48  and  C21_49 
ROOT
HETATM    1  C1  UNL     1      -8.936  26.055 -14.181  1.00  0.00     0.232 C 
HETATM    2  N1  UNL     1      -9.561  25.200 -13.714  1.00  0.00    -0.403 NA
HETATM    3  C2  UNL     1     -10.335  24.180 -13.153  1.00  0.00     0.244 A 
HETATM    4  O1  UNL     1     -11.318  24.309 -12.295  1.00  0.00    -0.264 OA
HETATM    5  C3  UNL     1     -11.834  23.145 -11.969  1.00  0.00     0.185 A 
HETATM    6  N5  UNL     1     -11.150  22.210 -12.652  1.00  0.00    -0.336 N 
ATOM      7  H5  UNL     1     -11.308  21.202 -12.620  1.00  0.00     0.167 HD
HETATM    8  C9  UNL     1     -10.226  22.845 -13.382  1.00  0.00     0.077 A 
ENDROOT
BRANCH   8   9
HETATM    9  C10 UNL     1      -9.261  22.159 -14.275  1.00  0.00     0.069 C 
BRANCH   9  10
HETATM   10  C11 UNL     1      -9.700  22.054 -15.672  1.00  0.00     0.064 C 
BRANCH  10  11
HETATM   11  C12 UNL     1      -9.742  23.249 -16.507  1.00  0.00     0.018 A 
HETATM   12  N6  UNL     1     -10.821  24.103 -16.635  1.00  0.00    -0.353 N 
HETATM   13  C13 UNL     1     -10.544  25.082 -17.495  1.00  0.00     0.130 A 
ATOM     14  H6  UNL     1     -11.706  23.999 -16.139  1.00  0.00     0.166 HD
HETATM   15  C14 UNL     1     -11.249  26.173 -17.978  1.00  0.00     0.288 A 
HETATM   16  C16 UNL     1      -9.258  24.879 -17.950  1.00  0.00     0.089 A 
HETATM   17  O3  UNL     1     -12.408  26.398 -17.598  1.00  0.00    -0.265 OA
HETATM   18  N7  UNL     1     -10.699  27.026 -18.873  1.00  0.00    -0.154 N 
HETATM   19  C15 UNL     1      -9.446  26.809 -19.301  1.00  0.00     0.679 A 
ATOM     20  H7  UNL     1     -11.231  27.825 -19.217  1.00  0.00     0.187 HD
HETATM   21  N9  UNL     1      -8.757  25.752 -18.838  1.00  0.00    -0.189 N 
ATOM     22  H9  UNL     1      -7.806  25.606 -19.178  1.00  0.00     0.184 HD
HETATM   23  C17 UNL     1      -8.749  23.717 -17.321  1.00  0.00    -0.004 A 
BRANCH  19  24
HETATM   24  N8  UNL     1      -8.907  27.615 -20.157  1.00  0.00    -0.234 N 
ATOM     25  H82 UNL     1      -8.767  28.597 -19.919  1.00  0.00     0.174 HD
ATOM     26  H81 UNL     1      -8.620  27.268 -21.072  1.00  0.00     0.174 HD
ENDBRANCH  19  24
BRANCH  23  27
HETATM   27  C18 UNL     1      -7.370  23.269 -17.590  1.00  0.00     0.062 C 
BRANCH  27  28
HETATM   28  C19 UNL     1      -6.403  24.097 -16.780  1.00  0.00     0.130 C 
BRANCH  28  29
HETATM   29  N10 UNL     1      -6.443  23.798 -15.361  1.00  0.00    -0.337 N 
HETATM   30  C20 UNL     1      -5.579  22.847 -14.802  1.00  0.00     0.361 C 
HETATM   31  O4  UNL     1      -4.762  22.226 -15.498  1.00  0.00    -0.238 OA
ATOM     32  H10 UNL     1      -7.110  24.287 -14.763  1.00  0.00     0.164 HD
BRANCH  30  33
HETATM   33  O5  UNL     1      -5.614  22.573 -13.444  1.00  0.00    -0.294 OA
BRANCH  33  34
HETATM   34  C21 UNL     1      -4.775  23.123 -12.472  1.00  0.00     0.061 C 
HETATM   35  C22 UNL     1      -4.391  24.555 -12.771  1.00  0.00     0.046 C 
HETATM   36  C23 UNL     1      -5.528  23.099 -11.143  1.00  0.00     0.046 C 
HETATM   37  C24 UNL     1      -3.555  22.255 -12.313  1.00  0.00     0.046 C 
ENDBRANCH  33  34
ENDBRANCH  30  33
ENDBRANCH  28  29
ENDBRANCH  27  28
ENDBRANCH  23  27
ENDBRANCH  10  11
ENDBRANCH   9  10
ENDBRANCH   8   9
BRANCH   5  38
HETATM   38  C4  UNL     1     -12.945  22.924 -11.037  1.00  0.00     0.454 C 
BRANCH  38  39
HETATM   39  N2  UNL     1     -13.160  21.492 -10.855  1.00  0.00    -0.043 N 
ATOM     40  H23 UNL     1     -12.946  20.962 -11.699  1.00  0.00     0.277 HD
ATOM     41  H22 UNL     1     -12.463  21.075 -10.238  1.00  0.00     0.277 HD
ATOM     42  H21 UNL     1     -14.111  21.325 -10.528  1.00  0.00     0.277 HD
ENDBRANCH  38  39
BRANCH  38  43
HETATM   43  N3  UNL     1     -12.757  23.561  -9.783  1.00  0.00    -0.038 N 
ATOM     44  H32 UNL     1     -13.009  22.937  -9.017  1.00  0.00     0.280 HD
ATOM     45  H31 UNL     1     -11.764  23.680  -9.581  1.00  0.00     0.280 HD
BRANCH  43  46
HETATM   46  C5  UNL     1     -13.464  24.829  -9.674  1.00  0.00     0.240 C 
BRANCH  46  47
HETATM   47  C6  UNL     1     -12.532  25.921  -9.405  1.00  0.00     0.072 C 
BRANCH  47  48
HETATM   48  C7  UNL     1     -11.162  25.658  -8.962  1.00  0.00     0.065 C 
BRANCH  48  49
HETATM   49  N4  UNL     1     -10.067  25.713  -9.833  1.00  0.00    -0.348 N 
ATOM     50  H4  UNL     1     -10.155  26.405 -10.577  1.00  0.00     0.167 HD
BRANCH  49  51
HETATM   51  C8  UNL     1      -8.885  24.989  -9.858  1.00  0.00     0.352 C 
HETATM   52  O2  UNL     1      -8.804  23.775 -10.050  1.00  0.00    -0.283 OA
ENDBRANCH  49  51
ENDBRANCH  48  49
ENDBRANCH  47  48
ENDBRANCH  46  47
ENDBRANCH  43  46
ENDBRANCH  38  43
ENDBRANCH   5  38
TORSDOF 17
ENDMDL
MODEL 2
REMARK VINA RESULT: -8.305853049      1.302      1.844
REMARK  17 active torsions:
REMARK  status: ('A' for Active; 'I' for Inactive)
REMARK    1  A    between atoms: C3_5  and  C4_6 
REMARK    2  A    between atoms: C4_6  and  N2_7 
REMARK    3  A    between atoms: C4_6  and  N3_11 
REMARK    4  A    between atoms: N3_11  and  C5_14 
REMARK    5  A    between atoms: C5_14  and  C6_15 
REMARK    6  A    between atoms: C6_15  and  C7_16 
REMARK    7  A    between atoms: C7_16  and  N4_17 
REMARK    8  A    between atoms: N4_17  and  C8_19 
REMARK    9  A    between atoms: C9_23  and  C10_24 
REMARK   10  A    between atoms: C10_24  and  C11_25 
REMARK   11  A    between atoms: C11_25  and  C12_26 
REMARK   12  A    between atoms: C15_34  and  N8_35 
REMARK   13  A    between atoms: C17_41  and  C18_42 
REMARK   14  A    between atoms: C18_42  and  C19_43 
REMARK   15  A    between atoms: C19_43  and  N10_44 
REMARK       I    between atoms: N10_44  and  C20_46 
REMARK   16  A    between atoms: C20_46  and  O5_48 
REMARK   17  A    between atoms: O5_48  and  C21_49 
ROOT
HETATM    1  C1  UNL     1      -7.335  23.256 -10.268  1.00  0.00     0.232 C 
HETATM    2  N1  UNL     1      -8.333  23.111 -10.837  1.00  0.00    -0.403 NA
HETATM    3  C2  UNL     1      -9.547  22.952 -11.510  1.00  0.00     0.244 A 
HETATM    4  O1  UNL     1     -10.749  22.923 -10.986  1.00  0.00    -0.264 OA
HETATM    5  C3  UNL     1     -11.675  22.758 -11.904  1.00  0.00     0.185 A 
HETATM    6  N5  UNL     1     -11.042  22.675 -13.088  1.00  0.00    -0.336 N 
ATOM      7  H5  UNL     1     -11.480  22.546 -14.000  1.00  0.00     0.167 HD
HETATM    8  C9  UNL     1      -9.731  22.794 -12.848  1.00  0.00     0.077 A 
ENDROOT
BRANCH   8   9
HETATM    9  C10 UNL     1      -8.689  22.750 -13.902  1.00  0.00     0.069 C 
BRANCH   9  10
HETATM   10  C11 UNL     1      -9.180  22.327 -15.219  1.00  0.00     0.064 C 
BRANCH  10  11
HETATM   11  C12 UNL     1      -9.427  23.328 -16.252  1.00  0.00     0.018 A 
HETATM   12  N6  UNL     1     -10.570  24.094 -16.372  1.00  0.00    -0.353 N 
HETATM   13  C13 UNL     1     -10.491  24.890 -17.438  1.00  0.00     0.130 A 
ATOM     14  H6  UNL     1     -11.365  24.056 -15.734  1.00  0.00     0.166 HD
HETATM   15  C14 UNL     1     -11.333  25.832 -18.005  1.00  0.00     0.288 A 
HETATM   16  C16 UNL     1      -9.273  24.652 -18.040  1.00  0.00     0.089 A 
HETATM   17  O3  UNL     1     -12.438  26.082 -17.500  1.00  0.00    -0.265 OA
HETATM   18  N7  UNL     1     -10.980  26.510 -19.122  1.00  0.00    -0.154 N 
HETATM   19  C15 UNL     1      -9.791  26.261 -19.691  1.00  0.00     0.679 A 
ATOM     20  H7  UNL     1     -11.611  27.201 -19.527  1.00  0.00     0.187 HD
HETATM   21  N9  UNL     1      -8.969  25.349 -19.146  1.00  0.00    -0.189 N 
ATOM     22  H9  UNL     1      -8.069  25.176 -19.595  1.00  0.00     0.184 HD
HETATM   23  C17 UNL     1      -8.598  23.662 -17.286  1.00  0.00    -0.004 A 
BRANCH  19  24
HETATM   24  N8  UNL     1      -9.439  26.900 -20.759  1.00  0.00    -0.234 N 
ATOM     25  H82 UNL     1     -10.104  27.033 -21.520  1.00  0.00     0.174 HD
ATOM     26  H81 UNL     1      -8.492  27.273 -20.841  1.00  0.00     0.174 HD
ENDBRANCH  19  24
BRANCH  23  27
HETATM   27  C18 UNL     1      -7.244  23.225 -17.675  1.00  0.00     0.062 C 
BRANCH  27  28
HETATM   28  C19 UNL     1      -6.217  24.107 -17.007  1.00  0.00     0.130 C 
BRANCH  28  29
HETATM   29  N10 UNL     1      -5.548  23.461 -15.894  1.00  0.00    -0.337 N 
HETATM   30  C20 UNL     1      -4.312  23.930 -15.428  1.00  0.00     0.361 C 
HETATM   31  O4  UNL     1      -3.747  24.901 -15.955  1.00  0.00    -0.238 OA
ATOM     32  H10 UNL     1      -5.983  22.655 -15.445  1.00  0.00     0.164 HD
BRANCH  30  33
HETATM   33  O5  UNL     1      -3.682  23.317 -14.357  1.00  0.00    -0.294 OA
BRANCH  33  34
HETATM   34  C21 UNL     1      -3.881  23.613 -13.006  1.00  0.00     0.061 C 
HETATM   35  C22 UNL     1      -4.186  22.386 -12.176  1.00  0.00     0.046 C 
HETATM   36  C23 UNL     1      -2.593  24.239 -12.475  1.00  0.00     0.046 C 
HETATM   37  C24 UNL     1      -4.970  24.643 -12.874  1.00  0.00     0.046 C 
ENDBRANCH  33  34
ENDBRANCH  30  33
ENDBRANCH  28  29
ENDBRANCH  27  28
ENDBRANCH  23  27
ENDBRANCH  10  11
ENDBRANCH   9  10
ENDBRANCH   8   9
BRANCH   5  38
HETATM   38  C4  UNL     1     -13.120  22.681 -11.667  1.00  0.00     0.454 C 
BRANCH  38  39
HETATM   39  N2  UNL     1     -13.403  21.667 -10.658  1.00  0.00    -0.043 N 
ATOM     40  H23 UNL     1     -14.356  21.737 -10.301  1.00  0.00     0.277 HD
ATOM     41  H22 UNL     1     -13.465  20.731 -11.060  1.00  0.00     0.277 HD
ATOM     42  H21 UNL     1     -12.710  21.718  -9.913  1.00  0.00     0.277 HD
ENDBRANCH  38  39
BRANCH  38  43
HETATM   43  N3  UNL     1     -13.692  23.925 -11.295  1.00  0.00    -0.038 N 
ATOM     44  H32 UNL     1     -13.321  24.682 -11.869  1.00  0.00     0.280 HD
ATOM     45  H31 UNL     1     -14.673  23.972 -11.571  1.00  0.00     0.280 HD
BRANCH  43  46
HETATM   46  C5  UNL     1     -13.538  24.224  -9.878  1.00  0.00     0.240 C 
BRANCH  46  47
HETATM   47  C6  UNL     1     -13.068  25.594  -9.686  1.00  0.00     0.072 C 
BRANCH  47  48
HETATM   48  C7  UNL     1     -11.654  25.885  -9.447  1.00  0.00     0.065 C 
BRANCH  48  49
HETATM   49  N4  UNL     1     -10.715  25.955 -10.484  1.00  0.00    -0.348 N 
ATOM     50  H4  UNL     1      -9.785  25.620 -10.235  1.00  0.00     0.167 HD
BRANCH  49  51
HETATM   51  C8  UNL     1     -10.834  26.403 -11.791  1.00  0.00     0.352 C 
HETATM   52  O2  UNL     1     -11.499  25.852 -12.669  1.00  0.00    -0.283 OA
ENDBRANCH  49  51
ENDBRANCH  48  49
ENDBRANCH  47  48
ENDBRANCH  46  47
ENDBRANCH  43  46
ENDBRANCH  38  43
ENDBRANCH   5  38
TORSDOF 17
ENDMDL
MODEL 3
REMARK VINA RESULT: -8.055263485      2.225      3.284
REMARK  17 active torsions:
REMARK  status: ('A' for Active; 'I' for Inactive)
REMARK    1  A    between atoms: C3_5  and  C4_6 
REMARK    2  A    between atoms: C4_6  and  N2_7 
REMARK    3  A    between atoms: C4_6  and  N3_11 
REMARK    4  A    between atoms: N3_11  and  C5_14 
REMARK    5  A    between atoms: C5_14  and  C6_15 
REMARK    6  A    between atoms: C6_15  and  C7_16 
REMARK    7  A    between atoms: C7_16  and  N4_17 
REMARK    8  A    between atoms: N4_17  and  C8_19 
REMARK    9  A    between atoms: C9_23  and  C10_24 
REMARK   10  A    between atoms: C10_24  and  C11_25 
REMARK   11  A    between atoms: C11_25  and  C12_26 
REMARK   12  A    between atoms: C15_34  and  N8_35 
REMARK   13  A    between atoms: C17_41  and  C18_42 
REMARK   14  A    between atoms: C18_42  and  C19_43 
REMARK   15  A    between atoms: C19_43  and  N10_44 
REMARK       I    between atoms: N10_44  and  C20_46 
REMARK   16  A    between atoms: C20_46  and  O5_48 
REMARK   17  A    between atoms: O5_48  and  C21_49 
ROOT
HETATM    1  C1  UNL     1      -9.155  26.016 -14.049  1.00  0.00     0.232 C 
HETATM    2  N1  UNL     1      -9.736  25.139 -13.565  1.00  0.00    -0.403 NA
HETATM    3  C2  UNL     1     -10.458  24.093 -12.984  1.00  0.00     0.244 A 
HETATM    4  O1  UNL     1     -11.409  24.186 -12.087  1.00  0.00    -0.264 OA
HETATM    5  C3  UNL     1     -11.878  23.005 -11.751  1.00  0.00     0.185 A 
HETATM    6  N5  UNL     1     -11.194  22.095 -12.468  1.00  0.00    -0.336 N 
ATOM      7  H5  UNL     1     -11.320  21.083 -12.439  1.00  0.00     0.167 HD
HETATM    8  C9  UNL     1     -10.318  22.763 -13.228  1.00  0.00     0.077 A 
ENDROOT
BRANCH   8   9
HETATM    9  C10 UNL     1      -9.369  22.113 -14.163  1.00  0.00     0.069 C 
BRANCH   9  10
HETATM   10  C11 UNL     1      -9.855  22.011 -15.544  1.00  0.00     0.064 C 
BRANCH  10  11
HETATM   11  C12 UNL     1      -9.850  23.193 -16.400  1.00  0.00     0.018 A 
HETATM   12  N6  UNL     1     -10.902  24.074 -16.561  1.00  0.00    -0.353 N 
HETATM   13  C13 UNL     1     -10.584  25.030 -17.433  1.00  0.00     0.130 A 
ATOM     14  H6  UNL     1     -11.799  24.002 -16.080  1.00  0.00     0.166 HD
HETATM   15  C14 UNL     1     -11.249  26.131 -17.946  1.00  0.00     0.288 A 
HETATM   16  C16 UNL     1      -9.296  24.784 -17.861  1.00  0.00     0.089 A 
HETATM   17  O3  UNL     1     -12.408  26.394 -17.591  1.00  0.00    -0.265 OA
HETATM   18  N7  UNL     1     -10.660  26.954 -18.845  1.00  0.00    -0.154 N 
HETATM   19  C15 UNL     1      -9.407  26.695 -19.247  1.00  0.00     0.679 A 
ATOM     20  H7  UNL     1     -11.164  27.761 -19.212  1.00  0.00     0.187 HD
HETATM   21  N9  UNL     1      -8.755  25.628 -18.754  1.00  0.00    -0.189 N 
ATOM     22  H9  UNL     1      -7.803  25.450 -19.074  1.00  0.00     0.184 HD
HETATM   23  C17 UNL     1      -8.831  23.619 -17.204  1.00  0.00    -0.004 A 
BRANCH  19  24
HETATM   24  N8  UNL     1      -8.831  27.471 -20.106  1.00  0.00    -0.234 N 
ATOM     25  H82 UNL     1      -8.483  27.093 -20.987  1.00  0.00     0.174 HD
ATOM     26  H81 UNL     1      -8.723  28.465 -19.902  1.00  0.00     0.174 HD
ENDBRANCH  19  24
BRANCH  23  27
HETATM   27  C18 UNL     1      -7.460  23.130 -17.441  1.00  0.00     0.062 C 
BRANCH  27  28
HETATM   28  C19 UNL     1      -6.477  23.997 -16.693  1.00  0.00     0.130 C 
BRANCH  28  29
HETATM   29  N10 UNL     1      -6.524  23.806 -15.256  1.00  0.00    -0.337 N 
HETATM   30  C20 UNL     1      -5.733  22.831 -14.634  1.00  0.00     0.361 C 
HETATM   31  O4  UNL     1      -4.977  22.096 -15.288  1.00  0.00    -0.238 OA
ATOM     32  H10 UNL     1      -7.142  24.389 -14.691  1.00  0.00     0.164 HD
BRANCH  30  33
HETATM   33  O5  UNL     1      -5.773  22.659 -13.259  1.00  0.00    -0.294 OA
BRANCH  33  34
HETATM   34  C21 UNL     1      -4.856  23.172 -12.339  1.00  0.00     0.061 C 
HETATM   35  C22 UNL     1      -4.388  24.567 -12.693  1.00  0.00     0.046 C 
HETATM   36  C23 UNL     1      -5.549  23.234 -10.979  1.00  0.00     0.046 C 
HETATM   37  C24 UNL     1      -3.692  22.226 -12.209  1.00  0.00     0.046 C 
ENDBRANCH  33  34
ENDBRANCH  30  33
ENDBRANCH  28  29
ENDBRANCH  27  28
ENDBRANCH  23  27
ENDBRANCH  10  11
ENDBRANCH   9  10
ENDBRANCH   8   9
BRANCH   5  38
HETATM   38  C4  UNL     1     -12.944  22.743 -10.779  1.00  0.00     0.454 C 
BRANCH  38  39
HETATM   39  N2  UNL     1     -12.650  23.430  -9.526  1.00  0.00    -0.043 N 
ATOM     40  H23 UNL     1     -12.917  24.414  -9.556  1.00  0.00     0.277 HD
ATOM     41  H22 UNL     1     -13.269  23.132  -8.771  1.00  0.00     0.277 HD
ATOM     42  H21 UNL     1     -11.667  23.306  -9.287  1.00  0.00     0.277 HD
ENDBRANCH  38  39
BRANCH  38  43
HETATM   43  N3  UNL     1     -14.233  23.104 -11.252  1.00  0.00    -0.038 N 
ATOM     44  H32 UNL     1     -14.437  24.081 -11.041  1.00  0.00     0.280 HD
ATOM     45  H31 UNL     1     -14.246  23.148 -12.271  1.00  0.00     0.280 HD
BRANCH  43  46
HETATM   46  C5  UNL     1     -15.289  22.234 -10.756  1.00  0.00     0.240 C 
BRANCH  46  47
HETATM   47  C6  UNL     1     -16.493  23.002 -10.450  1.00  0.00     0.072 C 
BRANCH  47  48
HETATM   48  C7  UNL     1     -17.824  22.490 -10.777  1.00  0.00     0.065 C 
BRANCH  48  49
HETATM   49  N4  UNL     1     -18.964  23.302 -10.768  1.00  0.00    -0.348 N 
ATOM     50  H4  UNL     1     -19.715  22.982 -11.379  1.00  0.00     0.167 HD
BRANCH  49  51
HETATM   51  C8  UNL     1     -19.247  24.468 -10.071  1.00  0.00     0.352 C 
HETATM   52  O2  UNL     1     -19.669  25.508 -10.577  1.00  0.00    -0.283 OA
ENDBRANCH  49  51
ENDBRANCH  48  49
ENDBRANCH  47  48
ENDBRANCH  46  47
ENDBRANCH  43  46
ENDBRANCH  38  43
ENDBRANCH   5  38
TORSDOF 17
ENDMDL
MODEL 4
REMARK VINA RESULT: -7.982643062      1.626      2.773
REMARK  17 active torsions:
REMARK  status: ('A' for Active; 'I' for Inactive)
REMARK    1  A    between atoms: C3_5  and  C4_6 
REMARK    2  A    between atoms: C4_6  and  N2_7 
REMARK    3  A    between atoms: C4_6  and  N3_11 
REMARK    4  A    between atoms: N3_11  and  C5_14 
REMARK    5  A    between atoms: C5_14  and  C6_15 
REMARK    6  A    between atoms: C6_15  and  C7_16 
REMARK    7  A    between atoms: C7_16  and  N4_17 
REMARK    8  A    between atoms: N4_17  and  C8_19 
REMARK    9  A    between atoms: C9_23  and  C10_24 
REMARK   10  A    between atoms: C10_24  and  C11_25 
REMARK   11  A    between atoms: C11_25  and  C12_26 
REMARK   12  A    between atoms: C15_34  and  N8_35 
REMARK   13  A    between atoms: C17_41  and  C18_42 
REMARK   14  A    between atoms: C18_42  and  C19_43 
REMARK   15  A    between atoms: C19_43  and  N10_44 
REMARK       I    between atoms: N10_44  and  C20_46 
REMARK   16  A    between atoms: C20_46  and  O5_48 
REMARK   17  A    between atoms: O5_48  and  C21_49 
ROOT
HETATM    1  C1  UNL     1      -7.611  26.565 -14.816  1.00  0.00     0.232 C 
HETATM    2  N1  UNL     1      -8.028  25.844 -14.011  1.00  0.00    -0.403 NA
HETATM    3  C2  UNL     1      -8.550  24.988 -13.038  1.00  0.00     0.244 A 
HETATM    4  O1  UNL     1      -9.127  25.325 -11.910  1.00  0.00    -0.264 OA
HETATM    5  C3  UNL     1      -9.504  24.270 -11.224  1.00  0.00     0.185 A 
HETATM    6  N5  UNL     1      -9.154  23.189 -11.943  1.00  0.00    -0.336 N 
ATOM      7  H5  UNL     1      -9.309  22.215 -11.685  1.00  0.00     0.167 HD
HETATM    8  C9  UNL     1      -8.566  23.629 -13.062  1.00  0.00     0.077 A 
ENDROOT
BRANCH   8   9
HETATM    9  C10 UNL     1      -8.030  22.739 -14.120  1.00  0.00     0.069 C 
BRANCH   9  10
HETATM   10  C11 UNL     1      -8.998  22.397 -15.169  1.00  0.00     0.064 C 
BRANCH  10  11
HETATM   11  C12 UNL     1      -9.294  23.363 -16.221  1.00  0.00     0.018 A 
HETATM   12  N6  UNL     1     -10.447  24.120 -16.317  1.00  0.00    -0.353 N 
HETATM   13  C13 UNL     1     -10.417  24.883 -17.409  1.00  0.00     0.130 A 
ATOM     14  H6  UNL     1     -11.214  24.097 -15.645  1.00  0.00     0.166 HD
HETATM   15  C14 UNL     1     -11.288  25.803 -17.969  1.00  0.00     0.288 A 
HETATM   16  C16 UNL     1      -9.223  24.633 -18.053  1.00  0.00     0.089 A 
HETATM   17  O3  UNL     1     -12.373  26.062 -17.427  1.00  0.00    -0.265 OA
HETATM   18  N7  UNL     1     -10.986  26.447 -19.121  1.00  0.00    -0.154 N 
HETATM   19  C15 UNL     1      -9.819  26.187 -19.730  1.00  0.00     0.679 A 
ATOM     20  H7  UNL     1     -11.638  27.122 -19.520  1.00  0.00     0.187 HD
HETATM   21  N9  UNL     1      -8.970  25.296 -19.192  1.00  0.00    -0.189 N 
ATOM     22  H9  UNL     1      -8.088  25.114 -19.673  1.00  0.00     0.184 HD
HETATM   23  C17 UNL     1      -8.511  23.670 -17.298  1.00  0.00    -0.004 A 
BRANCH  19  24
HETATM   24  N8  UNL     1      -9.516  26.795 -20.831  1.00  0.00    -0.234 N 
ATOM     25  H82 UNL     1      -8.541  26.990 -21.058  1.00  0.00     0.174 HD
ATOM     26  H81 UNL     1     -10.254  27.079 -21.476  1.00  0.00     0.174 HD
ENDBRANCH  19  24
BRANCH  23  27
HETATM   27  C18 UNL     1      -7.172  23.229 -17.730  1.00  0.00     0.062 C 
BRANCH  27  28
HETATM   28  C19 UNL     1      -6.122  24.111 -17.101  1.00  0.00     0.130 C 
BRANCH  28  29
HETATM   29  N10 UNL     1      -5.398  23.460 -16.025  1.00  0.00    -0.337 N 
HETATM   30  C20 UNL     1      -4.218  24.016 -15.513  1.00  0.00     0.361 C 
HETATM   31  O4  UNL     1      -3.749  25.071 -15.966  1.00  0.00    -0.238 OA
ATOM     32  H10 UNL     1      -5.753  22.586 -15.636  1.00  0.00     0.164 HD
BRANCH  30  33
HETATM   33  O5  UNL     1      -3.536  23.396 -14.478  1.00  0.00    -0.294 OA
BRANCH  33  34
HETATM   34  C21 UNL     1      -3.661  23.691 -13.118  1.00  0.00     0.061 C 
HETATM   35  C22 UNL     1      -4.865  24.555 -12.813  1.00  0.00     0.046 C 
HETATM   36  C23 UNL     1      -3.822  22.369 -12.370  1.00  0.00     0.046 C 
HETATM   37  C24 UNL     1      -2.392  24.335 -12.626  1.00  0.00     0.046 C 
ENDBRANCH  33  34
ENDBRANCH  30  33
ENDBRANCH  28  29
ENDBRANCH  27  28
ENDBRANCH  23  27
ENDBRANCH  10  11
ENDBRANCH   9  10
ENDBRANCH   8   9
BRANCH   5  38
HETATM   38  C4  UNL     1     -10.179  24.284  -9.921  1.00  0.00     0.454 C 
BRANCH  38  39
HETATM   39  N2  UNL     1     -10.231  25.647  -9.406  1.00  0.00    -0.043 N 
ATOM     40  H23 UNL     1      -9.303  26.013  -9.194  1.00  0.00     0.277 HD
ATOM     41  H22 UNL     1     -10.495  26.320 -10.126  1.00  0.00     0.277 HD
ATOM     42  H21 UNL     1     -10.852  25.688  -8.598  1.00  0.00     0.277 HD
ENDBRANCH  38  39
BRANCH  38  43
HETATM   43  N3  UNL     1     -11.480  23.717  -9.960  1.00  0.00    -0.038 N 
ATOM     44  H32 UNL     1     -11.436  22.721 -10.171  1.00  0.00     0.280 HD
ATOM     45  H31 UNL     1     -11.885  23.672  -9.025  1.00  0.00     0.280 HD
BRANCH  43  46
HETATM   46  C5  UNL     1     -12.375  24.404 -10.880  1.00  0.00     0.240 C 
BRANCH  46  47
HETATM   47  C6  UNL     1     -13.034  23.450 -11.769  1.00  0.00     0.072 C 
BRANCH  47  48
HETATM   48  C7  UNL     1     -13.262  22.063 -11.361  1.00  0.00     0.065 C 
BRANCH  48  49
HETATM   49  N4  UNL     1     -14.398  21.667 -10.646  1.00  0.00    -0.348 N 
ATOM     50  H4  UNL     1     -14.269  20.831 -10.078  1.00  0.00     0.167 HD
BRANCH  49  51
HETATM   51  C8  UNL     1     -15.669  22.218 -10.579  1.00  0.00     0.352 C 
HETATM   52  O2  UNL     1     -16.296  22.669 -11.539  1.00  0.00    -0.283 OA
ENDBRANCH  49  51
ENDBRANCH  48  49
ENDBRANCH  47  48
ENDBRANCH  46  47
ENDBRANCH  43  46
ENDBRANCH  38  43
ENDBRANCH   5  38
TORSDOF 17
ENDMDL
MODEL 5
REMARK VINA RESULT: -7.958755941      2.102      3.217
REMARK  17 active torsions:
REMARK  status: ('A' for Active; 'I' for Inactive)
REMARK    1  A    between atoms: C3_5  and  C4_6 
REMARK    2  A    between atoms: C4_6  and  N2_7 
REMARK    3  A    between atoms: C4_6  and  N3_11 
REMARK    4  A    between atoms: N3_11  and  C5_14 
REMARK    5  A    between atoms: C5_14  and  C6_15 
REMARK    6  A    between atoms: C6_15  and  C7_16 
REMARK    7  A    between atoms: C7_16  and  N4_17 
REMARK    8  A    between atoms: N4_17  and  C8_19 
REMARK    9  A    between atoms: C9_23  and  C10_24 
REMARK   10  A    between atoms: C10_24  and  C11_25 
REMARK   11  A    between atoms: C11_25  and  C12_26 
REMARK   12  A    between atoms: C15_34  and  N8_35 
REMARK   13  A    between atoms: C17_41  and  C18_42 
REMARK   14  A    between atoms: C18_42  and  C19_43 
REMARK   15  A    between atoms: C19_43  and  N10_44 
REMARK       I    between atoms: N10_44  and  C20_46 
REMARK   16  A    between atoms: C20_46  and  O5_48 
REMARK   17  A    between atoms: O5_48  and  C21_49 
ROOT
HETATM    1  C1  UNL     1     -13.072  23.246 -11.981  1.00  0.00     0.232 C 
HETATM    2  N1  UNL     1     -11.918  23.323 -12.054  1.00  0.00    -0.403 NA
HETATM    3  C2  UNL     1     -10.525  23.412 -12.117  1.00  0.00     0.244 A 
HETATM    4  O1  UNL     1      -9.731  24.050 -11.292  1.00  0.00    -0.264 OA
HETATM    5  C3  UNL     1      -8.470  23.932 -11.644  1.00  0.00     0.185 A 
HETATM    6  N5  UNL     1      -8.443  23.177 -12.756  1.00  0.00    -0.336 N 
ATOM      7  H5  UNL     1      -7.612  22.900 -13.279  1.00  0.00     0.167 HD
HETATM    8  C9  UNL     1      -9.708  22.856 -13.050  1.00  0.00     0.077 A 
ENDROOT
BRANCH   8   9
HETATM    9  C10 UNL     1     -10.103  22.030 -14.217  1.00  0.00     0.069 C 
BRANCH   9  10
HETATM   10  C11 UNL     1      -9.211  22.156 -15.376  1.00  0.00     0.064 C 
BRANCH  10  11
HETATM   11  C12 UNL     1      -9.431  23.227 -16.342  1.00  0.00     0.018 A 
HETATM   12  N6  UNL     1     -10.568  24.006 -16.435  1.00  0.00    -0.353 N 
HETATM   13  C13 UNL     1     -10.461  24.874 -17.440  1.00  0.00     0.130 A 
ATOM     14  H6  UNL     1     -11.378  23.927 -15.819  1.00  0.00     0.166 HD
HETATM   15  C14 UNL     1     -11.286  25.858 -17.960  1.00  0.00     0.288 A 
HETATM   16  C16 UNL     1      -9.230  24.672 -18.029  1.00  0.00     0.089 A 
HETATM   17  O3  UNL     1     -12.402  26.077 -17.464  1.00  0.00    -0.265 OA
HETATM   18  N7  UNL     1     -10.905  26.610 -19.018  1.00  0.00    -0.154 N 
HETATM   19  C15 UNL     1      -9.703  26.395 -19.575  1.00  0.00     0.679 A 
ATOM     20  H7  UNL     1     -11.524  27.330 -19.389  1.00  0.00     0.187 HD
HETATM   21  N9  UNL     1      -8.897  25.443 -19.076  1.00  0.00    -0.189 N 
ATOM     22  H9  UNL     1      -7.988  25.297 -19.516  1.00  0.00     0.184 HD
HETATM   23  C17 UNL     1      -8.576  23.628 -17.331  1.00  0.00    -0.004 A 
BRANCH  19  24
HETATM   24  N8  UNL     1      -9.324  27.105 -20.587  1.00  0.00    -0.234 N 
ATOM     25  H82 UNL     1      -9.742  28.021 -20.758  1.00  0.00     0.174 HD
ATOM     26  H81 UNL     1      -8.605  26.750 -21.218  1.00  0.00     0.174 HD
ENDBRANCH  19  24
BRANCH  23  27
HETATM   27  C18 UNL     1      -7.216  23.214 -17.718  1.00  0.00     0.062 C 
BRANCH  27  28
HETATM   28  C19 UNL     1      -6.210  24.185 -17.150  1.00  0.00     0.130 C 
BRANCH  28  29
HETATM   29  N10 UNL     1      -5.549  23.692 -15.957  1.00  0.00    -0.337 N 
HETATM   30  C20 UNL     1      -5.896  24.179 -14.690  1.00  0.00     0.361 C 
HETATM   31  O4  UNL     1      -6.768  25.049 -14.547  1.00  0.00    -0.238 OA
ATOM     32  H10 UNL     1      -4.821  22.982 -16.042  1.00  0.00     0.164 HD
BRANCH  30  33
HETATM   33  O5  UNL     1      -5.270  23.697 -13.551  1.00  0.00    -0.294 OA
BRANCH  33  34
HETATM   34  C21 UNL     1      -3.989  24.037 -13.111  1.00  0.00     0.061 C 
HETATM   35  C22 UNL     1      -3.697  25.516 -13.242  1.00  0.00     0.046 C 
HETATM   36  C23 UNL     1      -3.891  23.662 -11.633  1.00  0.00     0.046 C 
HETATM   37  C24 UNL     1      -2.968  23.215 -13.852  1.00  0.00     0.046 C 
ENDBRANCH  33  34
ENDBRANCH  30  33
ENDBRANCH  28  29
ENDBRANCH  27  28
ENDBRANCH  23  27
ENDBRANCH  10  11
ENDBRANCH   9  10
ENDBRANCH   8   9
BRANCH   5  38
HETATM   38  C4  UNL     1      -7.321  24.518 -10.945  1.00  0.00     0.454 C 
BRANCH  38  39
HETATM   39  N2  UNL     1      -6.930  25.764 -11.594  1.00  0.00    -0.043 N 
ATOM     40  H23 UNL     1      -7.095  25.741 -12.600  1.00  0.00     0.277 HD
ATOM     41  H22 UNL     1      -7.558  26.533 -11.359  1.00  0.00     0.277 HD
ATOM     42  H21 UNL     1      -5.959  25.981 -11.370  1.00  0.00     0.277 HD
ENDBRANCH  38  39
BRANCH  38  43
HETATM   43  N3  UNL     1      -7.558  24.731  -9.562  1.00  0.00    -0.038 N 
ATOM     44  H32 UNL     1      -8.087  25.590  -9.412  1.00  0.00     0.280 HD
ATOM     45  H31 UNL     1      -8.230  24.056  -9.200  1.00  0.00     0.280 HD
BRANCH  43  46
HETATM   46  C5  UNL     1      -6.339  24.728  -8.766  1.00  0.00     0.240 C 
BRANCH  46  47
HETATM   47  C6  UNL     1      -6.509  25.526  -7.554  1.00  0.00     0.072 C 
BRANCH  47  48
HETATM   48  C7  UNL     1      -7.763  25.503  -6.800  1.00  0.00     0.065 C 
BRANCH  48  49
HETATM   49  N4  UNL     1      -7.825  25.104  -5.459  1.00  0.00    -0.348 N 
ATOM     50  H4  UNL     1      -8.061  25.851  -4.807  1.00  0.00     0.167 HD
BRANCH  49  51
HETATM   51  C8  UNL     1      -7.621  23.867  -4.867  1.00  0.00     0.352 C 
HETATM   52  O2  UNL     1      -8.167  22.819  -5.213  1.00  0.00    -0.283 OA
ENDBRANCH  49  51
ENDBRANCH  48  49
ENDBRANCH  47  48
ENDBRANCH  46  47
ENDBRANCH  43  46
ENDBRANCH  38  43
ENDBRANCH   5  38
TORSDOF 17
ENDMDL
