MODEL 1
REMARK VINA RESULT: -7.000227566      0.000      0.000
REMARK  3 active torsions:
REMARK  status: ('A' for Active; 'I' for Inactive)
REMARK    1  A    between atoms: C2_2  and  C3_3 
REMARK    2  A    between atoms: C3_3  and  N1_4 
REMARK    3  A    between atoms: C14_16  and  O2_17 
ROOT
HETATM    1  N1  UNL     1       7.021  -2.182   7.830  1.00  0.00    -0.185 NA
HETATM    2  O1  UNL     1       7.402  -3.452   7.567  1.00  0.00    -0.296 OA
HETATM    3  C4  UNL     1       6.303  -3.972   8.248  1.00  0.00     0.167 C 
HETATM    4  C5  UNL     1       6.851  -4.833   9.377  1.00  0.00     0.041 C 
HETATM    5  C6  UNL     1       7.828  -3.817  10.002  1.00  0.00     0.001 C 
HETATM    6  C7  UNL     1       8.149  -4.410  11.350  1.00  0.00     0.006 C 
HETATM    7  C8  UNL     1       6.867  -4.229  12.086  1.00  0.00     0.006 C 
HETATM    8  C9  UNL     1       6.059  -3.166  11.362  1.00  0.00     0.002 C 
HETATM    9  C10 UNL     1       5.710  -2.118  12.373  1.00  0.00    -0.014 C 
HETATM   10  C11 UNL     1       5.151  -2.859  13.599  1.00  0.00     0.010 C 
HETATM   11  C12 UNL     1       6.895  -1.332  12.868  1.00  0.00     0.007 C 
HETATM   12  C13 UNL     1       7.998  -1.155  11.886  1.00  0.00     0.033 C 
HETATM   13  C14 UNL     1       7.477  -1.350  10.476  1.00  0.00     0.129 C 
HETATM   14  C15 UNL     1       6.885  -2.677  10.207  1.00  0.00     0.014 C 
HETATM   15  C16 UNL     1       6.154  -2.630   8.894  1.00  0.00     0.129 C 
ENDROOT
BRANCH   1  16
HETATM   16  C3  UNL     1       6.417  -1.628   6.655  1.00  0.00     0.147 C 
BRANCH  16  17
HETATM   17  C2  UNL     1       5.368  -0.620   6.883  1.00  0.00    -0.020 C 
HETATM   18  C1  UNL     1       4.538  -0.263   5.938  1.00  0.00     0.008 C 
ENDBRANCH  16  17
ENDBRANCH   1  16
BRANCH  13  19
HETATM   19  O2  UNL     1       6.412  -0.414  10.379  1.00  0.00    -0.395 OA
ATOM     20  H2  UNL     1       6.290  -0.310   9.443  1.00  0.00     0.210 HD
ENDBRANCH  13  19
TORSDOF 3
ENDMDL
MODEL 2
REMARK VINA RESULT: -6.795595303      1.977      4.292
REMARK  3 active torsions:
REMARK  status: ('A' for Active; 'I' for Inactive)
REMARK    1  A    between atoms: C2_2  and  C3_3 
REMARK    2  A    between atoms: C3_3  and  N1_4 
REMARK    3  A    between atoms: C14_16  and  O2_17 
ROOT
HETATM    1  N1  UNL     1       8.409  -4.479   9.614  1.00  0.00    -0.185 NA
HETATM    2  O1  UNL     1       8.417  -4.354  10.960  1.00  0.00    -0.296 OA
HETATM    3  C4  UNL     1       7.025  -4.328  11.013  1.00  0.00     0.167 C 
HETATM    4  C5  UNL     1       6.632  -2.998  11.640  1.00  0.00     0.041 C 
HETATM    5  C6  UNL     1       7.460  -2.056  10.743  1.00  0.00     0.001 C 
HETATM    6  C7  UNL     1       6.867  -0.696  11.007  1.00  0.00     0.006 C 
HETATM    7  C8  UNL     1       5.536  -0.799  10.347  1.00  0.00     0.006 C 
HETATM    8  C9  UNL     1       5.591  -1.955   9.364  1.00  0.00     0.002 C 
HETATM    9  C10 UNL     1       5.172  -1.415   8.032  1.00  0.00    -0.014 C 
HETATM   10  C11 UNL     1       3.877  -0.619   8.268  1.00  0.00     0.010 C 
HETATM   11  C12 UNL     1       6.153  -0.444   7.432  1.00  0.00     0.007 C 
HETATM   12  C13 UNL     1       7.580  -0.681   7.782  1.00  0.00     0.033 C 
HETATM   13  C14 UNL     1       7.776  -2.117   8.226  1.00  0.00     0.129 C 
HETATM   14  C15 UNL     1       6.981  -2.520   9.406  1.00  0.00     0.014 C 
HETATM   15  C16 UNL     1       7.042  -4.016   9.549  1.00  0.00     0.129 C 
ENDROOT
BRANCH   1  16
HETATM   16  C3  UNL     1       8.675  -5.845   9.276  1.00  0.00     0.147 C 
BRANCH  16  17
HETATM   17  C2  UNL     1       9.178  -6.085   7.912  1.00  0.00    -0.020 C 
HETATM   18  C1  UNL     1       8.625  -6.965   7.118  1.00  0.00     0.008 C 
ENDBRANCH  16  17
ENDBRANCH   1  16
BRANCH  13  19
HETATM   19  O2  UNL     1       7.277  -2.877   7.134  1.00  0.00    -0.395 OA
ATOM     20  H2  UNL     1       7.720  -3.713   7.221  1.00  0.00     0.210 HD
ENDBRANCH  13  19
TORSDOF 3
ENDMDL
MODEL 3
REMARK VINA RESULT: -6.738491227      2.652      5.727
REMARK  3 active torsions:
REMARK  status: ('A' for Active; 'I' for Inactive)
REMARK    1  A    between atoms: C2_2  and  C3_3 
REMARK    2  A    between atoms: C3_3  and  N1_4 
REMARK    3  A    between atoms: C14_16  and  O2_17 
ROOT
HETATM    1  N1  UNL     1       7.267  -4.973  10.728  1.00  0.00    -0.185 NA
HETATM    2  O1  UNL     1       8.277  -5.851  10.917  1.00  0.00    -0.296 OA
HETATM    3  C4  UNL     1       9.140  -5.101  10.120  1.00  0.00     0.167 C 
HETATM    4  C5  UNL     1       9.571  -6.000   8.970  1.00  0.00     0.041 C 
HETATM    5  C6  UNL     1       8.180  -6.469   8.497  1.00  0.00     0.001 C 
HETATM    6  C7  UNL     1       8.442  -7.053   7.133  1.00  0.00     0.006 C 
HETATM    7  C8  UNL     1       8.746  -5.840   6.324  1.00  0.00     0.006 C 
HETATM    8  C9  UNL     1       8.202  -4.634   7.070  1.00  0.00     0.002 C 
HETATM    9  C10 UNL     1       7.303  -3.903   6.121  1.00  0.00    -0.014 C 
HETATM   10  C11 UNL     1       8.083  -3.753   4.804  1.00  0.00     0.010 C 
HETATM   11  C12 UNL     1       6.045  -4.653   5.775  1.00  0.00     0.007 C 
HETATM   12  C13 UNL     1       5.519  -5.545   6.844  1.00  0.00     0.033 C 
HETATM   13  C14 UNL     1       6.057  -5.112   8.194  1.00  0.00     0.129 C 
HETATM   14  C15 UNL     1       7.530  -5.136   8.315  1.00  0.00     0.014 C 
HETATM   15  C16 UNL     1       7.929  -4.414   9.572  1.00  0.00     0.129 C 
ENDROOT
BRANCH   1  16
HETATM   16  C3  UNL     1       7.142  -4.154  11.896  1.00  0.00     0.147 C 
BRANCH  16  17
HETATM   17  C2  UNL     1       6.526  -4.796  13.070  1.00  0.00    -0.020 C 
HETATM   18  C1  UNL     1       5.648  -4.176  13.814  1.00  0.00     0.008 C 
ENDBRANCH  16  17
ENDBRANCH   1  16
BRANCH  13  19
HETATM   19  O2  UNL     1       5.673  -3.748   8.287  1.00  0.00    -0.395 OA
ATOM     20  H2  UNL     1       4.991  -3.751   8.948  1.00  0.00     0.210 HD
ENDBRANCH  13  19
TORSDOF 3
ENDMDL
MODEL 4
REMARK VINA RESULT: -6.601862794      0.758      1.052
REMARK  3 active torsions:
REMARK  status: ('A' for Active; 'I' for Inactive)
REMARK    1  A    between atoms: C2_2  and  C3_3 
REMARK    2  A    between atoms: C3_3  and  N1_4 
REMARK    3  A    between atoms: C14_16  and  O2_17 
ROOT
HETATM    1  N1  UNL     1       7.044  -2.450   7.755  1.00  0.00    -0.185 NA
HETATM    2  O1  UNL     1       7.470  -3.722   7.584  1.00  0.00    -0.296 OA
HETATM    3  C4  UNL     1       6.383  -4.230   8.293  1.00  0.00     0.167 C 
HETATM    4  C5  UNL     1       6.949  -4.992   9.482  1.00  0.00     0.041 C 
HETATM    5  C6  UNL     1       7.885  -3.902  10.042  1.00  0.00     0.001 C 
HETATM    6  C7  UNL     1       8.213  -4.389  11.430  1.00  0.00     0.006 C 
HETATM    7  C8  UNL     1       6.919  -4.200  12.143  1.00  0.00     0.006 C 
HETATM    8  C9  UNL     1       6.083  -3.218  11.341  1.00  0.00     0.002 C 
HETATM    9  C10 UNL     1       5.690  -2.115  12.274  1.00  0.00    -0.014 C 
HETATM   10  C11 UNL     1       5.145  -2.788  13.545  1.00  0.00     0.010 C 
HETATM   11  C12 UNL     1       6.843  -1.257  12.721  1.00  0.00     0.007 C 
HETATM   12  C13 UNL     1       7.949  -1.111  11.736  1.00  0.00     0.033 C 
HETATM   13  C14 UNL     1       7.448  -1.421  10.340  1.00  0.00     0.129 C 
HETATM   14  C15 UNL     1       6.903  -2.783  10.161  1.00  0.00     0.014 C 
HETATM   15  C16 UNL     1       6.183  -2.852   8.842  1.00  0.00     0.129 C 
ENDROOT
BRANCH   1  16
HETATM   16  C3  UNL     1       6.433  -2.001   6.540  1.00  0.00     0.147 C 
BRANCH  16  17
HETATM   17  C2  UNL     1       6.867  -2.685   5.310  1.00  0.00    -0.020 C 
HETATM   18  C1  UNL     1       6.130  -2.694   4.230  1.00  0.00     0.008 C 
ENDBRANCH  16  17
ENDBRANCH   1  16
BRANCH  13  19
HETATM   19  O2  UNL     1       6.354  -0.531  10.171  1.00  0.00    -0.395 OA
ATOM     20  H2  UNL     1       6.761   0.327  10.163  1.00  0.00     0.210 HD
ENDBRANCH  13  19
TORSDOF 3
ENDMDL
MODEL 5
REMARK VINA RESULT: -6.575719236      2.470      5.427
REMARK  3 active torsions:
REMARK  status: ('A' for Active; 'I' for Inactive)
REMARK    1  A    between atoms: C2_2  and  C3_3 
REMARK    2  A    between atoms: C3_3  and  N1_4 
REMARK    3  A    between atoms: C14_16  and  O2_17 
ROOT
HETATM    1  N1  UNL     1       7.293  -4.878  10.758  1.00  0.00    -0.185 NA
HETATM    2  O1  UNL     1       8.281  -5.782  10.948  1.00  0.00    -0.296 OA
HETATM    3  C4  UNL     1       9.156  -5.066  10.133  1.00  0.00     0.167 C 
HETATM    4  C5  UNL     1       9.550  -5.991   8.990  1.00  0.00     0.041 C 
HETATM    5  C6  UNL     1       8.141  -6.427   8.538  1.00  0.00     0.001 C 
HETATM    6  C7  UNL     1       8.373  -7.035   7.179  1.00  0.00     0.006 C 
HETATM    7  C8  UNL     1       8.701  -5.841   6.351  1.00  0.00     0.006 C 
HETATM    8  C9  UNL     1       8.199  -4.611   7.087  1.00  0.00     0.002 C 
HETATM    9  C10 UNL     1       7.311  -3.868   6.138  1.00  0.00    -0.014 C 
HETATM   10  C11 UNL     1       8.081  -3.755   4.812  1.00  0.00     0.010 C 
HETATM   11  C12 UNL     1       6.029  -4.587   5.815  1.00  0.00     0.007 C 
HETATM   12  C13 UNL     1       5.490  -5.450   6.900  1.00  0.00     0.033 C 
HETATM   13  C14 UNL     1       6.054  -5.016   8.238  1.00  0.00     0.129 C 
HETATM   14  C15 UNL     1       7.527  -5.078   8.345  1.00  0.00     0.014 C 
HETATM   15  C16 UNL     1       7.958  -4.352   9.589  1.00  0.00     0.129 C 
ENDROOT
BRANCH   1  16
HETATM   16  C3  UNL     1       7.203  -4.042  11.917  1.00  0.00     0.147 C 
BRANCH  16  17
HETATM   17  C2  UNL     1       6.832  -2.638  11.672  1.00  0.00    -0.020 C 
HETATM   18  C1  UNL     1       7.488  -1.647  12.216  1.00  0.00     0.008 C 
ENDBRANCH  16  17
ENDBRANCH   1  16
BRANCH  13  19
HETATM   19  O2  UNL     1       5.709  -3.640   8.318  1.00  0.00    -0.395 OA
ATOM     20  H2  UNL     1       6.235  -3.318   9.041  1.00  0.00     0.210 HD
ENDBRANCH  13  19
TORSDOF 3
ENDMDL
