MODEL 1
REMARK VINA RESULT: -8.499308079      0.000      0.000
REMARK  0 active torsions:
REMARK  status: ('A' for Active; 'I' for Inactive)
ROOT
HETATM    1  N1  UNL     1       8.859  -5.114   7.310  1.00  0.00    -0.083 NA
HETATM    2  C1  UNL     1       8.055  -4.372   8.215  1.00  0.00     0.117 A 
HETATM    3  N2  UNL     1       7.527  -3.299   7.681  1.00  0.00    -0.344 N 
ATOM      4  H2  UNL     1       7.793  -3.195   6.702  1.00  0.00     0.167 HD
HETATM    5  C2  UNL     1       6.682  -2.243   8.109  1.00  0.00     0.043 A 
HETATM    6  C3  UNL     1       6.528  -1.439   7.008  1.00  0.00     0.030 A 
HETATM    7  C4  UNL     1       5.753  -0.308   7.081  1.00  0.00     0.002 A 
HETATM    8  C5  UNL     1       5.111   0.041   8.276  1.00  0.00     0.001 A 
HETATM    9  C6  UNL     1       5.263  -0.768   9.391  1.00  0.00     0.014 A 
HETATM   10  C7  UNL     1       6.041  -1.896   9.304  1.00  0.00    -0.009 A 
HETATM   11  C8  UNL     1       5.958  -2.469  10.645  1.00  0.00     0.026 A 
HETATM   12  C9  UNL     1       6.489  -3.552  11.184  1.00  0.00    -0.015 A 
HETATM   13  C10 UNL     1       7.358  -4.618  10.714  1.00  0.00    -0.026 A 
HETATM   14  C11 UNL     1       7.962  -4.925   9.550  1.00  0.00     0.054 A 
HETATM   15  C12 UNL     1       7.751  -5.698  11.649  1.00  0.00     0.159 A 
HETATM   16  N3  UNL     1       7.225  -5.587  12.967  1.00  0.00    -0.385 N 
ATOM     17  H3  UNL     1       7.495  -6.331  13.611  1.00  0.00     0.160 HD
HETATM   18  C13 UNL     1       6.465  -4.693  13.453  1.00  0.00     0.039 A 
HETATM   19  C14 UNL     1       5.862  -4.471  14.778  1.00  0.00     0.030 A 
HETATM   20  C15 UNL     1       5.165  -3.364  14.673  1.00  0.00     0.003 A 
HETATM   21  C16 UNL     1       5.277  -2.818  13.296  1.00  0.00     0.014 A 
HETATM   22  C17 UNL     1       6.034  -3.585  12.573  1.00  0.00     0.001 A 
ENDROOT
TORSDOF 0
ENDMDL
MODEL 2
REMARK VINA RESULT: -8.384744862      2.302      4.788
REMARK  0 active torsions:
REMARK  status: ('A' for Active; 'I' for Inactive)
ROOT
HETATM    1  N1  UNL     1      10.397  -6.882  10.612  1.00  0.00    -0.083 NA
HETATM    2  C1  UNL     1       9.673  -6.027   9.741  1.00  0.00     0.117 A 
HETATM    3  N2  UNL     1       9.927  -6.239   8.474  1.00  0.00    -0.344 N 
ATOM      4  H2  UNL     1      10.606  -6.990   8.346  1.00  0.00     0.167 HD
HETATM    5  C2  UNL     1       9.505  -5.698   7.232  1.00  0.00     0.043 A 
HETATM    6  C3  UNL     1      10.192  -6.408   6.281  1.00  0.00     0.030 A 
HETATM    7  C4  UNL     1      10.012  -6.133   4.948  1.00  0.00     0.002 A 
HETATM    8  C5  UNL     1       9.127  -5.125   4.541  1.00  0.00     0.001 A 
HETATM    9  C6  UNL     1       8.431  -4.404   5.499  1.00  0.00     0.014 A 
HETATM   10  C7  UNL     1       8.621  -4.691   6.828  1.00  0.00    -0.009 A 
HETATM   11  C8  UNL     1       7.738  -3.748   7.508  1.00  0.00     0.026 A 
HETATM   12  C9  UNL     1       7.480  -3.533   8.786  1.00  0.00    -0.015 A 
HETATM   13  C10 UNL     1       7.933  -4.109  10.041  1.00  0.00    -0.026 A 
HETATM   14  C11 UNL     1       8.791  -5.084  10.398  1.00  0.00     0.054 A 
HETATM   15  C12 UNL     1       7.395  -3.582  11.317  1.00  0.00     0.159 A 
HETATM   16  N3  UNL     1       6.451  -2.525  11.192  1.00  0.00    -0.385 N 
ATOM     17  H3  UNL     1       6.079  -2.162  12.070  1.00  0.00     0.160 HD
HETATM   18  C13 UNL     1       6.006  -1.969  10.140  1.00  0.00     0.039 A 
HETATM   19  C14 UNL     1       5.043  -0.884   9.883  1.00  0.00     0.030 A 
HETATM   20  C15 UNL     1       4.991  -0.752   8.579  1.00  0.00     0.003 A 
HETATM   21  C16 UNL     1       5.903  -1.730   7.930  1.00  0.00     0.014 A 
HETATM   22  C17 UNL     1       6.501  -2.447   8.831  1.00  0.00     0.001 A 
ENDROOT
TORSDOF 0
ENDMDL
MODEL 3
REMARK VINA RESULT: -8.163860582      1.929      5.136
REMARK  0 active torsions:
REMARK  status: ('A' for Active; 'I' for Inactive)
ROOT
HETATM    1  N1  UNL     1       6.996  -3.429  12.719  1.00  0.00    -0.083 NA
HETATM    2  C1  UNL     1       7.083  -3.405  11.302  1.00  0.00     0.117 A 
HETATM    3  N2  UNL     1       6.332  -2.485  10.751  1.00  0.00    -0.344 N 
ATOM      4  H2  UNL     1       5.819  -1.948  11.451  1.00  0.00     0.167 HD
HETATM    5  C2  UNL     1       6.046  -2.038   9.435  1.00  0.00     0.043 A 
HETATM    6  C3  UNL     1       5.149  -1.012   9.593  1.00  0.00     0.030 A 
HETATM    7  C4  UNL     1       4.659  -0.348   8.496  1.00  0.00     0.002 A 
HETATM    8  C5  UNL     1       5.066  -0.706   7.204  1.00  0.00     0.001 A 
HETATM    9  C6  UNL     1       5.972  -1.742   7.039  1.00  0.00     0.014 A 
HETATM   10  C7  UNL     1       6.454  -2.398   8.145  1.00  0.00    -0.009 A 
HETATM   11  C8  UNL     1       7.357  -3.396   7.581  1.00  0.00     0.026 A 
HETATM   12  C9  UNL     1       8.117  -4.324   8.136  1.00  0.00    -0.015 A 
HETATM   13  C10 UNL     1       8.388  -4.758   9.496  1.00  0.00    -0.026 A 
HETATM   14  C11 UNL     1       7.975  -4.388  10.724  1.00  0.00     0.054 A 
HETATM   15  C12 UNL     1       9.334  -5.875   9.727  1.00  0.00     0.159 A 
HETATM   16  N3  UNL     1       9.909  -6.439   8.554  1.00  0.00    -0.385 N 
ATOM     17  H3  UNL     1      10.561  -7.208   8.711  1.00  0.00     0.160 HD
HETATM   18  C13 UNL     1       9.726  -6.120   7.338  1.00  0.00     0.039 A 
HETATM   19  C14 UNL     1      10.254  -6.619   6.057  1.00  0.00     0.030 A 
HETATM   20  C15 UNL     1       9.691  -5.885   5.127  1.00  0.00     0.003 A 
HETATM   21  C16 UNL     1       8.782  -4.885   5.745  1.00  0.00     0.014 A 
HETATM   22  C17 UNL     1       8.794  -5.012   7.037  1.00  0.00     0.001 A 
ENDROOT
TORSDOF 0
ENDMDL
MODEL 4
REMARK VINA RESULT: -8.120717269      1.940      5.733
REMARK  0 active torsions:
REMARK  status: ('A' for Active; 'I' for Inactive)
ROOT
HETATM    1  N1  UNL     1       4.899   0.241   8.081  1.00  0.00    -0.083 NA
HETATM    2  C1  UNL     1       5.589  -0.910   8.545  1.00  0.00     0.117 A 
HETATM    3  N2  UNL     1       5.456  -1.113   9.832  1.00  0.00    -0.344 N 
ATOM      4  H2  UNL     1       4.873  -0.397  10.268  1.00  0.00     0.167 HD
HETATM    5  C2  UNL     1       5.910  -2.066  10.779  1.00  0.00     0.043 A 
HETATM    6  C3  UNL     1       5.380  -1.660  11.978  1.00  0.00     0.030 A 
HETATM    7  C4  UNL     1       5.630  -2.377  13.122  1.00  0.00     0.002 A 
HETATM    8  C5  UNL     1       6.425  -3.529  13.083  1.00  0.00     0.001 A 
HETATM    9  C6  UNL     1       6.963  -3.943  11.874  1.00  0.00     0.014 A 
HETATM   10  C7  UNL     1       6.705  -3.217  10.738  1.00  0.00    -0.009 A 
HETATM   11  C8  UNL     1       7.423  -3.948   9.698  1.00  0.00     0.026 A 
HETATM   12  C9  UNL     1       7.557  -3.746   8.399  1.00  0.00    -0.015 A 
HETATM   13  C10 UNL     1       7.076  -2.752   7.454  1.00  0.00    -0.026 A 
HETATM   14  C11 UNL     1       6.307  -1.649   7.527  1.00  0.00     0.054 A 
HETATM   15  C12 UNL     1       7.454  -2.866   6.026  1.00  0.00     0.159 A 
HETATM   16  N3  UNL     1       8.282  -3.977   5.700  1.00  0.00    -0.385 N 
ATOM     17  H3  UNL     1       8.542  -4.056   4.717  1.00  0.00     0.160 HD
HETATM   18  C13 UNL     1       8.742  -4.883   6.461  1.00  0.00     0.039 A 
HETATM   19  C14 UNL     1       9.595  -6.065   6.247  1.00  0.00     0.030 A 
HETATM   20  C15 UNL     1       9.731  -6.626   7.425  1.00  0.00     0.003 A 
HETATM   21  C16 UNL     1       8.986  -5.851   8.450  1.00  0.00     0.014 A 
HETATM   22  C17 UNL     1       8.403  -4.830   7.900  1.00  0.00     0.001 A 
ENDROOT
TORSDOF 0
ENDMDL
MODEL 5
REMARK VINA RESULT: -8.117933883      2.129      2.886
REMARK  0 active torsions:
REMARK  status: ('A' for Active; 'I' for Inactive)
ROOT
HETATM    1  N1  UNL     1       6.750  -7.333   6.985  1.00  0.00    -0.083 NA
HETATM    2  C1  UNL     1       6.680  -5.955   7.317  1.00  0.00     0.117 A 
HETATM    3  N2  UNL     1       6.297  -5.198   6.319  1.00  0.00    -0.344 N 
ATOM      4  H2  UNL     1       6.115  -5.747   5.479  1.00  0.00     0.167 HD
HETATM    5  C2  UNL     1       6.067  -3.815   6.102  1.00  0.00     0.043 A 
HETATM    6  C3  UNL     1       5.673  -3.720   4.791  1.00  0.00     0.030 A 
HETATM    7  C4  UNL     1       5.366  -2.497   4.249  1.00  0.00     0.002 A 
HETATM    8  C5  UNL     1       5.451  -1.332   5.022  1.00  0.00     0.001 A 
HETATM    9  C6  UNL     1       5.849  -1.422   6.347  1.00  0.00     0.014 A 
HETATM   10  C7  UNL     1       6.153  -2.653   6.876  1.00  0.00    -0.009 A 
HETATM   11  C8  UNL     1       6.519  -2.347   8.256  1.00  0.00     0.026 A 
HETATM   12  C9  UNL     1       6.904  -3.109   9.264  1.00  0.00    -0.015 A 
HETATM   13  C10 UNL     1       7.132  -4.532   9.454  1.00  0.00    -0.026 A 
HETATM   14  C11 UNL     1       7.039  -5.632   8.682  1.00  0.00     0.054 A 
HETATM   15  C12 UNL     1       7.578  -5.025  10.778  1.00  0.00     0.159 A 
HETATM   16  N3  UNL     1       7.749  -4.025  11.776  1.00  0.00    -0.385 N 
ATOM     17  H3  UNL     1       8.056  -4.364  12.689  1.00  0.00     0.160 HD
HETATM   18  C13 UNL     1       7.573  -2.770  11.691  1.00  0.00     0.039 A 
HETATM   19  C14 UNL     1       7.713  -1.650  12.637  1.00  0.00     0.030 A 
HETATM   20  C15 UNL     1       7.387  -0.571  11.965  1.00  0.00     0.003 A 
HETATM   21  C16 UNL     1       7.022  -0.928  10.569  1.00  0.00     0.014 A 
HETATM   22  C17 UNL     1       7.127  -2.211  10.397  1.00  0.00     0.001 A 
ENDROOT
TORSDOF 0
ENDMDL
