MODEL 1
REMARK VINA RESULT: -8.583759443      0.000      0.000
REMARK  1 active torsions:
REMARK  status: ('A' for Active; 'I' for Inactive)
REMARK    1  A    between atoms: C4_4  and  C5_5 
ROOT
HETATM    1  C5  UNL     1       7.198  -4.497  10.045  1.00  0.00     0.100 A 
HETATM    2  C6  UNL     1       6.892  -3.260   9.674  1.00  0.00     0.025 A 
HETATM    3  C7  UNL     1       7.159  -2.986   8.363  1.00  0.00     0.016 A 
HETATM    4  C8  UNL     1       6.913  -1.741   7.766  1.00  0.00     0.001 A 
HETATM    5  C9  UNL     1       6.373  -0.769   8.573  1.00  0.00     0.002 A 
HETATM    6  C10 UNL     1       6.084  -0.994   9.900  1.00  0.00     0.030 A 
HETATM    7  C11 UNL     1       6.343  -2.229  10.443  1.00  0.00     0.046 A 
HETATM    8  N1  UNL     1       6.016  -2.273  11.694  1.00  0.00    -0.338 N 
ATOM      9  H1  UNL     1       5.631  -1.398  12.051  1.00  0.00     0.167 HD
HETATM   10  C12 UNL     1       6.091  -3.303  12.663  1.00  0.00     0.159 A 
HETATM   11  N2  UNL     1       5.712  -3.221  13.950  1.00  0.00    -0.335 N 
ATOM     12  H2  UNL     1       5.318  -2.392  14.395  1.00  0.00     0.168 HD
HETATM   13  C13 UNL     1       5.934  -4.402  14.563  1.00  0.00     0.184 A 
HETATM   14  N3  UNL     1       6.456  -5.237  13.653  1.00  0.00    -0.330 N 
ATOM     15  H3  UNL     1       6.728  -6.206  13.824  1.00  0.00     0.168 HD
HETATM   16  C14 UNL     1       6.566  -4.581  12.462  1.00  0.00     0.194 A 
HETATM   17  O1  UNL     1       7.058  -5.115  11.302  1.00  0.00    -0.288 OA
ENDROOT
BRANCH   1  18
HETATM   18  C4  UNL     1       7.761  -5.365   9.030  1.00  0.00    -0.001 A 
HETATM   19  C3  UNL     1       9.117  -5.572   8.926  1.00  0.00     0.014 A 
HETATM   20  C2  UNL     1       9.646  -6.433   7.968  1.00  0.00     0.001 A 
HETATM   21  C1  UNL     1       8.807  -7.093   7.103  1.00  0.00     0.000 A 
HETATM   22  C16 UNL     1       7.456  -6.900   7.190  1.00  0.00     0.001 A 
HETATM   23  C15 UNL     1       6.933  -6.033   8.157  1.00  0.00     0.014 A 
ENDBRANCH   1  18
TORSDOF 1
ENDMDL
MODEL 2
REMARK VINA RESULT: -7.889688902      3.569      6.144
REMARK  1 active torsions:
REMARK  status: ('A' for Active; 'I' for Inactive)
REMARK    1  A    between atoms: C4_4  and  C5_5 
ROOT
HETATM    1  C5  UNL     1       5.427  -1.607   9.102  1.00  0.00     0.100 A 
HETATM    2  C6  UNL     1       5.929  -2.520   8.280  1.00  0.00     0.025 A 
HETATM    3  C7  UNL     1       7.000  -3.200   8.784  1.00  0.00     0.016 A 
HETATM    4  C8  UNL     1       7.680  -4.205   8.081  1.00  0.00     0.001 A 
HETATM    5  C9  UNL     1       7.217  -4.496   6.821  1.00  0.00     0.002 A 
HETATM    6  C10 UNL     1       6.140  -3.840   6.267  1.00  0.00     0.030 A 
HETATM    7  C11 UNL     1       5.505  -2.862   6.991  1.00  0.00     0.046 A 
HETATM    8  N1  UNL     1       4.519  -2.348   6.328  1.00  0.00    -0.338 N 
ATOM      9  H1  UNL     1       4.390  -2.752   5.401  1.00  0.00     0.167 HD
HETATM   10  C12 UNL     1       3.585  -1.331   6.645  1.00  0.00     0.159 A 
HETATM   11  N2  UNL     1       2.593  -0.882   5.858  1.00  0.00    -0.335 N 
ATOM     12  H2  UNL     1       2.387  -1.224   4.919  1.00  0.00     0.168 HD
HETATM   13  C13 UNL     1       1.912   0.090   6.497  1.00  0.00     0.184 A 
HETATM   14  N3  UNL     1       2.480   0.255   7.701  1.00  0.00    -0.330 N 
ATOM     15  H3  UNL     1       2.180   0.922   8.413  1.00  0.00     0.168 HD
HETATM   16  C14 UNL     1       3.523  -0.615   7.821  1.00  0.00     0.194 A 
HETATM   17  O1  UNL     1       4.339  -0.735   8.914  1.00  0.00    -0.288 OA
ENDROOT
BRANCH   1  18
HETATM   18  C4  UNL     1       6.072  -1.462  10.392  1.00  0.00    -0.001 A 
HETATM   19  C3  UNL     1       7.304  -0.864  10.521  1.00  0.00     0.014 A 
HETATM   20  C2  UNL     1       7.902  -0.701  11.769  1.00  0.00     0.001 A 
HETATM   21  C1  UNL     1       7.258  -1.143  12.899  1.00  0.00     0.000 A 
HETATM   22  C16 UNL     1       6.032  -1.740  12.790  1.00  0.00     0.001 A 
HETATM   23  C15 UNL     1       5.439  -1.900  11.532  1.00  0.00     0.014 A 
ENDBRANCH   1  18
TORSDOF 1
ENDMDL
MODEL 3
REMARK VINA RESULT: -7.851853599      3.547      6.202
REMARK  1 active torsions:
REMARK  status: ('A' for Active; 'I' for Inactive)
REMARK    1  A    between atoms: C4_4  and  C5_5 
ROOT
HETATM    1  C5  UNL     1       5.419  -1.597   9.143  1.00  0.00     0.100 A 
HETATM    2  C6  UNL     1       5.940  -2.516   8.339  1.00  0.00     0.025 A 
HETATM    3  C7  UNL     1       7.002  -3.189   8.870  1.00  0.00     0.016 A 
HETATM    4  C8  UNL     1       7.699  -4.198   8.190  1.00  0.00     0.001 A 
HETATM    5  C9  UNL     1       7.261  -4.501   6.923  1.00  0.00     0.002 A 
HETATM    6  C10 UNL     1       6.194  -3.852   6.342  1.00  0.00     0.030 A 
HETATM    7  C11 UNL     1       5.542  -2.870   7.045  1.00  0.00     0.046 A 
HETATM    8  N1  UNL     1       4.568  -2.364   6.359  1.00  0.00    -0.338 N 
ATOM      9  H1  UNL     1       4.459  -2.776   5.432  1.00  0.00     0.167 HD
HETATM   10  C12 UNL     1       3.626  -1.347   6.648  1.00  0.00     0.159 A 
HETATM   11  N2  UNL     1       2.649  -0.907   5.837  1.00  0.00    -0.335 N 
ATOM     12  H2  UNL     1       2.462  -1.257   4.898  1.00  0.00     0.168 HD
HETATM   13  C13 UNL     1       1.952   0.069   6.455  1.00  0.00     0.184 A 
HETATM   14  N3  UNL     1       2.496   0.245   7.669  1.00  0.00    -0.330 N 
ATOM     15  H3  UNL     1       2.181   0.918   8.368  1.00  0.00     0.168 HD
HETATM   16  C14 UNL     1       3.539  -0.621   7.817  1.00  0.00     0.194 A 
HETATM   17  O1  UNL     1       4.333  -0.729   8.927  1.00  0.00    -0.288 OA
ENDROOT
BRANCH   1  18
HETATM   18  C4  UNL     1       6.038  -1.440  10.444  1.00  0.00    -0.001 A 
HETATM   19  C3  UNL     1       5.437  -1.903  11.591  1.00  0.00     0.014 A 
HETATM   20  C2  UNL     1       6.055  -1.776  12.834  1.00  0.00     0.001 A 
HETATM   21  C1  UNL     1       7.288  -1.177  12.927  1.00  0.00     0.000 A 
HETATM   22  C16 UNL     1       7.901  -0.709  11.798  1.00  0.00     0.001 A 
HETATM   23  C15 UNL     1       7.273  -0.841  10.553  1.00  0.00     0.014 A 
ENDBRANCH   1  18
TORSDOF 1
ENDMDL
MODEL 4
REMARK VINA RESULT: -7.804610107      3.705      6.362
REMARK  1 active torsions:
REMARK  status: ('A' for Active; 'I' for Inactive)
REMARK    1  A    between atoms: C4_4  and  C5_5 
ROOT
HETATM    1  C5  UNL     1       5.690  -1.242   9.070  1.00  0.00     0.100 A 
HETATM    2  C6  UNL     1       5.789  -2.347   8.343  1.00  0.00     0.025 A 
HETATM    3  C7  UNL     1       6.368  -3.398   8.995  1.00  0.00     0.016 A 
HETATM    4  C8  UNL     1       6.570  -4.656   8.410  1.00  0.00     0.001 A 
HETATM    5  C9  UNL     1       6.149  -4.805   7.110  1.00  0.00     0.002 A 
HETATM    6  C10 UNL     1       5.558  -3.778   6.409  1.00  0.00     0.030 A 
HETATM    7  C11 UNL     1       5.382  -2.562   7.022  1.00  0.00     0.046 A 
HETATM    8  N1  UNL     1       4.816  -1.710   6.227  1.00  0.00    -0.338 N 
ATOM      9  H1  UNL     1       4.605  -2.085   5.303  1.00  0.00     0.167 HD
HETATM   10  C12 UNL     1       4.434  -0.357   6.398  1.00  0.00     0.159 A 
HETATM   11  N2  UNL     1       3.845   0.430   5.481  1.00  0.00    -0.335 N 
ATOM     12  H2  UNL     1       3.596   0.144   4.534  1.00  0.00     0.168 HD
HETATM   13  C13 UNL     1       3.633   1.655   6.004  1.00  0.00     0.184 A 
HETATM   14  N3  UNL     1       4.093   1.639   7.265  1.00  0.00    -0.330 N 
ATOM     15  H3  UNL     1       4.069   2.426   7.914  1.00  0.00     0.168 HD
HETATM   16  C14 UNL     1       4.597   0.401   7.537  1.00  0.00     0.194 A 
HETATM   17  O1  UNL     1       5.154   0.013   8.726  1.00  0.00    -0.288 OA
ENDROOT
BRANCH   1  18
HETATM   18  C4  UNL     1       6.200  -1.303  10.426  1.00  0.00    -0.001 A 
HETATM   19  C3  UNL     1       7.479  -0.905  10.735  1.00  0.00     0.014 A 
HETATM   20  C2  UNL     1       7.950  -0.937  12.046  1.00  0.00     0.001 A 
HETATM   21  C1  UNL     1       7.129  -1.374  13.058  1.00  0.00     0.000 A 
HETATM   22  C16 UNL     1       5.853  -1.774  12.769  1.00  0.00     0.001 A 
HETATM   23  C15 UNL     1       5.388  -1.739  11.449  1.00  0.00     0.014 A 
ENDBRANCH   1  18
TORSDOF 1
ENDMDL
MODEL 5
REMARK VINA RESULT: -7.676325552      2.864      5.352
REMARK  1 active torsions:
REMARK  status: ('A' for Active; 'I' for Inactive)
REMARK    1  A    between atoms: C4_4  and  C5_5 
ROOT
HETATM    1  C5  UNL     1       6.201  -2.665   9.424  1.00  0.00     0.100 A 
HETATM    2  C6  UNL     1       5.616  -1.917   8.497  1.00  0.00     0.025 A 
HETATM    3  C7  UNL     1       5.422  -0.617   8.866  1.00  0.00     0.016 A 
HETATM    4  C8  UNL     1       4.820   0.341   8.038  1.00  0.00     0.001 A 
HETATM    5  C9  UNL     1       4.416  -0.085   6.795  1.00  0.00     0.002 A 
HETATM    6  C10 UNL     1       4.589  -1.385   6.375  1.00  0.00     0.030 A 
HETATM    7  C11 UNL     1       5.183  -2.290   7.220  1.00  0.00     0.046 A 
HETATM    8  N1  UNL     1       5.269  -3.461   6.674  1.00  0.00    -0.338 N 
ATOM      9  H1  UNL     1       4.886  -3.505   5.730  1.00  0.00     0.167 HD
HETATM   10  C12 UNL     1       5.791  -4.692   7.139  1.00  0.00     0.159 A 
HETATM   11  N2  UNL     1       5.822  -5.854   6.464  1.00  0.00    -0.335 N 
ATOM     12  H2  UNL     1       5.466  -5.994   5.518  1.00  0.00     0.168 HD
HETATM   13  C13 UNL     1       6.394  -6.807   7.228  1.00  0.00     0.184 A 
HETATM   14  N3  UNL     1       6.730  -6.239   8.396  1.00  0.00    -0.330 N 
ATOM     15  H3  UNL     1       7.183  -6.713   9.178  1.00  0.00     0.168 HD
HETATM   16  C14 UNL     1       6.367  -4.925   8.369  1.00  0.00     0.194 A 
HETATM   17  O1  UNL     1       6.551  -4.027   9.387  1.00  0.00    -0.288 OA
ENDROOT
BRANCH   1  18
HETATM   18  C4  UNL     1       6.546  -2.010  10.671  1.00  0.00    -0.001 A 
HETATM   19  C3  UNL     1       5.783  -2.169  11.805  1.00  0.00     0.014 A 
HETATM   20  C2  UNL     1       6.140  -1.562  13.007  1.00  0.00     0.001 A 
HETATM   21  C1  UNL     1       7.273  -0.787  13.073  1.00  0.00     0.000 A 
HETATM   22  C16 UNL     1       8.043  -0.618  11.956  1.00  0.00     0.001 A 
HETATM   23  C15 UNL     1       7.677  -1.232  10.752  1.00  0.00     0.014 A 
ENDBRANCH   1  18
TORSDOF 1
ENDMDL
