MODEL 1
REMARK VINA RESULT: -6.570730655      0.000      0.000
REMARK  3 active torsions:
REMARK  status: ('A' for Active; 'I' for Inactive)
REMARK    1  A    between atoms: C1_2  and  N1_3 
REMARK    2  A    between atoms: C1_2  and  N3_13 
REMARK    3  A    between atoms: N1_3  and  N2_5 
ROOT
HETATM    1  S1  UNL     1       5.169  -1.355   7.854  1.00  0.00    -0.039 SA
HETATM    2  C1  UNL     1       6.337  -2.286   8.521  1.00  0.00     0.189 C 
ENDROOT
BRANCH   2   3
HETATM    3  N1  UNL     1       6.918  -1.905   9.741  1.00  0.00    -0.276 N 
ATOM      4  H1  UNL     1       7.924  -1.753   9.807  1.00  0.00     0.189 HD
BRANCH   3   5
HETATM    5  N2  UNL     1       6.101  -1.736  10.867  1.00  0.00    -0.307 N 
HETATM    6  C2  UNL     1       6.228  -2.411  11.936  1.00  0.00     0.004 C 
HETATM    7  C3  UNL     1       5.326  -2.167  13.071  1.00  0.00     0.054 C 
HETATM    8  C7  UNL     1       7.292  -3.443  12.026  1.00  0.00     0.054 C 
HETATM    9  C4  UNL     1       4.998  -3.411  13.853  1.00  0.00     0.006 C 
HETATM   10  C5  UNL     1       6.166  -4.336  13.994  1.00  0.00     0.001 C 
HETATM   11  C6  UNL     1       6.647  -4.693  12.588  1.00  0.00     0.006 C 
ATOM     12  H2  UNL     1       5.363  -1.033  10.825  1.00  0.00     0.186 HD
ENDBRANCH   3   5
ENDBRANCH   2   3
BRANCH   2  13
HETATM   13  N3  UNL     1       6.724  -3.452   7.839  1.00  0.00    -0.348 N 
HETATM   14  C8  UNL     1       7.784  -3.429   6.813  1.00  0.00     0.157 C 
HETATM   15  C9  UNL     1       8.382  -4.841   6.923  1.00  0.00     0.139 C 
HETATM   16  C10 UNL     1       8.523  -5.105   8.430  1.00  0.00     0.036 C 
HETATM   17  O1  UNL     1       7.498  -5.707   6.341  1.00  0.00    -0.382 OA
HETATM   18  C11 UNL     1       7.142  -5.503   8.973  1.00  0.00     0.030 C 
HETATM   19  C12 UNL     1       6.158  -4.778   8.043  1.00  0.00     0.110 C 
HETATM   20  C13 UNL     1       6.188  -5.567   6.739  1.00  0.00     0.193 C 
ENDBRANCH   2  13
TORSDOF 3
ENDMDL
MODEL 2
REMARK VINA RESULT: -6.435211126      2.874      6.162
REMARK  3 active torsions:
REMARK  status: ('A' for Active; 'I' for Inactive)
REMARK    1  A    between atoms: C1_2  and  N1_3 
REMARK    2  A    between atoms: C1_2  and  N3_13 
REMARK    3  A    between atoms: N1_3  and  N2_5 
ROOT
HETATM    1  S1  UNL     1       7.293  -5.506  12.282  1.00  0.00    -0.039 SA
HETATM    2  C1  UNL     1       7.116  -4.517  10.992  1.00  0.00     0.189 C 
ENDROOT
BRANCH   2   3
HETATM    3  N1  UNL     1       6.950  -5.067   9.711  1.00  0.00    -0.276 N 
ATOM      4  H1  UNL     1       6.098  -4.888   9.180  1.00  0.00     0.189 HD
BRANCH   3   5
HETATM    5  N2  UNL     1       7.967  -5.864   9.170  1.00  0.00    -0.307 N 
HETATM    6  C2  UNL     1       8.575  -5.590   8.087  1.00  0.00     0.004 C 
HETATM    7  C3  UNL     1       9.632  -6.483   7.591  1.00  0.00     0.054 C 
HETATM    8  C7  UNL     1       8.206  -4.365   7.333  1.00  0.00     0.054 C 
HETATM    9  C4  UNL     1       9.685  -6.572   6.089  1.00  0.00     0.006 C 
HETATM   10  C5  UNL     1       9.420  -5.259   5.418  1.00  0.00     0.001 C 
HETATM   11  C6  UNL     1       8.048  -4.771   5.883  1.00  0.00     0.006 C 
ATOM     12  H2  UNL     1       8.235  -6.710   9.672  1.00  0.00     0.186 HD
ENDBRANCH   3   5
ENDBRANCH   2   3
BRANCH   2  13
HETATM   13  N3  UNL     1       7.137  -3.129  11.214  1.00  0.00    -0.348 N 
HETATM   14  C8  UNL     1       7.389  -2.177  10.116  1.00  0.00     0.157 C 
HETATM   15  C9  UNL     1       6.600  -0.937  10.565  1.00  0.00     0.139 C 
HETATM   16  C10 UNL     1       5.250  -1.475  11.066  1.00  0.00     0.036 C 
HETATM   17  O1  UNL     1       7.309  -0.342  11.571  1.00  0.00    -0.382 OA
HETATM   18  C11 UNL     1       5.456  -2.024  12.486  1.00  0.00     0.030 C 
HETATM   19  C12 UNL     1       6.924  -2.475  12.497  1.00  0.00     0.110 C 
HETATM   20  C13 UNL     1       7.737  -1.188  12.570  1.00  0.00     0.193 C 
ENDBRANCH   2  13
TORSDOF 3
ENDMDL
MODEL 3
REMARK VINA RESULT: -6.366206736      1.687      2.034
REMARK  3 active torsions:
REMARK  status: ('A' for Active; 'I' for Inactive)
REMARK    1  A    between atoms: C1_2  and  N1_3 
REMARK    2  A    between atoms: C1_2  and  N3_13 
REMARK    3  A    between atoms: N1_3  and  N2_5 
ROOT
HETATM    1  S1  UNL     1       5.078  -2.919   5.731  1.00  0.00    -0.039 SA
HETATM    2  C1  UNL     1       5.979  -2.965   7.094  1.00  0.00     0.189 C 
ENDROOT
BRANCH   2   3
HETATM    3  N1  UNL     1       6.012  -1.849   7.945  1.00  0.00    -0.276 N 
ATOM      4  H1  UNL     1       6.509  -1.003   7.666  1.00  0.00     0.189 HD
BRANCH   3   5
HETATM    5  N2  UNL     1       5.356  -1.909   9.181  1.00  0.00    -0.307 N 
HETATM    6  C2  UNL     1       5.863  -1.489  10.268  1.00  0.00     0.004 C 
HETATM    7  C3  UNL     1       5.102  -1.592  11.523  1.00  0.00     0.054 C 
HETATM    8  C7  UNL     1       7.225  -0.898  10.258  1.00  0.00     0.054 C 
HETATM    9  C4  UNL     1       5.965  -1.860  12.726  1.00  0.00     0.006 C 
HETATM   10  C5  UNL     1       7.269  -1.124  12.685  1.00  0.00     0.001 C 
HETATM   11  C6  UNL     1       7.990  -1.534  11.400  1.00  0.00     0.006 C 
ATOM     12  H2  UNL     1       4.420  -2.313   9.210  1.00  0.00     0.186 HD
ENDBRANCH   3   5
ENDBRANCH   2   3
BRANCH   2  13
HETATM   13  N3  UNL     1       6.702  -4.139   7.371  1.00  0.00    -0.348 N 
HETATM   14  C8  UNL     1       8.071  -4.339   6.858  1.00  0.00     0.157 C 
HETATM   15  C9  UNL     1       8.701  -5.234   7.938  1.00  0.00     0.139 C 
HETATM   16  C10 UNL     1       8.268  -4.618   9.278  1.00  0.00     0.036 C 
HETATM   17  O1  UNL     1       8.192  -6.493   7.775  1.00  0.00    -0.382 OA
HETATM   18  C11 UNL     1       6.825  -5.064   9.561  1.00  0.00     0.030 C 
HETATM   19  C12 UNL     1       6.220  -5.261   8.162  1.00  0.00     0.110 C 
HETATM   20  C13 UNL     1       6.823  -6.563   7.647  1.00  0.00     0.193 C 
ENDBRANCH   2  13
TORSDOF 3
ENDMDL
MODEL 4
REMARK VINA RESULT: -6.366101462      2.319      3.302
REMARK  3 active torsions:
REMARK  status: ('A' for Active; 'I' for Inactive)
REMARK    1  A    between atoms: C1_2  and  N1_3 
REMARK    2  A    between atoms: C1_2  and  N3_13 
REMARK    3  A    between atoms: N1_3  and  N2_5 
ROOT
HETATM    1  S1  UNL     1       9.513  -5.786   9.669  1.00  0.00    -0.039 SA
HETATM    2  C1  UNL     1       7.994  -5.440   9.173  1.00  0.00     0.189 C 
ENDROOT
BRANCH   2   3
HETATM    3  N1  UNL     1       6.960  -5.342  10.117  1.00  0.00    -0.276 N 
ATOM      4  H1  UNL     1       6.068  -5.811   9.955  1.00  0.00     0.189 HD
BRANCH   3   5
HETATM    5  N2  UNL     1       7.164  -4.593  11.283  1.00  0.00    -0.307 N 
HETATM    6  C2  UNL     1       6.928  -3.347  11.369  1.00  0.00     0.004 C 
HETATM    7  C3  UNL     1       7.171  -2.639  12.635  1.00  0.00     0.054 C 
HETATM    8  C7  UNL     1       6.407  -2.619  10.185  1.00  0.00     0.054 C 
HETATM    9  C4  UNL     1       7.649  -1.224  12.447  1.00  0.00     0.006 C 
HETATM   10  C5  UNL     1       6.979  -0.529  11.302  1.00  0.00     0.001 C 
HETATM   11  C6  UNL     1       7.236  -1.359  10.044  1.00  0.00     0.006 C 
ATOM     12  H2  UNL     1       7.522  -5.074  12.108  1.00  0.00     0.186 HD
ENDBRANCH   3   5
ENDBRANCH   2   3
BRANCH   2  13
HETATM   13  N3  UNL     1       7.773  -5.250   7.798  1.00  0.00    -0.348 N 
HETATM   14  C8  UNL     1       6.619  -5.861   7.111  1.00  0.00     0.157 C 
HETATM   15  C9  UNL     1       6.335  -4.855   5.984  1.00  0.00     0.139 C 
HETATM   16  C10 UNL     1       6.425  -3.470   6.644  1.00  0.00     0.036 C 
HETATM   17  O1  UNL     1       7.302  -5.023   5.032  1.00  0.00    -0.382 OA
HETATM   18  C11 UNL     1       7.912  -3.105   6.777  1.00  0.00     0.030 C 
HETATM   19  C12 UNL     1       8.615  -4.464   6.908  1.00  0.00     0.110 C 
HETATM   20  C13 UNL     1       8.594  -5.060   5.505  1.00  0.00     0.193 C 
ENDBRANCH   2  13
TORSDOF 3
ENDMDL
MODEL 5
REMARK VINA RESULT: -6.365926608      2.357      2.852
REMARK  3 active torsions:
REMARK  status: ('A' for Active; 'I' for Inactive)
REMARK    1  A    between atoms: C1_2  and  N1_3 
REMARK    2  A    between atoms: C1_2  and  N3_13 
REMARK    3  A    between atoms: N1_3  and  N2_5 
ROOT
HETATM    1  S1  UNL     1      10.021  -6.367   9.685  1.00  0.00    -0.039 SA
HETATM    2  C1  UNL     1       8.817  -5.275   9.858  1.00  0.00     0.189 C 
ENDROOT
BRANCH   2   3
HETATM    3  N1  UNL     1       8.728  -4.517  11.036  1.00  0.00    -0.276 N 
ATOM      4  H1  UNL     1       9.367  -3.738  11.197  1.00  0.00     0.189 HD
BRANCH   3   5
HETATM    5  N2  UNL     1       7.754  -4.842  11.989  1.00  0.00    -0.307 N 
HETATM    6  C2  UNL     1       6.757  -4.100  12.257  1.00  0.00     0.004 C 
HETATM    7  C3  UNL     1       5.781  -4.519  13.274  1.00  0.00     0.054 C 
HETATM    8  C7  UNL     1       6.591  -2.812  11.538  1.00  0.00     0.054 C 
HETATM    9  C4  UNL     1       5.208  -3.373  14.063  1.00  0.00     0.006 C 
HETATM   10  C5  UNL     1       4.961  -2.155  13.227  1.00  0.00     0.001 C 
HETATM   11  C6  UNL     1       6.290  -1.759  12.584  1.00  0.00     0.006 C 
ATOM     12  H2  UNL     1       7.850  -5.722  12.495  1.00  0.00     0.186 HD
ENDBRANCH   3   5
ENDBRANCH   2   3
BRANCH   2  13
HETATM   13  N3  UNL     1       7.897  -5.131   8.804  1.00  0.00    -0.348 N 
HETATM   14  C8  UNL     1       7.695  -3.835   8.130  1.00  0.00     0.157 C 
HETATM   15  C9  UNL     1       7.296  -4.260   6.708  1.00  0.00     0.139 C 
HETATM   16  C10 UNL     1       8.273  -5.385   6.332  1.00  0.00     0.036 C 
HETATM   17  O1  UNL     1       6.006  -4.711   6.762  1.00  0.00    -0.382 OA
HETATM   18  C11 UNL     1       7.785  -6.680   7.000  1.00  0.00     0.030 C 
HETATM   19  C12 UNL     1       7.060  -6.192   8.263  1.00  0.00     0.110 C 
HETATM   20  C13 UNL     1       5.739  -5.615   7.766  1.00  0.00     0.193 C 
ENDBRANCH   2  13
TORSDOF 3
ENDMDL
