MODEL 1
REMARK VINA RESULT: -6.040302349      0.000      0.000
REMARK  2 active torsions:
REMARK  status: ('A' for Active; 'I' for Inactive)
REMARK    1  A    between atoms: N1_1  and  N2_4 
REMARK    2  A    between atoms: N2_4  and  C1_6 
ROOT
HETATM    1  C1  UNL     1      32.400   2.390  42.561  1.00  0.00     0.704 A 
HETATM    2  N3  UNL     1      31.073   2.547  42.589  1.00  0.00    -0.139 N 
ATOM      3  H3  UNL     1      30.490   1.877  42.086  1.00  0.00     0.189 HD
HETATM    4  C2  UNL     1      30.473   3.552  43.255  1.00  0.00     0.342 A 
HETATM    5  O1  UNL     1      29.220   3.685  43.272  1.00  0.00    -0.246 OA
HETATM    6  N4  UNL     1      31.245   4.430  43.914  1.00  0.00    -0.260 N 
ATOM      7  H4  UNL     1      30.819   5.201  44.427  1.00  0.00     0.175 HD
HETATM    8  C3  UNL     1      32.569   4.289  43.896  1.00  0.00     0.342 A 
HETATM    9  O2  UNL     1      33.293   5.110  44.513  1.00  0.00    -0.246 OA
HETATM   10  N5  UNL     1      33.161   3.268  43.220  1.00  0.00    -0.139 N 
ATOM     11  H5  UNL     1      34.176   3.174  43.215  1.00  0.00     0.189 HD
ENDROOT
BRANCH   1  12
HETATM   12  N2  UNL     1      32.937   1.431  41.924  1.00  0.00    -0.138 N 
ATOM     13  H2  UNL     1      32.701   0.482  42.213  1.00  0.00     0.205 HD
BRANCH  12  14
HETATM   14  N1  UNL     1      33.820   1.578  40.865  1.00  0.00    -0.331 N 
ATOM     15  H12 UNL     1      34.172   2.520  40.694  1.00  0.00     0.177 HD
ATOM     16  H11 UNL     1      34.136   0.821  40.259  1.00  0.00     0.177 HD
ENDBRANCH  12  14
ENDBRANCH   1  12
TORSDOF 2
ENDMDL
MODEL 2
REMARK VINA RESULT: -5.999364489      0.029      2.482
REMARK  2 active torsions:
REMARK  status: ('A' for Active; 'I' for Inactive)
REMARK    1  A    between atoms: N1_1  and  N2_4 
REMARK    2  A    between atoms: N2_4  and  C1_6 
ROOT
HETATM    1  C1  UNL     1      32.389   2.386  42.559  1.00  0.00     0.704 A 
HETATM    2  N3  UNL     1      33.134   3.273  43.225  1.00  0.00    -0.139 N 
ATOM      3  H3  UNL     1      34.149   3.167  43.214  1.00  0.00     0.189 HD
HETATM    4  C2  UNL     1      32.602   4.303  43.910  1.00  0.00     0.342 A 
HETATM    5  O1  UNL     1      33.319   5.131  44.532  1.00  0.00    -0.246 OA
HETATM    6  N4  UNL     1      31.266   4.438  43.921  1.00  0.00    -0.260 N 
ATOM      7  H4  UNL     1      30.834   5.208  44.431  1.00  0.00     0.175 HD
HETATM    8  C3  UNL     1      30.508   3.562  43.264  1.00  0.00     0.342 A 
HETATM    9  O2  UNL     1      29.258   3.688  43.274  1.00  0.00    -0.246 OA
HETATM   10  N5  UNL     1      31.060   2.527  42.576  1.00  0.00    -0.139 N 
ATOM     11  H5  UNL     1      30.466   1.865  42.078  1.00  0.00     0.189 HD
ENDROOT
BRANCH   1  12
HETATM   12  N2  UNL     1      32.921   1.424  41.922  1.00  0.00    -0.138 N 
ATOM     13  H2  UNL     1      32.672   0.477  42.204  1.00  0.00     0.205 HD
BRANCH  12  14
HETATM   14  N1  UNL     1      33.813   1.567  40.871  1.00  0.00    -0.331 N 
ATOM     15  H12 UNL     1      33.574   1.087  40.003  1.00  0.00     0.177 HD
ATOM     16  H11 UNL     1      34.676   2.109  40.907  1.00  0.00     0.177 HD
ENDBRANCH  12  14
ENDBRANCH   1  12
TORSDOF 2
ENDMDL
MODEL 3
REMARK VINA RESULT: -5.941964298      1.811      3.080
REMARK  2 active torsions:
REMARK  status: ('A' for Active; 'I' for Inactive)
REMARK    1  A    between atoms: N1_1  and  N2_4 
REMARK    2  A    between atoms: N2_4  and  C1_6 
ROOT
HETATM    1  C1  UNL     1      30.661   3.339  43.100  1.00  0.00     0.704 A 
HETATM    2  N3  UNL     1      31.326   2.379  42.452  1.00  0.00    -0.139 N 
ATOM      3  H3  UNL     1      30.796   1.692  41.916  1.00  0.00     0.189 HD
HETATM    4  C2  UNL     1      32.669   2.281  42.475  1.00  0.00     0.342 A 
HETATM    5  O1  UNL     1      33.281   1.370  41.858  1.00  0.00    -0.246 OA
HETATM    6  N4  UNL     1      33.362   3.188  43.182  1.00  0.00    -0.260 N 
ATOM      7  H4  UNL     1      34.379   3.139  43.219  1.00  0.00     0.175 HD
HETATM    8  C3  UNL     1      32.714   4.151  43.835  1.00  0.00     0.342 A 
HETATM    9  O2  UNL     1      33.361   5.001  44.497  1.00  0.00    -0.246 OA
HETATM   10  N5  UNL     1      31.357   4.238  43.801  1.00  0.00    -0.139 N 
ATOM     11  H5  UNL     1      30.876   4.982  44.307  1.00  0.00     0.189 HD
ENDROOT
BRANCH   1  12
HETATM   12  N2  UNL     1      29.392   3.406  43.058  1.00  0.00    -0.138 N 
ATOM     13  H2  UNL     1      28.944   4.177  43.554  1.00  0.00     0.205 HD
BRANCH  12  14
HETATM   14  N1  UNL     1      28.572   2.510  42.390  1.00  0.00    -0.331 N 
ATOM     15  H12 UNL     1      28.404   1.617  42.852  1.00  0.00     0.177 HD
ATOM     16  H11 UNL     1      28.135   2.682  41.485  1.00  0.00     0.177 HD
ENDBRANCH  12  14
ENDBRANCH   1  12
TORSDOF 2
ENDMDL
MODEL 4
REMARK VINA RESULT: -5.908673360      1.819      3.487
REMARK  2 active torsions:
REMARK  status: ('A' for Active; 'I' for Inactive)
REMARK    1  A    between atoms: N1_1  and  N2_4 
REMARK    2  A    between atoms: N2_4  and  C1_6 
ROOT
HETATM    1  C1  UNL     1      30.645   3.322  43.104  1.00  0.00     0.704 A 
HETATM    2  N3  UNL     1      31.364   4.214  43.791  1.00  0.00    -0.139 N 
ATOM      3  H3  UNL     1      30.874   4.956  44.292  1.00  0.00     0.189 HD
HETATM    4  C2  UNL     1      32.709   4.175  43.851  1.00  0.00     0.342 A 
HETATM    5  O1  UNL     1      33.371   5.024  44.504  1.00  0.00    -0.246 OA
HETATM    6  N4  UNL     1      33.347   3.197  43.190  1.00  0.00    -0.260 N 
ATOM      7  H4  UNL     1      34.365   3.142  43.216  1.00  0.00     0.175 HD
HETATM    8  C3  UNL     1      32.647   2.300  42.499  1.00  0.00     0.342 A 
HETATM    9  O2  UNL     1      33.244   1.384  41.880  1.00  0.00    -0.246 OA
HETATM   10  N5  UNL     1      31.289   2.352  42.448  1.00  0.00    -0.139 N 
ATOM     11  H5  UNL     1      30.767   1.657  41.915  1.00  0.00     0.189 HD
ENDROOT
BRANCH   1  12
HETATM   12  N2  UNL     1      29.377   3.385  43.066  1.00  0.00    -0.138 N 
ATOM     13  H2  UNL     1      28.927   4.143  43.578  1.00  0.00     0.205 HD
BRANCH  12  14
HETATM   14  N1  UNL     1      28.558   2.500  42.382  1.00  0.00    -0.331 N 
ATOM     15  H12 UNL     1      28.680   1.510  42.596  1.00  0.00     0.177 HD
ATOM     16  H11 UNL     1      27.857   2.768  41.692  1.00  0.00     0.177 HD
ENDBRANCH  12  14
ENDBRANCH   1  12
TORSDOF 2
ENDMDL
MODEL 5
REMARK VINA RESULT: -5.746676287      1.623      1.658
REMARK  2 active torsions:
REMARK  status: ('A' for Active; 'I' for Inactive)
REMARK    1  A    between atoms: N1_1  and  N2_4 
REMARK    2  A    between atoms: N2_4  and  C1_6 
ROOT
HETATM    1  C1  UNL     1      32.655   2.885  42.385  1.00  0.00     0.704 A 
HETATM    2  N3  UNL     1      31.756   3.211  43.318  1.00  0.00    -0.139 N 
ATOM      3  H3  UNL     1      31.202   2.468  43.744  1.00  0.00     0.189 HD
HETATM    4  C2  UNL     1      31.551   4.479  43.720  1.00  0.00     0.342 A 
HETATM    5  O1  UNL     1      30.699   4.770  44.601  1.00  0.00    -0.246 OA
HETATM    6  N4  UNL     1      32.283   5.453  43.155  1.00  0.00    -0.260 N 
ATOM      7  H4  UNL     1      32.150   6.423  43.439  1.00  0.00     0.175 HD
HETATM    8  C3  UNL     1      33.184   5.146  42.223  1.00  0.00     0.342 A 
HETATM    9  O2  UNL     1      33.870   6.056  41.694  1.00  0.00    -0.246 OA
HETATM   10  N5  UNL     1      33.380   3.859  41.828  1.00  0.00    -0.139 N 
ATOM     11  H5  UNL     1      34.073   3.641  41.113  1.00  0.00     0.189 HD
ENDROOT
BRANCH   1  12
HETATM   12  N2  UNL     1      32.826   1.678  42.027  1.00  0.00    -0.138 N 
ATOM     13  H2  UNL     1      32.332   0.956  42.550  1.00  0.00     0.205 HD
BRANCH  12  14
HETATM   14  N1  UNL     1      33.634   1.269  40.977  1.00  0.00    -0.331 N 
ATOM     15  H12 UNL     1      33.359   0.411  40.499  1.00  0.00     0.177 HD
ATOM     16  H11 UNL     1      34.469   1.760  40.657  1.00  0.00     0.177 HD
ENDBRANCH  12  14
ENDBRANCH   1  12
TORSDOF 2
ENDMDL
