MODEL 1
REMARK VINA RESULT: -6.155156882      0.000      0.000
REMARK  0 active torsions:
REMARK  status: ('A' for Active; 'I' for Inactive)
ROOT
HETATM    1  C1  UNL     1      34.835   3.663  42.600  1.00  0.00     0.047 C 
HETATM    2  C2  UNL     1      33.539   3.445  42.723  1.00  0.00     0.071 C 
HETATM    3  N1  UNL     1      32.787   4.383  43.462  1.00  0.00    -0.316 N 
ATOM      4  H1  UNL     1      33.288   5.210  43.784  1.00  0.00     0.169 HD
HETATM    5  C3  UNL     1      31.391   4.305  43.813  1.00  0.00     0.315 C 
HETATM    6  O1  UNL     1      30.915   5.289  44.393  1.00  0.00    -0.262 OA
HETATM    7  C4  UNL     1      30.449   3.220  43.584  1.00  0.00     0.328 C 
HETATM    8  O2  UNL     1      29.322   3.362  44.115  1.00  0.00    -0.261 OA
HETATM    9  N2  UNL     1      30.601   2.020  42.848  1.00  0.00    -0.260 N 
ATOM     10  H2  UNL     1      29.774   1.429  42.760  1.00  0.00     0.190 HD
HETATM   11  N3  UNL     1      31.773   1.557  42.229  1.00  0.00    -0.281 N 
ATOM     12  H3  UNL     1      31.725   0.614  41.843  1.00  0.00     0.188 HD
HETATM   13  C5  UNL     1      33.035   2.232  42.064  1.00  0.00     0.140 C 
HETATM   14  N4  UNL     1      33.865   1.727  41.224  1.00  0.00    -0.383 N 
ATOM     15  H41 UNL     1      33.515   0.885  40.768  1.00  0.00     0.157 HD
ATOM     16  H42 UNL     1      34.759   2.204  41.107  1.00  0.00     0.157 HD
ENDROOT
TORSDOF 0
ENDMDL
MODEL 2
REMARK VINA RESULT: -5.477146341      3.079      4.081
REMARK  0 active torsions:
REMARK  status: ('A' for Active; 'I' for Inactive)
ROOT
HETATM    1  C1  UNL     1      32.230   4.125  43.874  1.00  0.00     0.047 C 
HETATM    2  C2  UNL     1      32.893   4.337  42.754  1.00  0.00     0.071 C 
HETATM    3  N1  UNL     1      33.056   5.674  42.334  1.00  0.00    -0.316 N 
ATOM      4  H1  UNL     1      32.716   6.393  42.974  1.00  0.00     0.169 HD
HETATM    5  C3  UNL     1      33.648   6.142  41.106  1.00  0.00     0.315 C 
HETATM    6  O1  UNL     1      33.769   7.368  40.987  1.00  0.00    -0.262 OA
HETATM    7  C4  UNL     1      34.130   5.371  39.970  1.00  0.00     0.328 C 
HETATM    8  O2  UNL     1      34.477   6.042  38.970  1.00  0.00    -0.261 OA
HETATM    9  N2  UNL     1      34.271   3.971  39.813  1.00  0.00    -0.260 N 
ATOM     10  H2  UNL     1      34.703   3.650  38.946  1.00  0.00     0.190 HD
HETATM   11  N3  UNL     1      33.879   2.979  40.726  1.00  0.00    -0.281 N 
ATOM     12  H3  UNL     1      33.954   2.018  40.391  1.00  0.00     0.188 HD
HETATM   13  C5  UNL     1      33.385   3.132  42.070  1.00  0.00     0.140 C 
HETATM   14  N4  UNL     1      33.358   2.082  42.808  1.00  0.00    -0.383 N 
ATOM     15  H41 UNL     1      33.699   1.246  42.333  1.00  0.00     0.157 HD
ATOM     16  H42 UNL     1      33.007   2.190  43.760  1.00  0.00     0.157 HD
ENDROOT
TORSDOF 0
ENDMDL
MODEL 3
REMARK VINA RESULT: -5.323850010      3.901      5.196
REMARK  0 active torsions:
REMARK  status: ('A' for Active; 'I' for Inactive)
ROOT
HETATM    1  C1  UNL     1      33.698   2.951  42.774  1.00  0.00     0.047 C 
HETATM    2  C2  UNL     1      33.685   3.853  41.812  1.00  0.00     0.071 C 
HETATM    3  N1  UNL     1      34.108   3.446  40.529  1.00  0.00    -0.316 N 
ATOM      4  H1  UNL     1      34.319   2.454  40.417  1.00  0.00     0.169 HD
HETATM    5  C3  UNL     1      34.275   4.269  39.358  1.00  0.00     0.315 C 
HETATM    6  O1  UNL     1      34.570   3.680  38.310  1.00  0.00    -0.262 OA
HETATM    7  C4  UNL     1      34.146   5.713  39.228  1.00  0.00     0.328 C 
HETATM    8  O2  UNL     1      34.479   6.187  38.117  1.00  0.00    -0.261 OA
HETATM    9  N2  UNL     1      33.700   6.676  40.165  1.00  0.00    -0.260 N 
ATOM     10  H2  UNL     1      33.622   7.637  39.831  1.00  0.00     0.190 HD
HETATM   11  N3  UNL     1      33.353   6.446  41.506  1.00  0.00    -0.281 N 
ATOM     12  H3  UNL     1      33.166   7.281  42.061  1.00  0.00     0.188 HD
HETATM   13  C5  UNL     1      33.227   5.194  42.205  1.00  0.00     0.140 C 
HETATM   14  N4  UNL     1      32.629   5.214  43.341  1.00  0.00    -0.383 N 
ATOM     15  H41 UNL     1      32.311   6.143  43.614  1.00  0.00     0.157 HD
ATOM     16  H42 UNL     1      32.540   4.326  43.837  1.00  0.00     0.157 HD
ENDROOT
TORSDOF 0
ENDMDL
MODEL 4
REMARK VINA RESULT: -5.301640499      2.542      3.694
REMARK  0 active torsions:
REMARK  status: ('A' for Active; 'I' for Inactive)
ROOT
HETATM    1  C1  UNL     1      30.998   5.178  43.880  1.00  0.00     0.047 C 
HETATM    2  C2  UNL     1      31.775   4.274  43.316  1.00  0.00     0.071 C 
HETATM    3  N1  UNL     1      33.048   4.693  42.872  1.00  0.00    -0.316 N 
ATOM      4  H1  UNL     1      33.310   5.653  43.093  1.00  0.00     0.169 HD
HETATM    5  C3  UNL     1      34.020   3.918  42.142  1.00  0.00     0.315 C 
HETATM    6  O1  UNL     1      35.112   4.463  41.934  1.00  0.00    -0.262 OA
HETATM    7  C4  UNL     1      33.902   2.571  41.607  1.00  0.00     0.328 C 
HETATM    8  O2  UNL     1      34.859   2.187  40.894  1.00  0.00    -0.261 OA
HETATM    9  N2  UNL     1      32.870   1.614  41.764  1.00  0.00    -0.260 N 
ATOM     10  H2  UNL     1      33.032   0.695  41.352  1.00  0.00     0.190 HD
HETATM   11  N3  UNL     1      31.647   1.800  42.428  1.00  0.00    -0.281 N 
ATOM     12  H3  UNL     1      30.978   1.035  42.340  1.00  0.00     0.188 HD
HETATM   13  C5  UNL     1      31.207   2.922  43.216  1.00  0.00     0.140 C 
HETATM   14  N4  UNL     1      30.170   2.751  43.953  1.00  0.00    -0.383 N 
ATOM     15  H41 UNL     1      29.776   1.813  43.884  1.00  0.00     0.157 HD
ATOM     16  H42 UNL     1      29.858   3.546  44.512  1.00  0.00     0.157 HD
ENDROOT
TORSDOF 0
ENDMDL
MODEL 5
REMARK VINA RESULT: -5.183150637      3.374      4.170
REMARK  0 active torsions:
REMARK  status: ('A' for Active; 'I' for Inactive)
ROOT
HETATM    1  C1  UNL     1      33.615   6.170  41.437  1.00  0.00     0.047 C 
HETATM    2  C2  UNL     1      33.617   4.854  41.515  1.00  0.00     0.071 C 
HETATM    3  N1  UNL     1      34.499   4.151  40.666  1.00  0.00    -0.316 N 
ATOM      4  H1  UNL     1      35.134   4.719  40.104  1.00  0.00     0.169 HD
HETATM    5  C3  UNL     1      34.606   2.724  40.500  1.00  0.00     0.315 C 
HETATM    6  O1  UNL     1      35.516   2.323  39.764  1.00  0.00    -0.262 OA
HETATM    7  C4  UNL     1      33.786   1.671  41.081  1.00  0.00     0.328 C 
HETATM    8  O2  UNL     1      34.017   0.513  40.661  1.00  0.00    -0.261 OA
HETATM    9  N2  UNL     1      32.761   1.746  42.055  1.00  0.00    -0.260 N 
ATOM     10  H2  UNL     1      32.365   0.861  42.371  1.00  0.00     0.190 HD
HETATM   11  N3  UNL     1      32.233   2.913  42.631  1.00  0.00    -0.281 N 
ATOM     12  H3  UNL     1      31.418   2.779  43.229  1.00  0.00     0.188 HD
HETATM   13  C5  UNL     1      32.684   4.273  42.491  1.00  0.00     0.140 C 
HETATM   14  N4  UNL     1      32.224   5.133  43.328  1.00  0.00    -0.383 N 
ATOM     15  H41 UNL     1      31.577   4.730  44.005  1.00  0.00     0.157 HD
ATOM     16  H42 UNL     1      32.543   6.097  43.229  1.00  0.00     0.157 HD
ENDROOT
TORSDOF 0
ENDMDL
