MODEL 1
REMARK VINA RESULT: -5.724137155      0.000      0.000
REMARK  1 active torsions:
REMARK  status: ('A' for Active; 'I' for Inactive)
REMARK       I    between atoms: N1_1  and  C1_4 
REMARK       I    between atoms: C1_4  and  N3_6 
REMARK    1  A    between atoms: N3_6  and  C2_8 
ROOT
HETATM    1  C2  UNL     1      32.256   3.997  42.352  1.00  0.00     0.201 A 
HETATM    2  N4  UNL     1      31.019   3.509  42.135  1.00  0.00    -0.220 N 
ATOM      3  H4  UNL     1      30.632   3.262  41.225  1.00  0.00     0.198 HD
HETATM    4  O1  UNL     1      30.403   3.406  43.260  1.00  0.00    -0.152 OA
HETATM    5  N5  UNL     1      31.137   3.794  44.257  1.00  0.00    -0.203 N 
ATOM      6  H5  UNL     1      30.876   3.808  45.243  1.00  0.00     0.200 HD
HETATM    7  C3  UNL     1      32.312   4.174  43.726  1.00  0.00     0.312 A 
HETATM    8  O2  UNL     1      33.302   4.616  44.351  1.00  0.00    -0.262 OA
ENDROOT
BRANCH   1   9
HETATM    9  N3  UNL     1      33.199   4.253  41.488  1.00  0.00    -0.311 N 
HETATM   10  C1  UNL     1      33.202   5.537  40.920  1.00  0.00     0.187 C 
HETATM   11  N1  UNL     1      33.585   6.531  41.612  1.00  0.00    -0.373 N 
HETATM   12  N2  UNL     1      32.777   5.691  39.590  1.00  0.00    -0.064 NA
ATOM     13  H12 UNL     1      33.588   7.464  41.199  1.00  0.00     0.158 HD
ATOM     14  H11 UNL     1      33.894   6.418  42.578  1.00  0.00     0.158 HD
ATOM     15  H3  UNL     1      33.899   3.554  41.238  1.00  0.00     0.170 HD
ENDBRANCH   1   9
TORSDOF 1
ENDMDL
MODEL 2
REMARK VINA RESULT: -5.591581311      2.390      3.679
REMARK  1 active torsions:
REMARK  status: ('A' for Active; 'I' for Inactive)
REMARK       I    between atoms: N1_1  and  C1_4 
REMARK       I    between atoms: C1_4  and  N3_6 
REMARK    1  A    between atoms: N3_6  and  C2_8 
ROOT
HETATM    1  C2  UNL     1      32.993   3.035  42.951  1.00  0.00     0.201 A 
HETATM    2  N4  UNL     1      33.064   1.842  42.328  1.00  0.00    -0.220 N 
ATOM      3  H4  UNL     1      32.685   0.966  42.685  1.00  0.00     0.198 HD
HETATM    4  O1  UNL     1      33.689   1.985  41.212  1.00  0.00    -0.152 OA
HETATM    5  N5  UNL     1      34.061   3.212  41.014  1.00  0.00    -0.203 N 
ATOM      6  H5  UNL     1      34.568   3.577  40.208  1.00  0.00     0.200 HD
HETATM    7  C3  UNL     1      33.641   3.905  42.087  1.00  0.00     0.312 A 
HETATM    8  O2  UNL     1      33.799   5.129  42.290  1.00  0.00    -0.262 OA
ENDROOT
BRANCH   1   9
HETATM    9  N3  UNL     1      32.447   3.329  44.098  1.00  0.00    -0.311 N 
HETATM   10  C1  UNL     1      31.119   3.786  44.066  1.00  0.00     0.187 C 
HETATM   11  N1  UNL     1      30.176   2.965  43.843  1.00  0.00    -0.373 N 
HETATM   12  N2  UNL     1      30.866   5.151  44.281  1.00  0.00    -0.064 NA
ATOM     13  H12 UNL     1      29.211   3.296  43.820  1.00  0.00     0.158 HD
ATOM     14  H11 UNL     1      30.360   1.974  43.687  1.00  0.00     0.158 HD
ATOM     15  H3  UNL     1      32.959   3.232  44.975  1.00  0.00     0.170 HD
ENDBRANCH   1   9
TORSDOF 1
ENDMDL
MODEL 3
REMARK VINA RESULT: -5.510443552      1.341      1.686
REMARK  1 active torsions:
REMARK  status: ('A' for Active; 'I' for Inactive)
REMARK       I    between atoms: N1_1  and  C1_4 
REMARK       I    between atoms: C1_4  and  N3_6 
REMARK    1  A    between atoms: N3_6  and  C2_8 
ROOT
HETATM    1  C2  UNL     1      31.957   4.352  42.817  1.00  0.00     0.201 A 
HETATM    2  N4  UNL     1      31.767   3.150  42.238  1.00  0.00    -0.220 N 
ATOM      3  H4  UNL     1      32.309   2.777  41.459  1.00  0.00     0.198 HD
HETATM    4  O1  UNL     1      30.792   2.549  42.825  1.00  0.00    -0.152 OA
HETATM    5  N5  UNL     1      30.285   3.260  43.784  1.00  0.00    -0.203 N 
ATOM      6  H5  UNL     1      29.509   3.003  44.394  1.00  0.00     0.200 HD
HETATM    7  C3  UNL     1      30.992   4.403  43.811  1.00  0.00     0.312 A 
HETATM    8  O2  UNL     1      30.822   5.364  44.594  1.00  0.00    -0.262 OA
ENDROOT
BRANCH   1   9
HETATM    9  N3  UNL     1      32.837   5.271  42.528  1.00  0.00    -0.311 N 
HETATM   10  C1  UNL     1      33.623   5.053  41.385  1.00  0.00     0.187 C 
HETATM   11  N1  UNL     1      33.110   5.200  40.232  1.00  0.00    -0.373 N 
HETATM   12  N2  UNL     1      34.965   4.675  41.546  1.00  0.00    -0.064 NA
ATOM     13  H12 UNL     1      33.681   5.043  39.401  1.00  0.00     0.158 HD
ATOM     14  H11 UNL     1      32.135   5.474  40.114  1.00  0.00     0.158 HD
ATOM     15  H3  UNL     1      32.948   6.105  43.104  1.00  0.00     0.170 HD
ENDBRANCH   1   9
TORSDOF 1
ENDMDL
MODEL 4
REMARK VINA RESULT: -5.504682283      2.047      2.526
REMARK  1 active torsions:
REMARK  status: ('A' for Active; 'I' for Inactive)
REMARK       I    between atoms: N1_1  and  C1_4 
REMARK       I    between atoms: C1_4  and  N3_6 
REMARK    1  A    between atoms: N3_6  and  C2_8 
ROOT
HETATM    1  C2  UNL     1      31.404   3.452  42.755  1.00  0.00     0.201 A 
HETATM    2  N4  UNL     1      30.758   2.295  42.509  1.00  0.00    -0.220 N 
ATOM      3  H4  UNL     1      31.015   1.615  41.795  1.00  0.00     0.198 HD
HETATM    4  O1  UNL     1      29.764   2.187  43.320  1.00  0.00    -0.152 OA
HETATM    5  N5  UNL     1      29.674   3.202  44.122  1.00  0.00    -0.203 N 
ATOM      6  H5  UNL     1      28.975   3.349  44.851  1.00  0.00     0.200 HD
HETATM    7  C3  UNL     1      30.689   4.022  43.797  1.00  0.00     0.312 A 
HETATM    8  O2  UNL     1      30.960   5.118  44.335  1.00  0.00    -0.262 OA
ENDROOT
BRANCH   1   9
HETATM    9  N3  UNL     1      32.457   3.944  42.163  1.00  0.00    -0.311 N 
HETATM   10  C1  UNL     1      33.626   3.167  42.209  1.00  0.00     0.187 C 
HETATM   11  N1  UNL     1      33.720   2.129  41.483  1.00  0.00    -0.373 N 
HETATM   12  N2  UNL     1      34.669   3.560  43.063  1.00  0.00    -0.064 NA
ATOM     13  H12 UNL     1      34.569   1.564  41.516  1.00  0.00     0.158 HD
ATOM     14  H11 UNL     1      32.962   1.843  40.863  1.00  0.00     0.158 HD
ATOM     15  H3  UNL     1      32.432   4.848  41.692  1.00  0.00     0.170 HD
ENDBRANCH   1   9
TORSDOF 1
ENDMDL
MODEL 5
REMARK VINA RESULT: -5.410135394      1.284      1.954
REMARK  1 active torsions:
REMARK  status: ('A' for Active; 'I' for Inactive)
REMARK       I    between atoms: N1_1  and  C1_4 
REMARK       I    between atoms: C1_4  and  N3_6 
REMARK    1  A    between atoms: N3_6  and  C2_8 
ROOT
HETATM    1  C2  UNL     1      32.029   3.995  42.448  1.00  0.00     0.201 A 
HETATM    2  N4  UNL     1      30.818   3.425  42.290  1.00  0.00    -0.220 N 
ATOM      3  H4  UNL     1      30.400   3.164  41.397  1.00  0.00     0.198 HD
HETATM    4  O1  UNL     1      30.274   3.263  43.445  1.00  0.00    -0.152 OA
HETATM    5  N5  UNL     1      31.033   3.688  44.407  1.00  0.00    -0.203 N 
ATOM      6  H5  UNL     1      30.827   3.669  45.406  1.00  0.00     0.200 HD
HETATM    7  C3  UNL     1      32.148   4.156  43.819  1.00  0.00     0.312 A 
HETATM    8  O2  UNL     1      33.139   4.657  44.397  1.00  0.00    -0.262 OA
ENDROOT
BRANCH   1   9
HETATM    9  N3  UNL     1      32.903   4.327  41.539  1.00  0.00    -0.311 N 
HETATM   10  C1  UNL     1      34.025   3.493  41.408  1.00  0.00     0.187 C 
HETATM   11  N1  UNL     1      33.902   2.356  40.854  1.00  0.00    -0.373 N 
HETATM   12  N2  UNL     1      35.263   3.939  41.896  1.00  0.00    -0.064 NA
ATOM     13  H12 UNL     1      34.717   1.749  40.759  1.00  0.00     0.158 HD
ATOM     14  H11 UNL     1      33.003   2.032  40.500  1.00  0.00     0.158 HD
ATOM     15  H3  UNL     1      32.778   5.153  40.953  1.00  0.00     0.170 HD
ENDBRANCH   1   9
TORSDOF 1
ENDMDL
