MODEL 1
REMARK VINA RESULT: -6.095286072      0.000      0.000
REMARK  1 active torsions:
REMARK  status: ('A' for Active; 'I' for Inactive)
REMARK    1  A    between atoms: N1_1  and  C1_4 
ROOT
HETATM    1  C1  UNL     1      33.072   3.271  42.920  1.00  0.00     0.693 A 
HETATM    2  N2  UNL     1      32.217   2.368  42.401  1.00  0.00    -0.129 N 
ATOM      3  H2  UNL     1      32.602   1.595  41.859  1.00  0.00     0.205 HD
HETATM    4  N3  UNL     1      30.908   2.431  42.558  1.00  0.00    -0.247 N 
ATOM      5  H3  UNL     1      30.289   1.730  42.150  1.00  0.00     0.191 HD
HETATM    6  C2  UNL     1      30.426   3.460  43.277  1.00  0.00     0.329 A 
HETATM    7  O1  UNL     1      29.160   3.521  43.428  1.00  0.00    -0.261 OA
HETATM    8  C3  UNL     1      31.276   4.385  43.811  1.00  0.00     0.329 A 
HETATM    9  O2  UNL     1      30.788   5.351  44.489  1.00  0.00    -0.261 OA
HETATM   10  N4  UNL     1      32.611   4.308  43.644  1.00  0.00    -0.150 N 
ATOM     11  H4  UNL     1      33.241   5.002  44.045  1.00  0.00     0.188 HD
ENDROOT
BRANCH   1  12
HETATM   12  N1  UNL     1      34.352   3.203  42.763  1.00  0.00    -0.233 N 
ATOM     13  H12 UNL     1      34.683   2.688  41.948  1.00  0.00     0.174 HD
ATOM     14  H11 UNL     1      35.016   3.632  43.407  1.00  0.00     0.174 HD
ENDBRANCH   1  12
TORSDOF 1
ENDMDL
MODEL 2
REMARK VINA RESULT: -6.074854002      1.499      2.891
REMARK  1 active torsions:
REMARK  status: ('A' for Active; 'I' for Inactive)
REMARK    1  A    between atoms: N1_1  and  C1_4 
ROOT
HETATM    1  C1  UNL     1      29.937   2.918  42.819  1.00  0.00     0.693 A 
HETATM    2  N2  UNL     1      31.126   2.339  42.566  1.00  0.00    -0.129 N 
ATOM      3  H2  UNL     1      31.138   1.483  42.011  1.00  0.00     0.205 HD
HETATM    4  N3  UNL     1      32.278   2.819  42.998  1.00  0.00    -0.247 N 
ATOM      5  H3  UNL     1      33.161   2.354  42.788  1.00  0.00     0.191 HD
HETATM    6  C2  UNL     1      32.234   3.949  43.727  1.00  0.00     0.329 A 
HETATM    7  O1  UNL     1      33.348   4.413  44.145  1.00  0.00    -0.261 OA
HETATM    8  C3  UNL     1      31.039   4.551  43.995  1.00  0.00     0.329 A 
HETATM    9  O2  UNL     1      31.031   5.621  44.690  1.00  0.00    -0.261 OA
HETATM   10  N4  UNL     1      29.871   4.049  43.546  1.00  0.00    -0.150 N 
ATOM     11  H4  UNL     1      28.981   4.504  43.749  1.00  0.00     0.188 HD
ENDROOT
BRANCH   1  12
HETATM   12  N1  UNL     1      28.814   2.442  42.393  1.00  0.00    -0.233 N 
ATOM     13  H12 UNL     1      28.825   1.477  42.066  1.00  0.00     0.174 HD
ATOM     14  H11 UNL     1      27.951   2.984  42.374  1.00  0.00     0.174 HD
ENDBRANCH   1  12
TORSDOF 1
ENDMDL
MODEL 3
REMARK VINA RESULT: -6.025098864      1.948      3.028
REMARK  1 active torsions:
REMARK  status: ('A' for Active; 'I' for Inactive)
REMARK    1  A    between atoms: N1_1  and  C1_4 
ROOT
HETATM    1  C1  UNL     1      30.680   3.297  43.038  1.00  0.00     0.693 A 
HETATM    2  N2  UNL     1      31.435   2.369  42.419  1.00  0.00    -0.129 N 
ATOM      3  H2  UNL     1      30.962   1.639  41.886  1.00  0.00     0.205 HD
HETATM    4  N3  UNL     1      32.754   2.353  42.467  1.00  0.00    -0.247 N 
ATOM      5  H3  UNL     1      33.296   1.634  41.986  1.00  0.00     0.191 HD
HETATM    6  C2  UNL     1      33.352   3.326  43.176  1.00  0.00     0.329 A 
HETATM    7  O1  UNL     1      34.629   3.311  43.222  1.00  0.00    -0.261 OA
HETATM    8  C3  UNL     1      32.605   4.276  43.810  1.00  0.00     0.329 A 
HETATM    9  O2  UNL     1      33.203   5.186  44.476  1.00  0.00    -0.261 OA
HETATM   10  N4  UNL     1      31.258   4.280  43.753  1.00  0.00    -0.150 N 
ATOM     11  H4  UNL     1      30.705   4.992  44.228  1.00  0.00     0.188 HD
ENDROOT
BRANCH   1  12
HETATM   12  N1  UNL     1      29.389   3.306  42.987  1.00  0.00    -0.233 N 
ATOM     13  H12 UNL     1      28.972   3.369  42.059  1.00  0.00     0.174 HD
ATOM     14  H11 UNL     1      28.798   3.253  43.816  1.00  0.00     0.174 HD
ENDBRANCH   1  12
TORSDOF 1
ENDMDL
MODEL 4
REMARK VINA RESULT: -5.883755954      1.288      1.659
REMARK  1 active torsions:
REMARK  status: ('A' for Active; 'I' for Inactive)
REMARK    1  A    between atoms: N1_1  and  C1_4 
ROOT
HETATM    1  C1  UNL     1      32.861   2.428  42.316  1.00  0.00     0.693 A 
HETATM    2  N2  UNL     1      31.524   2.304  42.422  1.00  0.00    -0.129 N 
ATOM      3  H2  UNL     1      31.063   1.569  41.886  1.00  0.00     0.205 HD
HETATM    4  N3  UNL     1      30.778   3.083  43.184  1.00  0.00    -0.247 N 
ATOM      5  H3  UNL     1      29.766   2.962  43.241  1.00  0.00     0.191 HD
HETATM    6  C2  UNL     1      31.410   4.044  43.881  1.00  0.00     0.329 A 
HETATM    7  O1  UNL     1      30.689   4.798  44.617  1.00  0.00    -0.261 OA
HETATM    8  C3  UNL     1      32.765   4.186  43.787  1.00  0.00     0.329 A 
HETATM    9  O2  UNL     1      33.335   5.108  44.460  1.00  0.00    -0.261 OA
HETATM   10  N4  UNL     1      33.514   3.382  43.005  1.00  0.00    -0.150 N 
ATOM     11  H4  UNL     1      34.525   3.492  42.939  1.00  0.00     0.188 HD
ENDROOT
BRANCH   1  12
HETATM   12  N1  UNL     1      33.584   1.661  41.569  1.00  0.00    -0.233 N 
ATOM     13  H12 UNL     1      33.248   0.708  41.437  1.00  0.00     0.174 HD
ATOM     14  H11 UNL     1      34.447   1.971  41.123  1.00  0.00     0.174 HD
ENDBRANCH   1  12
TORSDOF 1
ENDMDL
MODEL 5
REMARK VINA RESULT: -5.847670569      0.689      2.175
REMARK  1 active torsions:
REMARK  status: ('A' for Active; 'I' for Inactive)
REMARK    1  A    between atoms: N1_1  and  C1_4 
ROOT
HETATM    1  C1  UNL     1      32.456   2.508  42.576  1.00  0.00     0.693 A 
HETATM    2  N2  UNL     1      33.189   3.443  43.211  1.00  0.00    -0.129 N 
ATOM      3  H2  UNL     1      34.205   3.372  43.167  1.00  0.00     0.205 HD
HETATM    4  N3  UNL     1      32.661   4.448  43.886  1.00  0.00    -0.247 N 
ATOM      5  H3  UNL     1      33.246   5.139  44.356  1.00  0.00     0.191 HD
HETATM    6  C2  UNL     1      31.319   4.519  43.928  1.00  0.00     0.329 A 
HETATM    7  O1  UNL     1      30.808   5.490  44.581  1.00  0.00    -0.261 OA
HETATM    8  C3  UNL     1      30.558   3.580  43.291  1.00  0.00     0.329 A 
HETATM    9  O2  UNL     1      29.287   3.675  43.350  1.00  0.00    -0.261 OA
HETATM   10  N4  UNL     1      31.111   2.560  42.605  1.00  0.00    -0.150 N 
ATOM     11  H4  UNL     1      30.539   1.863  42.131  1.00  0.00     0.188 HD
ENDROOT
BRANCH   1  12
HETATM   12  N1  UNL     1      32.979   1.528  41.917  1.00  0.00    -0.233 N 
ATOM     13  H12 UNL     1      32.387   0.711  41.770  1.00  0.00     0.174 HD
ATOM     14  H11 UNL     1      33.932   1.548  41.553  1.00  0.00     0.174 HD
ENDBRANCH   1  12
TORSDOF 1
ENDMDL
