MODEL 1
REMARK VINA RESULT: -6.231525148      0.000      0.000
REMARK  2 active torsions:
REMARK  status: ('A' for Active; 'I' for Inactive)
REMARK       I    between atoms: C1_2  and  N2_4 
REMARK    1  A    between atoms: N2_4  and  C2_6 
REMARK    2  A    between atoms: N5_11  and  N6_12 
ROOT
HETATM    1  C2  UNL     1      32.236   4.393  42.714  1.00  0.00     0.197 A 
HETATM    2  N3  UNL     1      32.353   3.211  42.078  1.00  0.00    -0.264 N 
ATOM      3  H3  UNL     1      33.066   2.953  41.397  1.00  0.00     0.190 HD
HETATM    4  N4  UNL     1      31.360   2.451  42.510  1.00  0.00    -0.217 N 
ATOM      5  H4  UNL     1      31.196   1.494  42.199  1.00  0.00     0.210 HD
HETATM    6  N5  UNL     1      30.615   3.076  43.383  1.00  0.00    -0.146 N 
HETATM    7  C3  UNL     1      31.138   4.315  43.542  1.00  0.00     0.328 A 
HETATM    8  O2  UNL     1      30.668   5.191  44.315  1.00  0.00    -0.260 OA
ENDROOT
BRANCH   1   9
HETATM    9  N2  UNL     1      32.983   5.433  42.603  1.00  0.00    -0.291 N 
HETATM   10  C1  UNL     1      33.786   5.648  41.450  1.00  0.00     0.334 C 
HETATM   11  N1  UNL     1      33.201   6.305  40.331  1.00  0.00    -0.040 NA
HETATM   12  O1  UNL     1      34.968   5.243  41.485  1.00  0.00    -0.251 OA
ATOM     13  H2  UNL     1      33.001   6.118  43.359  1.00  0.00     0.172 HD
ENDBRANCH   1   9
BRANCH   6  14
HETATM   14  N6  UNL     1      29.493   2.550  44.026  1.00  0.00    -0.320 N 
ATOM     15  H62 UNL     1      28.622   3.037  44.235  1.00  0.00     0.179 HD
ATOM     16  H61 UNL     1      29.398   1.596  44.376  1.00  0.00     0.179 HD
ENDBRANCH   6  14
TORSDOF 2
ENDMDL
MODEL 2
REMARK VINA RESULT: -5.859079575      1.861      4.231
REMARK  2 active torsions:
REMARK  status: ('A' for Active; 'I' for Inactive)
REMARK       I    between atoms: C1_2  and  N2_4 
REMARK    1  A    between atoms: N2_4  and  C2_6 
REMARK    2  A    between atoms: N5_11  and  N6_12 
ROOT
HETATM    1  C2  UNL     1      32.715   3.882  42.610  1.00  0.00     0.197 A 
HETATM    2  N3  UNL     1      32.297   4.354  41.420  1.00  0.00    -0.264 N 
ATOM      3  H3  UNL     1      31.337   4.567  41.152  1.00  0.00     0.190 HD
HETATM    4  N4  UNL     1      33.377   4.486  40.668  1.00  0.00    -0.217 N 
ATOM      5  H4  UNL     1      33.365   4.828  39.707  1.00  0.00     0.210 HD
HETATM    6  N5  UNL     1      34.460   4.127  41.305  1.00  0.00    -0.146 N 
HETATM    7  C3  UNL     1      34.083   3.735  42.545  1.00  0.00     0.328 A 
HETATM    8  O2  UNL     1      34.876   3.323  43.432  1.00  0.00    -0.260 OA
ENDROOT
BRANCH   1   9
HETATM    9  N2  UNL     1      32.009   3.602  43.648  1.00  0.00    -0.291 N 
HETATM   10  C1  UNL     1      30.758   4.236  43.885  1.00  0.00     0.334 C 
HETATM   11  N1  UNL     1      29.591   3.674  43.295  1.00  0.00    -0.040 NA
HETATM   12  O1  UNL     1      30.757   5.260  44.602  1.00  0.00    -0.251 OA
ATOM     13  H2  UNL     1      32.352   2.911  44.315  1.00  0.00     0.172 HD
ENDBRANCH   1   9
BRANCH   6  14
HETATM   14  N6  UNL     1      35.757   4.149  40.790  1.00  0.00    -0.320 N 
ATOM     15  H62 UNL     1      36.519   4.763  41.076  1.00  0.00     0.179 HD
ATOM     16  H61 UNL     1      36.115   3.547  40.048  1.00  0.00     0.179 HD
ENDBRANCH   6  14
TORSDOF 2
ENDMDL
MODEL 3
REMARK VINA RESULT: -5.828687447      1.851      4.190
REMARK  2 active torsions:
REMARK  status: ('A' for Active; 'I' for Inactive)
REMARK       I    between atoms: C1_2  and  N2_4 
REMARK    1  A    between atoms: N2_4  and  C2_6 
REMARK    2  A    between atoms: N5_11  and  N6_12 
ROOT
HETATM    1  C2  UNL     1      32.327   3.508  42.397  1.00  0.00     0.197 A 
HETATM    2  N3  UNL     1      32.279   2.169  42.260  1.00  0.00    -0.264 N 
ATOM      3  H3  UNL     1      31.501   1.558  42.508  1.00  0.00     0.190 HD
HETATM    4  N4  UNL     1      33.438   1.802  41.739  1.00  0.00    -0.217 N 
ATOM      5  H4  UNL     1      33.687   0.837  41.523  1.00  0.00     0.210 HD
HETATM    6  N5  UNL     1      34.225   2.825  41.536  1.00  0.00    -0.146 N 
HETATM    7  C3  UNL     1      33.556   3.931  41.941  1.00  0.00     0.328 A 
HETATM    8  O2  UNL     1      34.019   5.101  41.889  1.00  0.00    -0.260 OA
ENDROOT
BRANCH   1   9
HETATM    9  N2  UNL     1      31.421   4.294  42.862  1.00  0.00    -0.291 N 
HETATM   10  C1  UNL     1      30.329   3.794  43.623  1.00  0.00     0.334 C 
HETATM   11  N1  UNL     1      30.500   3.630  45.027  1.00  0.00    -0.040 NA
HETATM   12  O1  UNL     1      29.274   3.525  43.010  1.00  0.00    -0.251 OA
ATOM     13  H2  UNL     1      31.488   5.295  42.682  1.00  0.00     0.172 HD
ENDBRANCH   1   9
BRANCH   6  14
HETATM   14  N6  UNL     1      35.512   2.773  40.999  1.00  0.00    -0.320 N 
ATOM     15  H62 UNL     1      36.204   2.036  41.136  1.00  0.00     0.179 HD
ATOM     16  H61 UNL     1      35.935   3.475  40.393  1.00  0.00     0.179 HD
ENDBRANCH   6  14
TORSDOF 2
ENDMDL
MODEL 4
REMARK VINA RESULT: -5.775420336      1.631      3.997
REMARK  2 active torsions:
REMARK  status: ('A' for Active; 'I' for Inactive)
REMARK       I    between atoms: C1_2  and  N2_4 
REMARK    1  A    between atoms: N2_4  and  C2_6 
REMARK    2  A    between atoms: N5_11  and  N6_12 
ROOT
HETATM    1  C2  UNL     1      32.783   3.138  43.003  1.00  0.00     0.197 A 
HETATM    2  N3  UNL     1      32.872   1.979  42.323  1.00  0.00    -0.264 N 
ATOM      3  H3  UNL     1      32.440   1.089  42.573  1.00  0.00     0.190 HD
HETATM    4  N4  UNL     1      33.629   2.219  41.266  1.00  0.00    -0.217 N 
ATOM      5  H4  UNL     1      33.871   1.519  40.564  1.00  0.00     0.210 HD
HETATM    6  N5  UNL     1      34.031   3.462  41.229  1.00  0.00    -0.146 N 
HETATM    7  C3  UNL     1      33.515   4.082  42.317  1.00  0.00     0.328 A 
HETATM    8  O2  UNL     1      33.701   5.295  42.599  1.00  0.00    -0.260 OA
ENDROOT
BRANCH   1   9
HETATM    9  N2  UNL     1      32.147   3.372  44.095  1.00  0.00    -0.291 N 
HETATM   10  C1  UNL     1      30.879   4.014  44.090  1.00  0.00     0.334 C 
HETATM   11  N1  UNL     1      29.715   3.213  43.923  1.00  0.00    -0.040 NA
HETATM   12  O1  UNL     1      30.860   5.256  44.231  1.00  0.00    -0.251 OA
ATOM     13  H2  UNL     1      32.561   3.092  44.985  1.00  0.00     0.172 HD
ENDBRANCH   1   9
BRANCH   6  14
HETATM   14  N6  UNL     1      34.841   4.031  40.245  1.00  0.00    -0.320 N 
ATOM     15  H62 UNL     1      35.811   4.329  40.346  1.00  0.00     0.179 HD
ATOM     16  H61 UNL     1      34.563   4.227  39.283  1.00  0.00     0.179 HD
ENDBRANCH   6  14
TORSDOF 2
ENDMDL
MODEL 5
REMARK VINA RESULT: -5.571406516      1.990      2.071
REMARK  2 active torsions:
REMARK  status: ('A' for Active; 'I' for Inactive)
REMARK       I    between atoms: C1_2  and  N2_4 
REMARK    1  A    between atoms: N2_4  and  C2_6 
REMARK    2  A    between atoms: N5_11  and  N6_12 
ROOT
HETATM    1  C2  UNL     1      33.422   3.089  42.767  1.00  0.00     0.197 A 
HETATM    2  N3  UNL     1      32.624   2.164  42.201  1.00  0.00    -0.264 N 
ATOM      3  H3  UNL     1      32.918   1.373  41.628  1.00  0.00     0.190 HD
HETATM    4  N4  UNL     1      31.384   2.481  42.534  1.00  0.00    -0.217 N 
ATOM      5  H4  UNL     1      30.561   1.953  42.245  1.00  0.00     0.210 HD
HETATM    6  N5  UNL     1      31.341   3.554  43.279  1.00  0.00    -0.146 N 
HETATM    7  C3  UNL     1      32.617   3.973  43.452  1.00  0.00     0.328 A 
HETATM    8  O2  UNL     1      32.949   4.987  44.121  1.00  0.00    -0.260 OA
ENDROOT
BRANCH   1   9
HETATM    9  N2  UNL     1      34.704   3.177  42.710  1.00  0.00    -0.291 N 
HETATM   10  C1  UNL     1      35.368   3.527  41.503  1.00  0.00     0.334 C 
HETATM   11  N1  UNL     1      35.549   4.906  41.204  1.00  0.00    -0.040 NA
HETATM   12  O1  UNL     1      35.757   2.594  40.767  1.00  0.00    -0.251 OA
ATOM     13  H2  UNL     1      35.255   2.992  43.548  1.00  0.00     0.172 HD
ENDBRANCH   1   9
BRANCH   6  14
HETATM   14  N6  UNL     1      30.187   4.146  43.795  1.00  0.00    -0.320 N 
ATOM     15  H62 UNL     1      29.904   5.121  43.701  1.00  0.00     0.179 HD
ATOM     16  H61 UNL     1      29.467   3.674  44.342  1.00  0.00     0.179 HD
ENDBRANCH   6  14
TORSDOF 2
ENDMDL
