MODEL 1
REMARK VINA RESULT: -6.964703407      0.000      0.000
REMARK  4 active torsions:
REMARK  status: ('A' for Active; 'I' for Inactive)
REMARK    1  A    between atoms: C2_2  and  N1_4 
REMARK       I    between atoms: N1_4  and  C4_6 
REMARK       I    between atoms: C4_6  and  N2_8 
REMARK    2  A    between atoms: N2_8  and  C5_10 
REMARK    3  A    between atoms: C12_17  and  C13_18 
REMARK       I    between atoms: C13_18  and  N3_20 
REMARK    4  A    between atoms: N3_20  and  N4_22 
ROOT
HETATM    1  C5  UNL     1     -31.174   2.672  23.858  1.00  0.00     0.112 C 
HETATM    2  C6  UNL     1     -30.138   3.316  22.985  1.00  0.00     0.049 C 
HETATM    3  C7  UNL     1     -31.032   3.052  25.307  1.00  0.00     0.041 C 
HETATM    4  C8  UNL     1     -30.379   2.036  26.182  1.00  0.00     0.003 C 
HETATM    5  C9  UNL     1     -28.972   2.410  26.576  1.00  0.00     0.000 C 
HETATM    6  C10 UNL     1     -28.515   1.491  27.688  1.00  0.00     0.002 C 
HETATM    7  C11 UNL     1     -28.604   0.056  27.295  1.00  0.00     0.035 C 
HETATM    8  C12 UNL     1     -27.779  -0.357  26.119  1.00  0.00     0.178 C 
HETATM    9  N5  UNL     1     -28.561  -1.224  25.213  1.00  0.00    -0.346 N 
ATOM     10  H5  UNL     1     -29.085  -1.994  25.629  1.00  0.00     0.163 HD
HETATM   11  C14 UNL     1     -28.632  -1.059  23.817  1.00  0.00     0.236 C 
HETATM   12  O3  UNL     1     -28.360  -2.082  23.097  1.00  0.00    -0.272 OA
HETATM   13  C15 UNL     1     -29.008   0.238  23.146  1.00  0.00     0.228 C 
HETATM   14  N6  UNL     1     -30.448   0.324  22.990  1.00  0.00    -0.346 N 
HETATM   15  C16 UNL     1     -31.023  -0.617  22.040  1.00  0.00     0.153 C 
HETATM   16  C17 UNL     1     -31.310   1.208  23.666  1.00  0.00     0.247 C 
HETATM   17  O4  UNL     1     -32.370   0.720  24.203  1.00  0.00    -0.271 OA
ENDROOT
BRANCH   1  18
HETATM   18  N2  UNL     1     -32.468   3.244  23.434  1.00  0.00    -0.325 N 
HETATM   19  C4  UNL     1     -32.602   4.555  22.926  1.00  0.00     0.317 C 
HETATM   20  N1  UNL     1     -33.860   5.062  22.529  1.00  0.00    -0.339 N 
HETATM   21  O1  UNL     1     -31.583   5.273  22.830  1.00  0.00    -0.247 OA
ATOM     22  H1  UNL     1     -34.677   4.457  22.616  1.00  0.00     0.164 HD
ATOM     23  H2  UNL     1     -33.304   2.665  23.511  1.00  0.00     0.165 HD
BRANCH  20  24
HETATM   24  C2  UNL     1     -34.045   6.399  22.004  1.00  0.00     0.078 C 
HETATM   25  C1  UNL     1     -34.051   7.380  23.154  1.00  0.00     0.032 C 
HETATM   26  C3  UNL     1     -35.272   6.515  21.147  1.00  0.00     0.032 C 
ENDBRANCH  20  24
ENDBRANCH   1  18
BRANCH   8  27
HETATM   27  C13 UNL     1     -26.665  -1.224  26.621  1.00  0.00     0.258 C 
HETATM   28  O2  UNL     1     -26.858  -2.139  27.466  1.00  0.00    -0.269 OA
HETATM   29  N3  UNL     1     -25.337  -1.057  26.168  1.00  0.00    -0.275 N 
ATOM     30  H3  UNL     1     -25.148  -0.325  25.482  1.00  0.00     0.189 HD
BRANCH  29  31
HETATM   31  N4  UNL     1     -24.271  -1.842  26.611  1.00  0.00    -0.343 N 
ATOM     32  H42 UNL     1     -24.262  -2.105  27.597  1.00  0.00     0.176 HD
ATOM     33  H41 UNL     1     -23.516  -2.157  26.002  1.00  0.00     0.176 HD
ENDBRANCH  29  31
ENDBRANCH   8  27
TORSDOF 4
ENDMDL
MODEL 2
REMARK VINA RESULT: -6.907967685      2.343      2.862
REMARK  4 active torsions:
REMARK  status: ('A' for Active; 'I' for Inactive)
REMARK    1  A    between atoms: C2_2  and  N1_4 
REMARK       I    between atoms: N1_4  and  C4_6 
REMARK       I    between atoms: C4_6  and  N2_8 
REMARK    2  A    between atoms: N2_8  and  C5_10 
REMARK    3  A    between atoms: C12_17  and  C13_18 
REMARK       I    between atoms: C13_18  and  N3_20 
REMARK    4  A    between atoms: N3_20  and  N4_22 
ROOT
HETATM    1  C5  UNL     1     -30.839   1.300  25.366  1.00  0.00     0.112 C 
HETATM    2  C6  UNL     1     -29.882   2.242  26.035  1.00  0.00     0.049 C 
HETATM    3  C7  UNL     1     -31.590   0.440  26.346  1.00  0.00     0.041 C 
HETATM    4  C8  UNL     1     -31.093  -0.957  26.496  1.00  0.00     0.003 C 
HETATM    5  C9  UNL     1     -30.355  -1.189  27.790  1.00  0.00     0.000 C 
HETATM    6  C10 UNL     1     -30.165  -2.678  27.985  1.00  0.00     0.002 C 
HETATM    7  C11 UNL     1     -29.451  -3.302  26.835  1.00  0.00     0.035 C 
HETATM    8  C12 UNL     1     -28.073  -2.791  26.561  1.00  0.00     0.178 C 
HETATM    9  N5  UNL     1     -27.878  -2.574  25.112  1.00  0.00    -0.346 N 
ATOM     10  H5  UNL     1     -28.166  -3.319  24.477  1.00  0.00     0.163 HD
HETATM   11  C14 UNL     1     -27.322  -1.411  24.548  1.00  0.00     0.236 C 
HETATM   12  O3  UNL     1     -26.340  -1.568  23.741  1.00  0.00    -0.272 OA
HETATM   13  C15 UNL     1     -27.820  -0.018  24.843  1.00  0.00     0.228 C 
HETATM   14  N6  UNL     1     -28.889   0.337  23.929  1.00  0.00    -0.346 N 
HETATM   15  C16 UNL     1     -28.482   0.513  22.542  1.00  0.00     0.153 C 
HETATM   16  C17 UNL     1     -30.246   0.512  24.259  1.00  0.00     0.247 C 
HETATM   17  O4  UNL     1     -31.122  -0.073  23.524  1.00  0.00    -0.271 OA
ENDROOT
BRANCH   1  18
HETATM   18  N2  UNL     1     -31.865   2.153  24.734  1.00  0.00    -0.325 N 
HETATM   19  C4  UNL     1     -32.219   3.427  25.228  1.00  0.00     0.317 C 
HETATM   20  N1  UNL     1     -33.207   4.213  24.590  1.00  0.00    -0.339 N 
HETATM   21  O1  UNL     1     -31.644   3.861  26.250  1.00  0.00    -0.247 OA
ATOM     22  H1  UNL     1     -33.662   3.838  23.757  1.00  0.00     0.164 HD
ATOM     23  H2  UNL     1     -32.340   1.805  23.901  1.00  0.00     0.165 HD
BRANCH  20  24
HETATM   24  C2  UNL     1     -33.602   5.523  25.062  1.00  0.00     0.078 C 
HETATM   25  C1  UNL     1     -34.771   5.371  26.008  1.00  0.00     0.032 C 
HETATM   26  C3  UNL     1     -33.896   6.474  23.938  1.00  0.00     0.032 C 
ENDBRANCH  20  24
ENDBRANCH   1  18
BRANCH   8  27
HETATM   27  C13 UNL     1     -27.101  -3.871  26.926  1.00  0.00     0.258 C 
HETATM   28  O2  UNL     1     -26.820  -4.140  28.126  1.00  0.00    -0.269 OA
HETATM   29  N3  UNL     1     -26.452  -4.645  25.940  1.00  0.00    -0.275 N 
ATOM     30  H3  UNL     1     -26.660  -4.454  24.960  1.00  0.00     0.189 HD
BRANCH  29  31
HETATM   31  N4  UNL     1     -25.539  -5.660  26.238  1.00  0.00    -0.343 N 
ATOM     32  H42 UNL     1     -24.664  -5.670  25.713  1.00  0.00     0.176 HD
ATOM     33  H41 UNL     1     -25.708  -6.376  26.944  1.00  0.00     0.176 HD
ENDBRANCH  29  31
ENDBRANCH   8  27
TORSDOF 4
ENDMDL
MODEL 3
REMARK VINA RESULT: -6.863477790      2.556      8.380
REMARK  4 active torsions:
REMARK  status: ('A' for Active; 'I' for Inactive)
REMARK    1  A    between atoms: C2_2  and  N1_4 
REMARK       I    between atoms: N1_4  and  C4_6 
REMARK       I    between atoms: C4_6  and  N2_8 
REMARK    2  A    between atoms: N2_8  and  C5_10 
REMARK    3  A    between atoms: C12_17  and  C13_18 
REMARK       I    between atoms: C13_18  and  N3_20 
REMARK    4  A    between atoms: N3_20  and  N4_22 
ROOT
HETATM    1  C5  UNL     1     -31.990   2.305  25.408  1.00  0.00     0.112 C 
HETATM    2  C6  UNL     1     -33.112   1.329  25.208  1.00  0.00     0.049 C 
HETATM    3  C7  UNL     1     -32.428   3.556  26.121  1.00  0.00     0.041 C 
HETATM    4  C8  UNL     1     -32.653   4.749  25.258  1.00  0.00     0.003 C 
HETATM    5  C9  UNL     1     -34.113   5.077  25.067  1.00  0.00     0.000 C 
HETATM    6  C10 UNL     1     -34.229   6.453  24.447  1.00  0.00     0.002 C 
HETATM    7  C11 UNL     1     -33.480   6.548  23.161  1.00  0.00     0.035 C 
HETATM    8  C12 UNL     1     -33.920   5.619  22.075  1.00  0.00     0.178 C 
HETATM    9  N5  UNL     1     -32.751   5.005  21.411  1.00  0.00    -0.346 N 
ATOM     10  H5  UNL     1     -31.986   5.620  21.132  1.00  0.00     0.163 HD
HETATM   11  C14 UNL     1     -32.620   3.630  21.138  1.00  0.00     0.236 C 
HETATM   12  O3  UNL     1     -32.343   3.301  19.932  1.00  0.00    -0.272 OA
HETATM   13  C15 UNL     1     -32.787   2.551  22.179  1.00  0.00     0.228 C 
HETATM   14  N6  UNL     1     -31.523   2.296  22.844  1.00  0.00    -0.346 N 
HETATM   15  C16 UNL     1     -30.502   1.676  22.012  1.00  0.00     0.153 C 
HETATM   16  C17 UNL     1     -31.209   2.596  24.182  1.00  0.00     0.247 C 
HETATM   17  O4  UNL     1     -30.100   3.203  24.417  1.00  0.00    -0.271 OA
ENDROOT
BRANCH   1  18
HETATM   18  N2  UNL     1     -31.043   1.646  26.329  1.00  0.00    -0.325 N 
HETATM   19  C4  UNL     1     -30.534   0.347  26.111  1.00  0.00     0.317 C 
HETATM   20  N1  UNL     1     -29.626  -0.247  27.019  1.00  0.00    -0.339 N 
HETATM   21  O1  UNL     1     -30.897  -0.283  25.094  1.00  0.00    -0.247 OA
ATOM     22  H1  UNL     1     -29.343   0.287  27.841  1.00  0.00     0.164 HD
ATOM     23  H2  UNL     1     -30.743   2.152  27.162  1.00  0.00     0.165 HD
BRANCH  20  24
HETATM   24  C2  UNL     1     -29.079  -1.575  26.836  1.00  0.00     0.078 C 
HETATM   25  C1  UNL     1     -29.885  -2.554  27.659  1.00  0.00     0.032 C 
HETATM   26  C3  UNL     1     -27.612  -1.639  27.145  1.00  0.00     0.032 C 
ENDBRANCH  20  24
ENDBRANCH   1  18
BRANCH   8  27
HETATM   27  C13 UNL     1     -34.584   6.439  21.011  1.00  0.00     0.258 C 
HETATM   28  O2  UNL     1     -34.924   5.946  19.901  1.00  0.00    -0.269 OA
HETATM   29  N3  UNL     1     -34.865   7.809  21.202  1.00  0.00    -0.275 N 
ATOM     30  H3  UNL     1     -34.604   8.237  22.091  1.00  0.00     0.189 HD
BRANCH  29  31
HETATM   31  N4  UNL     1     -35.481   8.609  20.237  1.00  0.00    -0.343 N 
ATOM     32  H42 UNL     1     -36.501   8.652  20.248  1.00  0.00     0.176 HD
ATOM     33  H41 UNL     1     -34.965   9.140  19.536  1.00  0.00     0.176 HD
ENDBRANCH  29  31
ENDBRANCH   8  27
TORSDOF 4
ENDMDL
MODEL 4
REMARK VINA RESULT: -6.824837955      2.884      8.210
REMARK  4 active torsions:
REMARK  status: ('A' for Active; 'I' for Inactive)
REMARK    1  A    between atoms: C2_2  and  N1_4 
REMARK       I    between atoms: N1_4  and  C4_6 
REMARK       I    between atoms: C4_6  and  N2_8 
REMARK    2  A    between atoms: N2_8  and  C5_10 
REMARK    3  A    between atoms: C12_17  and  C13_18 
REMARK       I    between atoms: C13_18  and  N3_20 
REMARK    4  A    between atoms: N3_20  and  N4_22 
ROOT
HETATM    1  C5  UNL     1     -30.724   2.590  25.527  1.00  0.00     0.112 C 
HETATM    2  C6  UNL     1     -31.136   1.183  25.846  1.00  0.00     0.049 C 
HETATM    3  C7  UNL     1     -31.374   3.605  26.428  1.00  0.00     0.041 C 
HETATM    4  C8  UNL     1     -32.533   4.339  25.846  1.00  0.00     0.003 C 
HETATM    5  C9  UNL     1     -33.860   3.893  26.405  1.00  0.00     0.000 C 
HETATM    6  C10 UNL     1     -34.925   4.886  25.993  1.00  0.00     0.002 C 
HETATM    7  C11 UNL     1     -34.988   5.048  24.512  1.00  0.00     0.035 C 
HETATM    8  C12 UNL     1     -35.314   3.817  23.729  1.00  0.00     0.178 C 
HETATM    9  N5  UNL     1     -34.430   3.702  22.550  1.00  0.00    -0.346 N 
ATOM     10  H5  UNL     1     -34.306   4.530  21.968  1.00  0.00     0.163 HD
HETATM   11  C14 UNL     1     -33.749   2.528  22.177  1.00  0.00     0.236 C 
HETATM   12  O3  UNL     1     -33.907   2.123  20.972  1.00  0.00    -0.272 OA
HETATM   13  C15 UNL     1     -32.859   1.745  23.109  1.00  0.00     0.228 C 
HETATM   14  N6  UNL     1     -31.504   2.262  23.063  1.00  0.00    -0.346 N 
HETATM   15  C16 UNL     1     -30.800   2.036  21.808  1.00  0.00     0.153 C 
HETATM   16  C17 UNL     1     -30.837   2.949  24.094  1.00  0.00     0.247 C 
HETATM   17  O4  UNL     1     -30.229   4.040  23.792  1.00  0.00    -0.271 OA
ENDROOT
BRANCH   1  18
HETATM   18  N2  UNL     1     -29.282   2.665  25.837  1.00  0.00    -0.325 N 
HETATM   19  C4  UNL     1     -28.643   1.795  26.747  1.00  0.00     0.317 C 
HETATM   20  N1  UNL     1     -27.258   1.900  27.013  1.00  0.00    -0.339 N 
HETATM   21  O1  UNL     1     -29.321   0.917  27.324  1.00  0.00    -0.247 OA
ATOM     22  H1  UNL     1     -26.724   2.623  26.530  1.00  0.00     0.164 HD
ATOM     23  H2  UNL     1     -28.721   3.379  25.372  1.00  0.00     0.165 HD
BRANCH  20  24
HETATM   24  C2  UNL     1     -26.561   1.031  27.938  1.00  0.00     0.078 C 
HETATM   25  C1  UNL     1     -25.732   1.877  28.876  1.00  0.00     0.032 C 
HETATM   26  C3  UNL     1     -25.744  -0.016  27.238  1.00  0.00     0.032 C 
ENDBRANCH  20  24
ENDBRANCH   1  18
BRANCH   8  27
HETATM   27  C13 UNL     1     -36.693   3.982  23.166  1.00  0.00     0.258 C 
HETATM   28  O2  UNL     1     -37.717   3.570  23.775  1.00  0.00    -0.269 OA
HETATM   29  N3  UNL     1     -36.912   4.611  21.921  1.00  0.00    -0.275 N 
ATOM     30  H3  UNL     1     -36.103   4.958  21.405  1.00  0.00     0.189 HD
BRANCH  29  31
HETATM   31  N4  UNL     1     -38.180   4.784  21.361  1.00  0.00    -0.343 N 
ATOM     32  H42 UNL     1     -38.890   5.231  21.941  1.00  0.00     0.176 HD
ATOM     33  H41 UNL     1     -38.420   4.487  20.415  1.00  0.00     0.176 HD
ENDBRANCH  29  31
ENDBRANCH   8  27
TORSDOF 4
ENDMDL
MODEL 5
REMARK VINA RESULT: -6.804115794      1.063      1.160
REMARK  4 active torsions:
REMARK  status: ('A' for Active; 'I' for Inactive)
REMARK    1  A    between atoms: C2_2  and  N1_4 
REMARK       I    between atoms: N1_4  and  C4_6 
REMARK       I    between atoms: C4_6  and  N2_8 
REMARK    2  A    between atoms: N2_8  and  C5_10 
REMARK    3  A    between atoms: C12_17  and  C13_18 
REMARK       I    between atoms: C13_18  and  N3_20 
REMARK    4  A    between atoms: N3_20  and  N4_22 
ROOT
HETATM    1  C5  UNL     1     -31.484   3.122  24.300  1.00  0.00     0.112 C 
HETATM    2  C6  UNL     1     -30.577   4.007  23.498  1.00  0.00     0.049 C 
HETATM    3  C7  UNL     1     -31.193   3.175  25.775  1.00  0.00     0.041 C 
HETATM    4  C8  UNL     1     -30.410   2.030  26.322  1.00  0.00     0.003 C 
HETATM    5  C9  UNL     1     -28.982   2.390  26.647  1.00  0.00     0.000 C 
HETATM    6  C10 UNL     1     -28.370   1.275  27.466  1.00  0.00     0.002 C 
HETATM    7  C11 UNL     1     -28.452  -0.038  26.766  1.00  0.00     0.035 C 
HETATM    8  C12 UNL     1     -27.750  -0.126  25.448  1.00  0.00     0.178 C 
HETATM    9  N5  UNL     1     -28.598  -0.813  24.452  1.00  0.00    -0.346 N 
ATOM     10  H5  UNL     1     -29.044  -1.687  24.730  1.00  0.00     0.163 HD
HETATM   11  C14 UNL     1     -28.831  -0.344  23.146  1.00  0.00     0.236 C 
HETATM   12  O3  UNL     1     -28.606  -1.161  22.186  1.00  0.00    -0.272 OA
HETATM   13  C15 UNL     1     -29.326   1.046  22.831  1.00  0.00     0.228 C 
HETATM   14  N6  UNL     1     -30.777   1.078  22.847  1.00  0.00    -0.346 N 
HETATM   15  C16 UNL     1     -31.422   0.340  21.769  1.00  0.00     0.153 C 
HETATM   16  C17 UNL     1     -31.588   1.734  23.792  1.00  0.00     0.247 C 
HETATM   17  O4  UNL     1     -32.563   1.074  24.306  1.00  0.00    -0.271 OA
ENDROOT
BRANCH   1  18
HETATM   18  N2  UNL     1     -32.838   3.695  24.152  1.00  0.00    -0.325 N 
HETATM   19  C4  UNL     1     -33.355   4.141  22.916  1.00  0.00     0.317 C 
HETATM   20  N1  UNL     1     -34.658   4.681  22.818  1.00  0.00    -0.339 N 
HETATM   21  O1  UNL     1     -32.641   4.052  21.893  1.00  0.00    -0.247 OA
ATOM     22  H1  UNL     1     -35.222   4.743  23.666  1.00  0.00     0.164 HD
ATOM     23  H2  UNL     1     -33.426   3.773  24.982  1.00  0.00     0.165 HD
BRANCH  20  24
HETATM   24  C2  UNL     1     -35.229   5.151  21.573  1.00  0.00     0.078 C 
HETATM   25  C1  UNL     1     -34.975   6.636  21.447  1.00  0.00     0.032 C 
HETATM   26  C3  UNL     1     -36.684   4.806  21.443  1.00  0.00     0.032 C 
ENDBRANCH  20  24
ENDBRANCH   1  18
BRANCH   8  27
HETATM   27  C13 UNL     1     -26.556  -1.014  25.622  1.00  0.00     0.258 C 
HETATM   28  O2  UNL     1     -26.350  -2.010  24.877  1.00  0.00    -0.269 OA
HETATM   29  N3  UNL     1     -25.599  -0.776  26.633  1.00  0.00    -0.275 N 
ATOM     30  H3  UNL     1     -25.737   0.024  27.251  1.00  0.00     0.189 HD
BRANCH  29  31
HETATM   31  N4  UNL     1     -24.474  -1.580  26.829  1.00  0.00    -0.343 N 
ATOM     32  H42 UNL     1     -23.726  -1.514  26.139  1.00  0.00     0.176 HD
ATOM     33  H41 UNL     1     -24.372  -2.218  27.619  1.00  0.00     0.176 HD
ENDBRANCH  29  31
ENDBRANCH   8  27
TORSDOF 4
ENDMDL
