MODEL 1
REMARK VINA RESULT: -7.383729364      0.000      0.000
REMARK  6 active torsions:
REMARK  status: ('A' for Active; 'I' for Inactive)
REMARK    1  A    between atoms: C2_2  and  C5_5 
REMARK    2  A    between atoms: C5_5  and  N1_6 
REMARK    3  A    between atoms: C5_5  and  C6_10 
REMARK       I    between atoms: C6_10  and  N2_12 
REMARK    4  A    between atoms: C10_16  and  C11_17 
REMARK       I    between atoms: C11_17  and  N3_19 
REMARK    5  A    between atoms: N3_19  and  N4_21 
REMARK       I    between atoms: N4_21  and  C12_23 
REMARK       I    between atoms: N6_25  and  C13_27 
REMARK    6  A    between atoms: C13_27  and  C14_29 
ROOT
HETATM    1  C11 UNL     1     -30.600   2.262  24.284  1.00  0.00     0.259 C 
HETATM    2  O2  UNL     1     -30.017   3.171  24.943  1.00  0.00    -0.269 OA
HETATM    3  N3  UNL     1     -29.926   1.038  24.104  1.00  0.00    -0.266 N 
ATOM      4  H3  UNL     1     -30.373   0.288  23.576  1.00  0.00     0.190 HD
ENDROOT
BRANCH   1   5
HETATM    5  C10 UNL     1     -31.961   2.571  23.749  1.00  0.00     0.181 C 
HETATM    6  N2  UNL     1     -32.155   3.938  23.403  1.00  0.00    -0.337 N 
HETATM    7  C6  UNL     1     -32.731   5.024  24.083  1.00  0.00     0.252 C 
HETATM    8  C7  UNL     1     -31.545   4.031  22.033  1.00  0.00     0.127 C 
HETATM    9  O1  UNL     1     -32.668   6.141  23.459  1.00  0.00    -0.271 OA
HETATM   10  C8  UNL     1     -32.221   2.877  21.353  1.00  0.00     0.022 C 
HETATM   11  C9  UNL     1     -32.168   1.808  22.416  1.00  0.00     0.037 C 
BRANCH   7  12
HETATM   12  C5  UNL     1     -33.366   5.015  25.372  1.00  0.00     0.282 C 
BRANCH  12  13
HETATM   13  C2  UNL     1     -34.691   4.314  25.491  1.00  0.00    -0.014 C 
HETATM   14  C1  UNL     1     -34.648   2.916  25.992  1.00  0.00     0.017 C 
HETATM   15  C3  UNL     1     -35.487   5.085  26.608  1.00  0.00     0.017 C 
HETATM   16  C4  UNL     1     -35.571   4.431  24.295  1.00  0.00     0.017 C 
ENDBRANCH  12  13
BRANCH  12  17
HETATM   17  N1  UNL     1     -32.559   4.536  26.479  1.00  0.00    -0.066 N 
ATOM     18  H13 UNL     1     -32.468   3.520  26.508  1.00  0.00     0.275 HD
ATOM     19  H12 UNL     1     -31.566   4.745  26.379  1.00  0.00     0.275 HD
ATOM     20  H11 UNL     1     -32.975   4.931  27.322  1.00  0.00     0.275 HD
ENDBRANCH  12  17
ENDBRANCH   7  12
ENDBRANCH   1   5
BRANCH   3  21
HETATM   21  N4  UNL     1     -28.656   0.842  24.640  1.00  0.00    -0.271 N 
HETATM   22  C12 UNL     1     -28.396   0.624  26.029  1.00  0.00     0.209 C 
HETATM   23  N5  UNL     1     -29.170  -0.332  26.738  1.00  0.00    -0.062 NA
HETATM   24  N6  UNL     1     -27.479   1.266  26.655  1.00  0.00    -0.298 N 
HETATM   25  C13 UNL     1     -27.224   1.049  28.022  1.00  0.00     0.255 C 
ATOM     26  H6  UNL     1     -26.921   1.953  26.149  1.00  0.00     0.171 HD
HETATM   27  O3  UNL     1     -27.829   0.163  28.677  1.00  0.00    -0.271 OA
ATOM     28  H4  UNL     1     -27.862   0.854  24.001  1.00  0.00     0.189 HD
BRANCH  25  29
HETATM   29  C14 UNL     1     -26.193   1.920  28.673  1.00  0.00     0.277 C 
HETATM   30  C15 UNL     1     -25.977   3.121  27.798  1.00  0.00     0.044 C 
HETATM   31  C16 UNL     1     -24.483   3.234  27.633  1.00  0.00     0.030 C 
HETATM   32  C17 UNL     1     -23.933   2.318  28.681  1.00  0.00     0.233 C 
HETATM   33  N7  UNL     1     -24.913   1.243  28.741  1.00  0.00    -0.062 N 
ATOM     34  H72 UNL     1     -24.808   0.627  29.547  1.00  0.00     0.278 HD
ATOM     35  H71 UNL     1     -24.784   0.520  28.031  1.00  0.00     0.278 HD
ENDBRANCH  25  29
ENDBRANCH   3  21
TORSDOF 6
ENDMDL
MODEL 2
REMARK VINA RESULT: -7.181403829      2.200      2.987
REMARK  6 active torsions:
REMARK  status: ('A' for Active; 'I' for Inactive)
REMARK    1  A    between atoms: C2_2  and  C5_5 
REMARK    2  A    between atoms: C5_5  and  N1_6 
REMARK    3  A    between atoms: C5_5  and  C6_10 
REMARK       I    between atoms: C6_10  and  N2_12 
REMARK    4  A    between atoms: C10_16  and  C11_17 
REMARK       I    between atoms: C11_17  and  N3_19 
REMARK    5  A    between atoms: N3_19  and  N4_21 
REMARK       I    between atoms: N4_21  and  C12_23 
REMARK       I    between atoms: N6_25  and  C13_27 
REMARK    6  A    between atoms: C13_27  and  C14_29 
ROOT
HETATM    1  C11 UNL     1     -30.365   1.240  26.020  1.00  0.00     0.259 C 
HETATM    2  O2  UNL     1     -29.766   2.062  25.269  1.00  0.00    -0.269 OA
HETATM    3  N3  UNL     1     -29.586   0.332  26.764  1.00  0.00    -0.266 N 
ATOM      4  H3  UNL     1     -30.043  -0.342  27.377  1.00  0.00     0.190 HD
ENDROOT
BRANCH   1   5
HETATM    5  C10 UNL     1     -31.858   1.302  26.050  1.00  0.00     0.181 C 
HETATM    6  N2  UNL     1     -32.471   1.217  24.768  1.00  0.00    -0.337 N 
HETATM    7  C6  UNL     1     -32.954   2.185  23.872  1.00  0.00     0.252 C 
HETATM    8  C7  UNL     1     -32.493  -0.261  24.500  1.00  0.00     0.127 C 
HETATM    9  O1  UNL     1     -33.393   1.718  22.763  1.00  0.00    -0.271 OA
HETATM   10  C8  UNL     1     -33.109  -0.761  25.773  1.00  0.00     0.022 C 
HETATM   11  C9  UNL     1     -32.403   0.070  26.815  1.00  0.00     0.037 C 
BRANCH   7  12
HETATM   12  C5  UNL     1     -33.006   3.609  24.063  1.00  0.00     0.282 C 
BRANCH  12  13
HETATM   13  C2  UNL     1     -33.821   4.128  25.215  1.00  0.00    -0.014 C 
HETATM   14  C1  UNL     1     -33.061   4.507  26.434  1.00  0.00     0.017 C 
HETATM   15  C3  UNL     1     -34.441   5.488  24.725  1.00  0.00     0.017 C 
HETATM   16  C4  UNL     1     -35.015   3.306  25.557  1.00  0.00     0.017 C 
ENDBRANCH  12  13
BRANCH  12  17
HETATM   17  N1  UNL     1     -31.726   4.291  24.139  1.00  0.00    -0.066 N 
ATOM     18  H13 UNL     1     -31.635   5.059  23.473  1.00  0.00     0.275 HD
ATOM     19  H12 UNL     1     -31.611   4.847  24.985  1.00  0.00     0.275 HD
ATOM     20  H11 UNL     1     -31.016   3.568  24.027  1.00  0.00     0.275 HD
ENDBRANCH  12  17
ENDBRANCH   7  12
ENDBRANCH   1   5
BRANCH   3  21
HETATM   21  N4  UNL     1     -28.196   0.348  26.670  1.00  0.00    -0.271 N 
HETATM   22  C12 UNL     1     -27.335   0.986  27.617  1.00  0.00     0.209 C 
HETATM   23  N5  UNL     1     -27.538   0.758  29.004  1.00  0.00    -0.062 NA
HETATM   24  N6  UNL     1     -26.380   1.758  27.250  1.00  0.00    -0.298 N 
HETATM   25  C13 UNL     1     -25.533   2.384  28.184  1.00  0.00     0.255 C 
ATOM     26  H6  UNL     1     -26.230   1.924  26.255  1.00  0.00     0.171 HD
HETATM   27  O3  UNL     1     -25.622   2.158  29.416  1.00  0.00    -0.271 OA
ATOM     28  H4  UNL     1     -27.766  -0.126  25.877  1.00  0.00     0.189 HD
BRANCH  25  29
HETATM   29  C14 UNL     1     -24.508   3.337  27.647  1.00  0.00     0.277 C 
HETATM   30  C15 UNL     1     -24.368   4.470  28.622  1.00  0.00     0.044 C 
HETATM   31  C16 UNL     1     -24.475   5.726  27.797  1.00  0.00     0.030 C 
HETATM   32  C17 UNL     1     -24.327   5.247  26.388  1.00  0.00     0.233 C 
HETATM   33  N7  UNL     1     -24.959   3.936  26.406  1.00  0.00    -0.062 N 
ATOM     34  H72 UNL     1     -24.773   3.371  25.578  1.00  0.00     0.278 HD
ATOM     35  H71 UNL     1     -25.974   3.960  26.299  1.00  0.00     0.278 HD
ENDBRANCH  25  29
ENDBRANCH   3  21
TORSDOF 6
ENDMDL
MODEL 3
REMARK VINA RESULT: -6.950603255      2.176      2.812
REMARK  6 active torsions:
REMARK  status: ('A' for Active; 'I' for Inactive)
REMARK    1  A    between atoms: C2_2  and  C5_5 
REMARK    2  A    between atoms: C5_5  and  N1_6 
REMARK    3  A    between atoms: C5_5  and  C6_10 
REMARK       I    between atoms: C6_10  and  N2_12 
REMARK    4  A    between atoms: C10_16  and  C11_17 
REMARK       I    between atoms: C11_17  and  N3_19 
REMARK    5  A    between atoms: N3_19  and  N4_21 
REMARK       I    between atoms: N4_21  and  C12_23 
REMARK       I    between atoms: N6_25  and  C13_27 
REMARK    6  A    between atoms: C13_27  and  C14_29 
ROOT
HETATM    1  C11 UNL     1     -30.871   2.635  23.066  1.00  0.00     0.259 C 
HETATM    2  O2  UNL     1     -30.170   3.098  24.011  1.00  0.00    -0.269 OA
HETATM    3  N3  UNL     1     -30.232   1.835  22.098  1.00  0.00    -0.266 N 
ATOM      4  H3  UNL     1     -30.773   1.449  21.325  1.00  0.00     0.190 HD
ENDROOT
BRANCH   1   5
HETATM    5  C10 UNL     1     -32.324   2.983  23.058  1.00  0.00     0.181 C 
HETATM    6  N2  UNL     1     -32.590   4.381  23.061  1.00  0.00    -0.337 N 
HETATM    7  C6  UNL     1     -32.896   5.294  24.084  1.00  0.00     0.252 C 
HETATM    8  C7  UNL     1     -32.445   4.757  21.614  1.00  0.00     0.127 C 
HETATM    9  O1  UNL     1     -33.012   6.510  23.700  1.00  0.00    -0.271 OA
HETATM   10  C8  UNL     1     -33.325   3.726  20.973  1.00  0.00     0.022 C 
HETATM   11  C9  UNL     1     -32.960   2.478  21.738  1.00  0.00     0.037 C 
BRANCH   7  12
HETATM   12  C5  UNL     1     -33.090   5.014  25.480  1.00  0.00     0.282 C 
BRANCH  12  13
HETATM   13  C2  UNL     1     -34.371   4.340  25.885  1.00  0.00    -0.014 C 
HETATM   14  C1  UNL     1     -34.282   2.884  26.165  1.00  0.00     0.017 C 
HETATM   15  C3  UNL     1     -34.765   4.963  27.275  1.00  0.00     0.017 C 
HETATM   16  C4  UNL     1     -35.543   4.653  25.021  1.00  0.00     0.017 C 
ENDBRANCH  12  13
BRANCH  12  17
HETATM   17  N1  UNL     1     -32.025   4.279  26.138  1.00  0.00    -0.066 N 
ATOM     18  H13 UNL     1     -31.242   4.867  26.427  1.00  0.00     0.275 HD
ATOM     19  H12 UNL     1     -32.276   3.944  27.068  1.00  0.00     0.275 HD
ATOM     20  H11 UNL     1     -31.758   3.534  25.495  1.00  0.00     0.275 HD
ENDBRANCH  12  17
ENDBRANCH   7  12
ENDBRANCH   1   5
BRANCH   3  21
HETATM   21  N4  UNL     1     -28.869   1.565  22.188  1.00  0.00    -0.271 N 
HETATM   22  C12 UNL     1     -28.324   0.334  22.670  1.00  0.00     0.209 C 
HETATM   23  N5  UNL     1     -28.839  -0.893  22.174  1.00  0.00    -0.062 NA
HETATM   24  N6  UNL     1     -27.379   0.305  23.536  1.00  0.00    -0.298 N 
HETATM   25  C13 UNL     1     -26.844  -0.909  24.007  1.00  0.00     0.255 C 
ATOM     26  H6  UNL     1     -27.006   1.184  23.894  1.00  0.00     0.171 HD
HETATM   27  O3  UNL     1     -27.211  -2.019  23.548  1.00  0.00    -0.271 OA
ATOM     28  H4  UNL     1     -28.218   2.292  21.891  1.00  0.00     0.189 HD
BRANCH  25  29
HETATM   29  C14 UNL     1     -25.807  -0.826  25.086  1.00  0.00     0.277 C 
HETATM   30  C15 UNL     1     -25.959  -2.028  25.973  1.00  0.00     0.044 C 
HETATM   31  C16 UNL     1     -25.989  -1.489  27.380  1.00  0.00     0.030 C 
HETATM   32  C17 UNL     1     -25.516  -0.076  27.235  1.00  0.00     0.233 C 
HETATM   33  N7  UNL     1     -26.037   0.325  25.936  1.00  0.00    -0.062 N 
ATOM     34  H72 UNL     1     -25.641   1.194  25.579  1.00  0.00     0.278 HD
ATOM     35  H71 UNL     1     -27.006   0.644  25.955  1.00  0.00     0.278 HD
ENDBRANCH  25  29
ENDBRANCH   3  21
TORSDOF 6
ENDMDL
MODEL 4
REMARK VINA RESULT: -6.889723000      1.256      1.802
REMARK  6 active torsions:
REMARK  status: ('A' for Active; 'I' for Inactive)
REMARK    1  A    between atoms: C2_2  and  C5_5 
REMARK    2  A    between atoms: C5_5  and  N1_6 
REMARK    3  A    between atoms: C5_5  and  C6_10 
REMARK       I    between atoms: C6_10  and  N2_12 
REMARK    4  A    between atoms: C10_16  and  C11_17 
REMARK       I    between atoms: C11_17  and  N3_19 
REMARK    5  A    between atoms: N3_19  and  N4_21 
REMARK       I    between atoms: N4_21  and  C12_23 
REMARK       I    between atoms: N6_25  and  C13_27 
REMARK    6  A    between atoms: C13_27  and  C14_29 
ROOT
HETATM    1  C11 UNL     1     -31.121   2.660  23.644  1.00  0.00     0.259 C 
HETATM    2  O2  UNL     1     -30.511   3.273  24.567  1.00  0.00    -0.269 OA
HETATM    3  N3  UNL     1     -30.446   1.614  22.984  1.00  0.00    -0.266 N 
ATOM      4  H3  UNL     1     -30.914   1.104  22.236  1.00  0.00     0.190 HD
ENDROOT
BRANCH   1   5
HETATM    5  C10 UNL     1     -32.513   3.105  23.332  1.00  0.00     0.181 C 
HETATM    6  N2  UNL     1     -32.669   4.517  23.247  1.00  0.00    -0.337 N 
HETATM    7  C6  UNL     1     -33.107   5.488  24.163  1.00  0.00     0.252 C 
HETATM    8  C7  UNL     1     -32.209   4.825  21.850  1.00  0.00     0.127 C 
HETATM    9  O1  UNL     1     -33.052   6.693  23.733  1.00  0.00    -0.271 OA
HETATM   10  C8  UNL     1     -33.017   3.831  21.070  1.00  0.00     0.022 C 
HETATM   11  C9  UNL     1     -32.907   2.593  21.924  1.00  0.00     0.037 C 
BRANCH   7  12
HETATM   12  C5  UNL     1     -33.597   5.277  25.497  1.00  0.00     0.282 C 
BRANCH  12  13
HETATM   13  C2  UNL     1     -34.948   4.638  25.651  1.00  0.00    -0.014 C 
HETATM   14  C1  UNL     1     -35.740   4.478  24.404  1.00  0.00     0.017 C 
HETATM   15  C3  UNL     1     -34.676   3.158  26.110  1.00  0.00     0.017 C 
HETATM   16  C4  UNL     1     -35.783   5.194  26.752  1.00  0.00     0.017 C 
ENDBRANCH  12  13
BRANCH  12  17
HETATM   17  N1  UNL     1     -32.711   4.562  26.398  1.00  0.00    -0.066 N 
ATOM     18  H13 UNL     1     -33.190   4.155  27.202  1.00  0.00     0.275 HD
ATOM     19  H12 UNL     1     -32.356   3.688  26.011  1.00  0.00     0.275 HD
ATOM     20  H11 UNL     1     -31.976   5.221  26.653  1.00  0.00     0.275 HD
ENDBRANCH  12  17
ENDBRANCH   7  12
ENDBRANCH   1   5
BRANCH   3  21
HETATM   21  N4  UNL     1     -29.145   1.271  23.343  1.00  0.00    -0.271 N 
HETATM   22  C12 UNL     1     -28.817   0.274  24.315  1.00  0.00     0.209 C 
HETATM   23  N5  UNL     1     -29.453  -0.994  24.249  1.00  0.00    -0.062 NA
HETATM   24  N6  UNL     1     -27.962   0.491  25.245  1.00  0.00    -0.298 N 
HETATM   25  C13 UNL     1     -27.640  -0.493  26.199  1.00  0.00     0.255 C 
ATOM     26  H6  UNL     1     -27.502   1.400  25.295  1.00  0.00     0.171 HD
HETATM   27  O3  UNL     1     -28.117  -1.654  26.142  1.00  0.00    -0.271 OA
ATOM     28  H4  UNL     1     -28.378   1.762  22.885  1.00  0.00     0.189 HD
BRANCH  25  29
HETATM   29  C14 UNL     1     -26.695  -0.101  27.294  1.00  0.00     0.277 C 
HETATM   30  C15 UNL     1     -27.471   0.659  28.331  1.00  0.00     0.044 C 
HETATM   31  C16 UNL     1     -26.674   1.910  28.593  1.00  0.00     0.030 C 
HETATM   32  C17 UNL     1     -25.347   1.632  27.960  1.00  0.00     0.233 C 
HETATM   33  N7  UNL     1     -25.686   0.817  26.803  1.00  0.00    -0.062 N 
ATOM     34  H72 UNL     1     -24.886   0.362  26.364  1.00  0.00     0.278 HD
ATOM     35  H71 UNL     1     -25.973   1.353  25.983  1.00  0.00     0.278 HD
ENDBRANCH  25  29
ENDBRANCH   3  21
TORSDOF 6
ENDMDL
MODEL 5
REMARK VINA RESULT: -6.724831284      2.684      3.167
REMARK  6 active torsions:
REMARK  status: ('A' for Active; 'I' for Inactive)
REMARK    1  A    between atoms: C2_2  and  C5_5 
REMARK    2  A    between atoms: C5_5  and  N1_6 
REMARK    3  A    between atoms: C5_5  and  C6_10 
REMARK       I    between atoms: C6_10  and  N2_12 
REMARK    4  A    between atoms: C10_16  and  C11_17 
REMARK       I    between atoms: C11_17  and  N3_19 
REMARK    5  A    between atoms: N3_19  and  N4_21 
REMARK       I    between atoms: N4_21  and  C12_23 
REMARK       I    between atoms: N6_25  and  C13_27 
REMARK    6  A    between atoms: C13_27  and  C14_29 
ROOT
HETATM    1  C11 UNL     1     -30.971   2.639  24.271  1.00  0.00     0.259 C 
HETATM    2  O2  UNL     1     -30.614   3.270  25.308  1.00  0.00    -0.269 OA
HETATM    3  N3  UNL     1     -30.119   1.628  23.785  1.00  0.00    -0.266 N 
ATOM      4  H3  UNL     1     -30.382   1.104  22.950  1.00  0.00     0.190 HD
ENDROOT
BRANCH   1   5
HETATM    5  C10 UNL     1     -32.273   3.028  23.648  1.00  0.00     0.181 C 
HETATM    6  N2  UNL     1     -32.454   4.432  23.502  1.00  0.00    -0.337 N 
HETATM    7  C6  UNL     1     -33.117   5.397  24.279  1.00  0.00     0.252 C 
HETATM    8  C7  UNL     1     -31.704   4.741  22.237  1.00  0.00     0.127 C 
HETATM    9  O1  UNL     1     -33.009   6.599  23.848  1.00  0.00    -0.271 OA
HETATM   10  C8  UNL     1     -32.283   3.709  21.316  1.00  0.00     0.022 C 
HETATM   11  C9  UNL     1     -32.324   2.485  22.197  1.00  0.00     0.037 C 
BRANCH   7  12
HETATM   12  C5  UNL     1     -33.885   5.184  25.474  1.00  0.00     0.282 C 
BRANCH  12  13
HETATM   13  C2  UNL     1     -35.111   4.320  25.370  1.00  0.00    -0.014 C 
HETATM   14  C1  UNL     1     -34.962   2.916  25.830  1.00  0.00     0.017 C 
HETATM   15  C3  UNL     1     -36.156   4.932  26.376  1.00  0.00     0.017 C 
HETATM   16  C4  UNL     1     -35.814   4.387  24.058  1.00  0.00     0.017 C 
ENDBRANCH  12  13
BRANCH  12  17
HETATM   17  N1  UNL     1     -33.150   4.698  26.628  1.00  0.00    -0.066 N 
ATOM     18  H13 UNL     1     -32.210   4.370  26.404  1.00  0.00     0.275 HD
ATOM     19  H12 UNL     1     -32.872   5.436  27.274  1.00  0.00     0.275 HD
ATOM     20  H11 UNL     1     -33.739   3.984  27.056  1.00  0.00     0.275 HD
ENDBRANCH  12  17
ENDBRANCH   7  12
ENDBRANCH   1   5
BRANCH   3  21
HETATM   21  N4  UNL     1     -28.922   1.337  24.433  1.00  0.00    -0.271 N 
HETATM   22  C12 UNL     1     -28.298   0.049  24.427  1.00  0.00     0.209 C 
HETATM   23  N5  UNL     1     -28.148  -0.643  23.196  1.00  0.00    -0.062 NA
HETATM   24  N6  UNL     1     -27.868  -0.499  25.503  1.00  0.00    -0.298 N 
HETATM   25  C13 UNL     1     -27.253  -1.766  25.493  1.00  0.00     0.255 C 
ATOM     26  H6  UNL     1     -27.973  -0.005  26.389  1.00  0.00     0.171 HD
HETATM   27  O3  UNL     1     -27.028  -2.386  24.424  1.00  0.00    -0.271 OA
ATOM     28  H4  UNL     1     -28.460   2.088  24.944  1.00  0.00     0.189 HD
BRANCH  25  29
HETATM   29  C14 UNL     1     -26.870  -2.350  26.819  1.00  0.00     0.277 C 
HETATM   30  C15 UNL     1     -25.471  -2.883  26.709  1.00  0.00     0.044 C 
HETATM   31  C16 UNL     1     -25.529  -4.283  27.263  1.00  0.00     0.030 C 
HETATM   32  C17 UNL     1     -26.852  -4.342  27.959  1.00  0.00     0.233 C 
HETATM   33  N7  UNL     1     -27.705  -3.491  27.141  1.00  0.00    -0.062 N 
ATOM     34  H72 UNL     1     -28.594  -3.249  27.577  1.00  0.00     0.278 HD
ATOM     35  H71 UNL     1     -28.104  -3.959  26.327  1.00  0.00     0.278 HD
ENDBRANCH  25  29
ENDBRANCH   3  21
TORSDOF 6
ENDMDL
