MODEL 1
REMARK VINA RESULT: -6.783845467      0.000      0.000
REMARK  8 active torsions:
REMARK  status: ('A' for Active; 'I' for Inactive)
REMARK    1  A    between atoms: C2_2  and  C3_3 
REMARK    2  A    between atoms: C3_3  and  C4_4 
REMARK    3  A    between atoms: C4_4  and  C5_5 
REMARK    4  A    between atoms: C5_5  and  N1_6 
REMARK    5  A    between atoms: N1_6  and  C6_8 
REMARK    6  A    between atoms: C6_8  and  O1_9 
REMARK    7  A    between atoms: C6_8  and  C7_11 
REMARK    8  A    between atoms: C16_21  and  O3_22 
ROOT
HETATM    1  C7  UNL     1     -21.647 -32.141  -3.234  1.00  0.00     0.100 C 
HETATM    2  C8  UNL     1     -20.213 -32.112  -3.829  1.00  0.00     0.041 C 
HETATM    3  C9  UNL     1     -19.944 -33.512  -4.322  1.00  0.00     0.016 C 
HETATM    4  C10 UNL     1     -21.356 -34.055  -4.469  1.00  0.00     0.001 C 
HETATM    5  C11 UNL     1     -21.243 -35.541  -4.587  1.00  0.00     0.019 C 
HETATM    6  C12 UNL     1     -21.947 -33.483  -5.703  1.00  0.00     0.112 C 
HETATM    7  C13 UNL     1     -23.062 -34.271  -6.303  1.00  0.00     0.045 C 
HETATM    8  C14 UNL     1     -22.777 -34.221  -7.791  1.00  0.00     0.029 C 
HETATM    9  C15 UNL     1     -21.306 -34.012  -7.806  1.00  0.00     0.169 C 
HETATM   10  O2  UNL     1     -20.888 -33.468  -6.647  1.00  0.00    -0.375 OA
HETATM   11  C16 UNL     1     -22.383 -32.049  -5.566  1.00  0.00     0.250 C 
HETATM   12  N2  UNL     1     -22.538 -31.584  -4.251  1.00  0.00    -0.378 N 
ATOM     13  H2  UNL     1     -23.243 -30.886  -4.015  1.00  0.00     0.157 HD
HETATM   14  C17 UNL     1     -21.941 -33.570  -3.158  1.00  0.00    -0.005 C 
HETATM   15  C18 UNL     1     -23.392 -33.916  -2.969  1.00  0.00     0.019 C 
HETATM   16  C19 UNL     1     -21.182 -34.260  -2.055  1.00  0.00     0.019 C 
ENDROOT
BRANCH   1  17
HETATM   17  C6  UNL     1     -21.616 -31.263  -2.101  1.00  0.00     0.141 C 
BRANCH  17  18
HETATM   18  N1  UNL     1     -20.860 -31.158  -0.941  1.00  0.00    -0.372 N 
ATOM     19  H1  UNL     1     -19.872 -30.926  -1.048  1.00  0.00     0.161 HD
BRANCH  18  20
HETATM   20  C5  UNL     1     -21.359 -31.353   0.419  1.00  0.00     0.121 C 
BRANCH  20  21
HETATM   21  C4  UNL     1     -20.837 -32.556   1.115  1.00  0.00     0.020 C 
BRANCH  21  22
HETATM   22  C3  UNL     1     -21.947 -33.477   1.579  1.00  0.00     0.001 C 
BRANCH  22  23
HETATM   23  C2  UNL     1     -21.571 -34.933   1.542  1.00  0.00    -0.004 C 
HETATM   24  C1  UNL     1     -22.700 -35.823   1.987  1.00  0.00     0.005 C 
ENDBRANCH  22  23
ENDBRANCH  21  22
ENDBRANCH  20  21
ENDBRANCH  18  20
ENDBRANCH  17  18
BRANCH  17  25
HETATM   25  O1  UNL     1     -22.529 -30.330  -2.180  1.00  0.00    -0.348 OA
ATOM     26  H1  UNL     1     -23.070 -30.291  -1.399  1.00  0.00     0.219 HD
ENDBRANCH  17  25
ENDBRANCH   1  17
BRANCH  11  27
HETATM   27  O3  UNL     1     -23.634 -31.857  -6.214  1.00  0.00    -0.374 OA
ATOM     28  H3  UNL     1     -23.554 -32.054  -7.140  1.00  0.00     0.212 HD
ENDBRANCH  11  27
TORSDOF 8
ENDMDL
MODEL 2
REMARK VINA RESULT: -6.503862696      1.920      3.316
REMARK  8 active torsions:
REMARK  status: ('A' for Active; 'I' for Inactive)
REMARK    1  A    between atoms: C2_2  and  C3_3 
REMARK    2  A    between atoms: C3_3  and  C4_4 
REMARK    3  A    between atoms: C4_4  and  C5_5 
REMARK    4  A    between atoms: C5_5  and  N1_6 
REMARK    5  A    between atoms: N1_6  and  C6_8 
REMARK    6  A    between atoms: C6_8  and  O1_9 
REMARK    7  A    between atoms: C6_8  and  C7_11 
REMARK    8  A    between atoms: C16_21  and  O3_22 
ROOT
HETATM    1  C7  UNL     1     -21.676 -33.895  -3.698  1.00  0.00     0.100 C 
HETATM    2  C8  UNL     1     -23.162 -33.458  -3.795  1.00  0.00     0.041 C 
HETATM    3  C9  UNL     1     -23.138 -31.997  -4.169  1.00  0.00     0.016 C 
HETATM    4  C10 UNL     1     -21.746 -31.863  -4.765  1.00  0.00     0.001 C 
HETATM    5  C11 UNL     1     -21.439 -30.401  -4.835  1.00  0.00     0.019 C 
HETATM    6  C12 UNL     1     -21.766 -32.451  -6.126  1.00  0.00     0.112 C 
HETATM    7  C13 UNL     1     -20.708 -31.954  -7.053  1.00  0.00     0.045 C 
HETATM    8  C14 UNL     1     -21.440 -31.772  -8.368  1.00  0.00     0.029 C 
HETATM    9  C15 UNL     1     -22.834 -31.554  -7.905  1.00  0.00     0.169 C 
HETATM   10  O2  UNL     1     -23.017 -32.072  -6.675  1.00  0.00    -0.375 OA
HETATM   11  C16 UNL     1     -21.760 -33.956  -6.143  1.00  0.00     0.250 C 
HETATM   12  N2  UNL     1     -21.353 -34.576  -4.952  1.00  0.00    -0.378 N 
ATOM     13  H2  UNL     1     -20.852 -35.465  -4.960  1.00  0.00     0.157 HD
HETATM   14  C17 UNL     1     -20.958 -32.623  -3.716  1.00  0.00    -0.005 C 
HETATM   15  C18 UNL     1     -19.487 -32.721  -4.008  1.00  0.00     0.019 C 
HETATM   16  C19 UNL     1     -21.096 -31.861  -2.424  1.00  0.00     0.019 C 
ENDROOT
BRANCH   1  17
HETATM   17  C6  UNL     1     -21.616 -34.838  -2.619  1.00  0.00     0.141 C 
BRANCH  17  18
HETATM   18  N1  UNL     1     -22.394 -35.130  -1.507  1.00  0.00    -0.372 N 
ATOM     19  H1  UNL     1     -23.405 -35.036  -1.607  1.00  0.00     0.161 HD
BRANCH  18  20
HETATM   20  C5  UNL     1     -21.887 -35.562  -0.206  1.00  0.00     0.121 C 
BRANCH  20  21
HETATM   21  C4  UNL     1     -22.750 -35.215   0.952  1.00  0.00     0.020 C 
BRANCH  21  22
HETATM   22  C3  UNL     1     -22.111 -34.179   1.854  1.00  0.00     0.001 C 
BRANCH  22  23
HETATM   23  C2  UNL     1     -21.062 -33.351   1.165  1.00  0.00    -0.004 C 
HETATM   24  C1  UNL     1     -21.303 -31.875   1.330  1.00  0.00     0.005 C 
ENDBRANCH  22  23
ENDBRANCH  21  22
ENDBRANCH  20  21
ENDBRANCH  18  20
ENDBRANCH  17  18
BRANCH  17  25
HETATM   25  O1  UNL     1     -20.568 -35.614  -2.706  1.00  0.00    -0.348 OA
ATOM     26  H1  UNL     1     -20.674 -36.288  -3.368  1.00  0.00     0.219 HD
ENDBRANCH  17  25
ENDBRANCH   1  17
BRANCH  11  27
HETATM   27  O3  UNL     1     -20.888 -34.428  -7.163  1.00  0.00    -0.374 OA
ATOM     28  H3  UNL     1     -20.861 -33.806  -7.881  1.00  0.00     0.212 HD
ENDBRANCH  11  27
TORSDOF 8
ENDMDL
MODEL 3
REMARK VINA RESULT: -6.476547520      2.099      3.296
REMARK  8 active torsions:
REMARK  status: ('A' for Active; 'I' for Inactive)
REMARK    1  A    between atoms: C2_2  and  C3_3 
REMARK    2  A    between atoms: C3_3  and  C4_4 
REMARK    3  A    between atoms: C4_4  and  C5_5 
REMARK    4  A    between atoms: C5_5  and  N1_6 
REMARK    5  A    between atoms: N1_6  and  C6_8 
REMARK    6  A    between atoms: C6_8  and  O1_9 
REMARK    7  A    between atoms: C6_8  and  C7_11 
REMARK    8  A    between atoms: C16_21  and  O3_22 
ROOT
HETATM    1  C7  UNL     1     -22.409 -31.690  -5.562  1.00  0.00     0.100 C 
HETATM    2  C8  UNL     1     -22.038 -30.252  -6.013  1.00  0.00     0.041 C 
HETATM    3  C9  UNL     1     -20.854 -30.404  -6.936  1.00  0.00     0.016 C 
HETATM    4  C10 UNL     1     -20.984 -31.858  -7.356  1.00  0.00     0.001 C 
HETATM    5  C11 UNL     1     -19.679 -32.256  -7.968  1.00  0.00     0.019 C 
HETATM    6  C12 UNL     1     -22.074 -31.958  -8.357  1.00  0.00     0.112 C 
HETATM    7  C13 UNL     1     -22.004 -33.140  -9.263  1.00  0.00     0.045 C 
HETATM    8  C14 UNL     1     -22.366 -32.571 -10.622  1.00  0.00     0.029 C 
HETATM    9  C15 UNL     1     -21.968 -31.149 -10.465  1.00  0.00     0.169 C 
HETATM   10  O2  UNL     1     -21.940 -30.800  -9.164  1.00  0.00    -0.375 OA
HETATM   11  C16 UNL     1     -23.457 -31.878  -7.767  1.00  0.00     0.250 C 
HETATM   12  N2  UNL     1     -23.543 -32.112  -6.385  1.00  0.00    -0.378 N 
ATOM     13  H2  UNL     1     -24.362 -32.558  -5.973  1.00  0.00     0.157 HD
HETATM   14  C17 UNL     1     -21.259 -32.479  -6.000  1.00  0.00    -0.005 C 
HETATM   15  C18 UNL     1     -21.479 -33.965  -6.040  1.00  0.00     0.019 C 
HETATM   16  C19 UNL     1     -20.038 -32.241  -5.151  1.00  0.00     0.019 C 
ENDROOT
BRANCH   1  17
HETATM   17  C6  UNL     1     -22.834 -31.574  -4.198  1.00  0.00     0.141 C 
BRANCH  17  18
HETATM   18  N1  UNL     1     -22.729 -30.614  -3.200  1.00  0.00    -0.372 N 
ATOM     19  H1  UNL     1     -23.549 -30.033  -3.024  1.00  0.00     0.161 HD
BRANCH  18  20
HETATM   20  C5  UNL     1     -21.544 -30.366  -2.380  1.00  0.00     0.121 C 
BRANCH  20  21
HETATM   21  C4  UNL     1     -21.160 -31.481  -1.477  1.00  0.00     0.020 C 
BRANCH  21  22
HETATM   22  C3  UNL     1     -20.764 -30.991  -0.099  1.00  0.00     0.001 C 
BRANCH  22  23
HETATM   23  C2  UNL     1     -20.751 -32.077   0.942  1.00  0.00    -0.004 C 
HETATM   24  C1  UNL     1     -21.495 -33.304   0.492  1.00  0.00     0.005 C 
ENDBRANCH  22  23
ENDBRANCH  21  22
ENDBRANCH  20  21
ENDBRANCH  18  20
ENDBRANCH  17  18
BRANCH  17  25
HETATM   25  O1  UNL     1     -23.478 -32.638  -3.794  1.00  0.00    -0.348 OA
ATOM     26  H1  UNL     1     -23.006 -33.107  -3.116  1.00  0.00     0.219 HD
ENDBRANCH  17  25
ENDBRANCH   1  17
BRANCH  11  27
HETATM   27  O3  UNL     1     -24.308 -32.830  -8.392  1.00  0.00    -0.374 OA
ATOM     28  H3  UNL     1     -24.777 -32.423  -9.111  1.00  0.00     0.212 HD
ENDBRANCH  11  27
TORSDOF 8
ENDMDL
MODEL 4
REMARK VINA RESULT: -6.426766102      1.712      2.773
REMARK  8 active torsions:
REMARK  status: ('A' for Active; 'I' for Inactive)
REMARK    1  A    between atoms: C2_2  and  C3_3 
REMARK    2  A    between atoms: C3_3  and  C4_4 
REMARK    3  A    between atoms: C4_4  and  C5_5 
REMARK    4  A    between atoms: C5_5  and  N1_6 
REMARK    5  A    between atoms: N1_6  and  C6_8 
REMARK    6  A    between atoms: C6_8  and  O1_9 
REMARK    7  A    between atoms: C6_8  and  C7_11 
REMARK    8  A    between atoms: C16_21  and  O3_22 
ROOT
HETATM    1  C7  UNL     1     -21.677 -32.295  -3.002  1.00  0.00     0.100 C 
HETATM    2  C8  UNL     1     -23.067 -32.084  -3.659  1.00  0.00     0.041 C 
HETATM    3  C9  UNL     1     -22.952 -32.647  -5.054  1.00  0.00     0.016 C 
HETATM    4  C10 UNL     1     -21.760 -33.578  -4.904  1.00  0.00     0.001 C 
HETATM    5  C11 UNL     1     -21.295 -33.919  -6.284  1.00  0.00     0.019 C 
HETATM    6  C12 UNL     1     -22.212 -34.800  -4.196  1.00  0.00     0.112 C 
HETATM    7  C13 UNL     1     -21.379 -36.016  -4.424  1.00  0.00     0.045 C 
HETATM    8  C14 UNL     1     -22.400 -37.125  -4.590  1.00  0.00     0.029 C 
HETATM    9  C15 UNL     1     -23.584 -36.368  -5.074  1.00  0.00     0.169 C 
HETATM   10  O2  UNL     1     -23.503 -35.072  -4.715  1.00  0.00    -0.375 OA
HETATM   11  C16 UNL     1     -22.406 -34.614  -2.715  1.00  0.00     0.250 C 
HETATM   12  N2  UNL     1     -21.785 -33.485  -2.158  1.00  0.00    -0.378 N 
ATOM     13  H2  UNL     1     -21.424 -33.495  -1.204  1.00  0.00     0.157 HD
HETATM   14  C17 UNL     1     -20.830 -32.661  -4.135  1.00  0.00    -0.005 C 
HETATM   15  C18 UNL     1     -19.513 -33.288  -3.773  1.00  0.00     0.019 C 
HETATM   16  C19 UNL     1     -20.525 -31.490  -5.031  1.00  0.00     0.019 C 
ENDROOT
BRANCH   1  17
HETATM   17  C6  UNL     1     -21.460 -31.146  -2.172  1.00  0.00     0.141 C 
BRANCH  17  18
HETATM   18  N1  UNL     1     -20.686 -30.854  -1.057  1.00  0.00    -0.372 N 
ATOM     19  H1  UNL     1     -19.768 -30.440  -1.221  1.00  0.00     0.161 HD
BRANCH  18  20
HETATM   20  C5  UNL     1     -21.075 -31.090   0.333  1.00  0.00     0.121 C 
BRANCH  20  21
HETATM   21  C4  UNL     1     -20.627 -32.388   0.900  1.00  0.00     0.020 C 
BRANCH  21  22
HETATM   22  C3  UNL     1     -21.777 -33.191   1.472  1.00  0.00     0.001 C 
BRANCH  22  23
HETATM   23  C2  UNL     1     -21.565 -34.678   1.397  1.00  0.00    -0.004 C 
HETATM   24  C1  UNL     1     -22.686 -35.446   2.042  1.00  0.00     0.005 C 
ENDBRANCH  22  23
ENDBRANCH  21  22
ENDBRANCH  20  21
ENDBRANCH  18  20
ENDBRANCH  17  18
BRANCH  17  25
HETATM   25  O1  UNL     1     -22.167 -30.119  -2.563  1.00  0.00    -0.348 OA
ATOM     26  H1  UNL     1     -22.181 -29.424  -1.914  1.00  0.00     0.219 HD
ENDBRANCH  17  25
ENDBRANCH   1  17
BRANCH  11  27
HETATM   27  O3  UNL     1     -21.901 -35.742  -2.012  1.00  0.00    -0.374 OA
ATOM     28  H3  UNL     1     -21.586 -36.394  -2.627  1.00  0.00     0.212 HD
ENDBRANCH  11  27
TORSDOF 8
ENDMDL
MODEL 5
REMARK VINA RESULT: -6.385141737      1.715      2.865
REMARK  8 active torsions:
REMARK  status: ('A' for Active; 'I' for Inactive)
REMARK    1  A    between atoms: C2_2  and  C3_3 
REMARK    2  A    between atoms: C3_3  and  C4_4 
REMARK    3  A    between atoms: C4_4  and  C5_5 
REMARK    4  A    between atoms: C5_5  and  N1_6 
REMARK    5  A    between atoms: N1_6  and  C6_8 
REMARK    6  A    between atoms: C6_8  and  O1_9 
REMARK    7  A    between atoms: C6_8  and  C7_11 
REMARK    8  A    between atoms: C16_21  and  O3_22 
ROOT
HETATM    1  C7  UNL     1     -22.415 -31.801  -4.532  1.00  0.00     0.100 C 
HETATM    2  C8  UNL     1     -23.357 -31.698  -5.761  1.00  0.00     0.041 C 
HETATM    3  C9  UNL     1     -22.617 -32.351  -6.902  1.00  0.00     0.016 C 
HETATM    4  C10 UNL     1     -21.615 -33.216  -6.155  1.00  0.00     0.001 C 
HETATM    5  C11 UNL     1     -20.572 -33.630  -7.143  1.00  0.00     0.019 C 
HETATM    6  C12 UNL     1     -22.329 -34.405  -5.629  1.00  0.00     0.112 C 
HETATM    7  C13 UNL     1     -21.473 -35.595  -5.356  1.00  0.00     0.045 C 
HETATM    8  C14 UNL     1     -22.298 -36.757  -5.875  1.00  0.00     0.029 C 
HETATM    9  C15 UNL     1     -23.140 -36.089  -6.900  1.00  0.00     0.169 C 
HETATM   10  O2  UNL     1     -23.241 -34.769  -6.652  1.00  0.00    -0.375 OA
HETATM   11  C16 UNL     1     -23.175 -34.125  -4.417  1.00  0.00     0.250 C 
HETATM   12  N2  UNL     1     -22.883 -32.934  -3.733  1.00  0.00    -0.378 N 
ATOM     13  H2  UNL     1     -22.994 -32.862  -2.722  1.00  0.00     0.157 HD
HETATM   14  C17 UNL     1     -21.143 -32.207  -5.126  1.00  0.00    -0.005 C 
HETATM   15  C18 UNL     1     -20.127 -32.748  -4.159  1.00  0.00     0.019 C 
HETATM   16  C19 UNL     1     -20.474 -31.089  -5.881  1.00  0.00     0.019 C 
ENDROOT
BRANCH   1  17
HETATM   17  C6  UNL     1     -22.607 -30.589  -3.790  1.00  0.00     0.141 C 
BRANCH  17  18
HETATM   18  N1  UNL     1     -22.343 -30.161  -2.496  1.00  0.00    -0.372 N 
ATOM     19  H1  UNL     1     -23.048 -29.575  -2.046  1.00  0.00     0.161 HD
BRANCH  18  20
HETATM   20  C5  UNL     1     -21.143 -30.478  -1.724  1.00  0.00     0.121 C 
BRANCH  20  21
HETATM   21  C4  UNL     1     -21.260 -31.666  -0.840  1.00  0.00     0.020 C 
BRANCH  21  22
HETATM   22  C3  UNL     1     -20.864 -31.358   0.589  1.00  0.00     0.001 C 
BRANCH  22  23
HETATM   23  C2  UNL     1     -21.562 -32.224   1.603  1.00  0.00    -0.004 C 
HETATM   24  C1  UNL     1     -21.742 -33.636   1.117  1.00  0.00     0.005 C 
ENDBRANCH  22  23
ENDBRANCH  21  22
ENDBRANCH  20  21
ENDBRANCH  18  20
ENDBRANCH  17  18
BRANCH  17  25
HETATM   25  O1  UNL     1     -23.171 -29.658  -4.513  1.00  0.00    -0.348 OA
ATOM     26  H1  UNL     1     -23.184 -29.879  -5.437  1.00  0.00     0.219 HD
ENDBRANCH  17  25
ENDBRANCH   1  17
BRANCH  11  27
HETATM   27  O3  UNL     1     -23.033 -35.178  -3.472  1.00  0.00    -0.374 OA
ATOM     28  H3  UNL     1     -23.775 -35.184  -2.879  1.00  0.00     0.212 HD
ENDBRANCH  11  27
TORSDOF 8
ENDMDL
