MODEL 1
REMARK VINA RESULT: -7.344347790      0.000      0.000
REMARK  6 active torsions:
REMARK  status: ('A' for Active; 'I' for Inactive)
REMARK    1  A    between atoms: N2_11  and  C8_12 
REMARK    2  A    between atoms: C8_12  and  C9_13 
REMARK    3  A    between atoms: C9_13  and  O1_14 
REMARK    4  A    between atoms: C9_13  and  C10_16 
REMARK    5  A    between atoms: C10_16  and  N3_17 
REMARK    6  A    between atoms: N3_17  and  C11_19 
ROOT
HETATM    1  C9  UNL     1     -22.251 -26.613  -4.649  1.00  0.00     0.163 C 
ENDROOT
BRANCH   1   2
HETATM    2  C8  UNL     1     -21.104 -25.852  -5.145  1.00  0.00     0.306 C 
BRANCH   2   3
HETATM    3  N2  UNL     1     -21.043 -24.441  -4.716  1.00  0.00     0.101 N 
HETATM    4  C2  UNL     1     -20.105 -23.817  -5.654  1.00  0.00     0.176 C 
HETATM    5  C1  UNL     1     -18.883 -24.623  -5.924  1.00  0.00     0.050 C 
HETATM    6  C3  UNL     1     -20.871 -23.746  -6.988  1.00  0.00     0.050 C 
HETATM    7  C4  UNL     1     -19.783 -22.407  -5.296  1.00  0.00     0.273 C 
HETATM    8  N1  UNL     1     -18.572 -22.255  -4.545  1.00  0.00    -0.073 N 
HETATM    9  C5  UNL     1     -18.608 -22.818  -3.243  1.00  0.00     0.234 C 
ATOM     10  H12 UNL     1     -17.781 -22.626  -5.070  1.00  0.00     0.277 HD
ATOM     11  H11 UNL     1     -18.306 -21.271  -4.498  1.00  0.00     0.277 HD
HETATM   12  C6  UNL     1     -20.004 -23.220  -2.806  1.00  0.00     0.057 C 
HETATM   13  C7  UNL     1     -20.404 -24.519  -3.400  1.00  0.00     0.275 C 
ENDBRANCH   2   3
ENDBRANCH   1   2
BRANCH   1  14
HETATM   14  O1  UNL     1     -23.041 -26.118  -3.657  1.00  0.00    -0.392 OA
ATOM     15  H1  UNL     1     -23.272 -26.652  -2.906  1.00  0.00     0.210 HD
ENDBRANCH   1  14
BRANCH   1  16
HETATM   16  C10 UNL     1     -21.735 -27.969  -4.074  1.00  0.00     0.148 C 
BRANCH  16  17
HETATM   17  N3  UNL     1     -22.411 -28.980  -4.800  1.00  0.00    -0.410 N 
ATOM     18  H3  UNL     1     -23.223 -28.748  -5.371  1.00  0.00     0.154 HD
BRANCH  17  19
HETATM   19  C11 UNL     1     -21.947 -30.316  -4.725  1.00  0.00     0.026 C 
HETATM   20  C12 UNL     1     -21.582 -30.739  -3.315  1.00  0.00     0.035 C 
HETATM   21  C13 UNL     1     -21.193 -32.176  -3.270  1.00  0.00    -0.012 C 
HETATM   22  C14 UNL     1     -19.995 -32.377  -4.179  1.00  0.00     0.009 C 
HETATM   23  C18 UNL     1     -22.308 -33.067  -3.782  1.00  0.00     0.009 C 
HETATM   24  C15 UNL     1     -20.353 -32.002  -5.583  1.00  0.00    -0.012 C 
HETATM   25  C16 UNL     1     -21.474 -32.879  -6.092  1.00  0.00     0.009 C 
HETATM   26  C20 UNL     1     -20.772 -30.570  -5.660  1.00  0.00     0.035 C 
HETATM   27  C17 UNL     1     -22.661 -32.654  -5.198  1.00  0.00    -0.012 C 
HETATM   28  C19 UNL     1     -23.075 -31.215  -5.199  1.00  0.00     0.035 C 
ENDBRANCH  17  19
ENDBRANCH  16  17
ENDBRANCH   1  16
TORSDOF 6
ENDMDL
MODEL 2
REMARK VINA RESULT: -7.331823619      5.065      8.705
REMARK  6 active torsions:
REMARK  status: ('A' for Active; 'I' for Inactive)
REMARK    1  A    between atoms: N2_11  and  C8_12 
REMARK    2  A    between atoms: C8_12  and  C9_13 
REMARK    3  A    between atoms: C9_13  and  O1_14 
REMARK    4  A    between atoms: C9_13  and  C10_16 
REMARK    5  A    between atoms: C10_16  and  N3_17 
REMARK    6  A    between atoms: N3_17  and  C11_19 
ROOT
HETATM    1  C9  UNL     1     -20.885 -31.676  -0.152  1.00  0.00     0.163 C 
ENDROOT
BRANCH   1   2
HETATM    2  C8  UNL     1     -21.730 -32.839  -0.423  1.00  0.00     0.306 C 
BRANCH   2   3
HETATM    3  N2  UNL     1     -21.272 -34.111   0.170  1.00  0.00     0.101 N 
HETATM    4  C2  UNL     1     -21.806 -35.141  -0.726  1.00  0.00     0.176 C 
HETATM    5  C1  UNL     1     -23.216 -34.917  -1.145  1.00  0.00     0.050 C 
HETATM    6  C3  UNL     1     -20.959 -35.027  -2.007  1.00  0.00     0.050 C 
HETATM    7  C4  UNL     1     -21.582 -36.523  -0.214  1.00  0.00     0.273 C 
HETATM    8  N1  UNL     1     -22.698 -37.073   0.496  1.00  0.00    -0.073 N 
HETATM    9  C5  UNL     1     -23.000 -36.422   1.720  1.00  0.00     0.234 C 
ATOM     10  H12 UNL     1     -23.522 -37.098  -0.105  1.00  0.00     0.277 HD
ATOM     11  H11 UNL     1     -22.562 -38.072   0.650  1.00  0.00     0.277 HD
HETATM   12  C6  UNL     1     -21.917 -35.459   2.166  1.00  0.00     0.057 C 
HETATM   13  C7  UNL     1     -22.005 -34.170   1.437  1.00  0.00     0.275 C 
ENDBRANCH   2   3
ENDBRANCH   1   2
BRANCH   1  14
HETATM   14  O1  UNL     1     -21.114 -30.885   0.933  1.00  0.00    -0.392 OA
ATOM     15  H1  UNL     1     -20.398 -30.437   1.368  1.00  0.00     0.210 HD
ENDBRANCH   1  14
BRANCH   1  16
HETATM   16  C10 UNL     1     -20.990 -30.693  -1.359  1.00  0.00     0.148 C 
BRANCH  16  17
HETATM   17  N3  UNL     1     -22.024 -31.200  -2.183  1.00  0.00    -0.410 N 
ATOM     18  H3  UNL     1     -22.946 -31.391  -1.793  1.00  0.00     0.154 HD
BRANCH  17  19
HETATM   19  C11 UNL     1     -21.765 -31.440  -3.554  1.00  0.00     0.026 C 
HETATM   20  C12 UNL     1     -20.371 -31.983  -3.808  1.00  0.00     0.035 C 
HETATM   21  C13 UNL     1     -20.177 -32.310  -5.249  1.00  0.00    -0.012 C 
HETATM   22  C14 UNL     1     -20.377 -31.043  -6.059  1.00  0.00     0.009 C 
HETATM   23  C18 UNL     1     -21.199 -33.324  -5.727  1.00  0.00     0.009 C 
HETATM   24  C15 UNL     1     -21.763 -30.518  -5.850  1.00  0.00    -0.012 C 
HETATM   25  C16 UNL     1     -22.785 -31.532  -6.313  1.00  0.00     0.009 C 
HETATM   26  C20 UNL     1     -22.000 -30.202  -4.409  1.00  0.00     0.035 C 
HETATM   27  C17 UNL     1     -22.591 -32.773  -5.488  1.00  0.00    -0.012 C 
HETATM   28  C19 UNL     1     -22.760 -32.485  -4.028  1.00  0.00     0.035 C 
ENDBRANCH  17  19
ENDBRANCH  16  17
ENDBRANCH   1  16
TORSDOF 6
ENDMDL
MODEL 3
REMARK VINA RESULT: -7.180981772      4.945      9.007
REMARK  6 active torsions:
REMARK  status: ('A' for Active; 'I' for Inactive)
REMARK    1  A    between atoms: N2_11  and  C8_12 
REMARK    2  A    between atoms: C8_12  and  C9_13 
REMARK    3  A    between atoms: C9_13  and  O1_14 
REMARK    4  A    between atoms: C9_13  and  C10_16 
REMARK    5  A    between atoms: C10_16  and  N3_17 
REMARK    6  A    between atoms: N3_17  and  C11_19 
ROOT
HETATM    1  C9  UNL     1     -20.810 -31.535   0.479  1.00  0.00     0.163 C 
ENDROOT
BRANCH   1   2
HETATM    2  C8  UNL     1     -20.693 -32.984   0.648  1.00  0.00     0.306 C 
BRANCH   2   3
HETATM    3  N2  UNL     1     -21.928 -33.755   0.401  1.00  0.00     0.101 N 
HETATM    4  C2  UNL     1     -22.044 -34.636   1.568  1.00  0.00     0.176 C 
HETATM    5  C1  UNL     1     -20.767 -35.281   1.976  1.00  0.00     0.050 C 
HETATM    6  C3  UNL     1     -22.440 -33.703   2.727  1.00  0.00     0.050 C 
HETATM    7  C4  UNL     1     -23.158 -35.618   1.440  1.00  0.00     0.273 C 
HETATM    8  N1  UNL     1     -22.751 -36.905   0.960  1.00  0.00    -0.073 N 
HETATM    9  C5  UNL     1     -22.282 -36.917  -0.379  1.00  0.00     0.234 C 
ATOM     10  H12 UNL     1     -22.054 -37.312   1.583  1.00  0.00     0.277 HD
ATOM     11  H11 UNL     1     -23.506 -37.581   1.076  1.00  0.00     0.277 HD
HETATM   12  C6  UNL     1     -22.564 -35.625  -1.121  1.00  0.00     0.057 C 
HETATM   13  C7  UNL     1     -21.583 -34.571  -0.766  1.00  0.00     0.275 C 
ENDBRANCH   2   3
ENDBRANCH   1   2
BRANCH   1  14
HETATM   14  O1  UNL     1     -21.140 -30.735   1.530  1.00  0.00    -0.392 OA
ATOM     15  H1  UNL     1     -20.467 -30.310   2.048  1.00  0.00     0.210 HD
ENDBRANCH   1  14
BRANCH   1  16
HETATM   16  C10 UNL     1     -21.924 -31.247  -0.575  1.00  0.00     0.148 C 
BRANCH  16  17
HETATM   17  N3  UNL     1     -21.271 -30.637  -1.672  1.00  0.00    -0.410 N 
ATOM     18  H3  UNL     1     -20.678 -29.819  -1.529  1.00  0.00     0.154 HD
BRANCH  17  19
HETATM   19  C11 UNL     1     -21.448 -31.172  -2.971  1.00  0.00     0.026 C 
HETATM   20  C12 UNL     1     -21.443 -30.111  -4.055  1.00  0.00     0.035 C 
HETATM   21  C13 UNL     1     -21.536 -30.727  -5.409  1.00  0.00    -0.012 C 
HETATM   22  C14 UNL     1     -22.828 -31.518  -5.488  1.00  0.00     0.009 C 
HETATM   23  C18 UNL     1     -20.393 -31.694  -5.655  1.00  0.00     0.009 C 
HETATM   24  C15 UNL     1     -22.830 -32.596  -4.449  1.00  0.00    -0.012 C 
HETATM   25  C16 UNL     1     -21.684 -33.554  -4.684  1.00  0.00     0.009 C 
HETATM   26  C20 UNL     1     -22.714 -32.013  -3.079  1.00  0.00     0.035 C 
HETATM   27  C17 UNL     1     -20.410 -32.763  -4.580  1.00  0.00    -0.012 C 
HETATM   28  C19 UNL     1     -20.285 -32.110  -3.238  1.00  0.00     0.035 C 
ENDBRANCH  17  19
ENDBRANCH  16  17
ENDBRANCH   1  16
TORSDOF 6
ENDMDL
MODEL 4
REMARK VINA RESULT: -6.986304159      1.560      2.553
REMARK  6 active torsions:
REMARK  status: ('A' for Active; 'I' for Inactive)
REMARK    1  A    between atoms: N2_11  and  C8_12 
REMARK    2  A    between atoms: C8_12  and  C9_13 
REMARK    3  A    between atoms: C9_13  and  O1_14 
REMARK    4  A    between atoms: C9_13  and  C10_16 
REMARK    5  A    between atoms: C10_16  and  N3_17 
REMARK    6  A    between atoms: N3_17  and  C11_19 
ROOT
HETATM    1  C9  UNL     1     -22.104 -26.463  -4.598  1.00  0.00     0.163 C 
ENDROOT
BRANCH   1   2
HETATM    2  C8  UNL     1     -20.922 -25.753  -5.086  1.00  0.00     0.306 C 
BRANCH   2   3
HETATM    3  N2  UNL     1     -21.043 -25.167  -6.436  1.00  0.00     0.101 N 
HETATM    4  C2  UNL     1     -19.724 -25.377  -7.042  1.00  0.00     0.176 C 
HETATM    5  C1  UNL     1     -18.581 -25.073  -6.139  1.00  0.00     0.050 C 
HETATM    6  C3  UNL     1     -19.655 -26.889  -7.321  1.00  0.00     0.050 C 
HETATM    7  C4  UNL     1     -19.587 -24.713  -8.369  1.00  0.00     0.273 C 
HETATM    8  N1  UNL     1     -18.960 -23.426  -8.319  1.00  0.00    -0.073 N 
HETATM    9  C5  UNL     1     -19.708 -22.428  -7.641  1.00  0.00     0.234 C 
ATOM     10  H12 UNL     1     -18.026 -23.502  -7.916  1.00  0.00     0.277 HD
ATOM     11  H11 UNL     1     -18.721 -23.111  -9.259  1.00  0.00     0.277 HD
HETATM   12  C6  UNL     1     -21.136 -22.849  -7.351  1.00  0.00     0.057 C 
HETATM   13  C7  UNL     1     -21.209 -23.736  -6.165  1.00  0.00     0.275 C 
ENDBRANCH   2   3
ENDBRANCH   1   2
BRANCH   1  14
HETATM   14  O1  UNL     1     -22.806 -25.997  -3.529  1.00  0.00    -0.392 OA
ATOM     15  H1  UNL     1     -23.742 -26.143  -3.461  1.00  0.00     0.210 HD
ENDBRANCH   1  14
BRANCH   1  16
HETATM   16  C10 UNL     1     -21.675 -27.900  -4.167  1.00  0.00     0.148 C 
BRANCH  16  17
HETATM   17  N3  UNL     1     -22.162 -28.769  -5.173  1.00  0.00    -0.410 N 
ATOM     18  H3  UNL     1     -22.728 -28.404  -5.938  1.00  0.00     0.154 HD
BRANCH  17  19
HETATM   19  C11 UNL     1     -21.854 -30.149  -5.107  1.00  0.00     0.026 C 
HETATM   20  C12 UNL     1     -20.612 -30.518  -5.896  1.00  0.00     0.035 C 
HETATM   21  C13 UNL     1     -20.273 -31.958  -5.720  1.00  0.00    -0.012 C 
HETATM   22  C14 UNL     1     -21.443 -32.789  -6.210  1.00  0.00     0.009 C 
HETATM   23  C18 UNL     1     -20.051 -32.299  -4.259  1.00  0.00     0.009 C 
HETATM   24  C15 UNL     1     -22.668 -32.466  -5.412  1.00  0.00    -0.012 C 
HETATM   25  C16 UNL     1     -22.446 -32.791  -3.953  1.00  0.00     0.009 C 
HETATM   26  C20 UNL     1     -23.023 -31.021  -5.547  1.00  0.00     0.035 C 
HETATM   27  C17 UNL     1     -21.300 -31.945  -3.474  1.00  0.00    -0.012 C 
HETATM   28  C19 UNL     1     -21.592 -30.487  -3.650  1.00  0.00     0.035 C 
ENDBRANCH  17  19
ENDBRANCH  16  17
ENDBRANCH   1  16
TORSDOF 6
ENDMDL
MODEL 5
REMARK VINA RESULT: -6.939023550      1.051      1.897
REMARK  6 active torsions:
REMARK  status: ('A' for Active; 'I' for Inactive)
REMARK    1  A    between atoms: N2_11  and  C8_12 
REMARK    2  A    between atoms: C8_12  and  C9_13 
REMARK    3  A    between atoms: C9_13  and  O1_14 
REMARK    4  A    between atoms: C9_13  and  C10_16 
REMARK    5  A    between atoms: C10_16  and  N3_17 
REMARK    6  A    between atoms: N3_17  and  C11_19 
ROOT
HETATM    1  C9  UNL     1     -22.184 -27.129  -4.873  1.00  0.00     0.163 C 
ENDROOT
BRANCH   1   2
HETATM    2  C8  UNL     1     -21.809 -25.774  -4.468  1.00  0.00     0.306 C 
BRANCH   2   3
HETATM    3  N2  UNL     1     -20.374 -25.448  -4.587  1.00  0.00     0.101 N 
HETATM    4  C2  UNL     1     -20.289 -24.039  -4.191  1.00  0.00     0.176 C 
HETATM    5  C1  UNL     1     -21.354 -23.176  -4.769  1.00  0.00     0.050 C 
HETATM    6  C3  UNL     1     -20.522 -24.043  -2.670  1.00  0.00     0.050 C 
HETATM    7  C4  UNL     1     -18.928 -23.465  -4.391  1.00  0.00     0.273 C 
HETATM    8  N1  UNL     1     -18.766 -22.755  -5.625  1.00  0.00    -0.073 N 
HETATM    9  C5  UNL     1     -18.846 -23.563  -6.788  1.00  0.00     0.234 C 
ATOM     10  H12 UNL     1     -19.435 -21.986  -5.681  1.00  0.00     0.277 HD
ATOM     11  H11 UNL     1     -17.893 -22.229  -5.619  1.00  0.00     0.277 HD
HETATM   12  C6  UNL     1     -18.808 -25.049  -6.486  1.00  0.00     0.057 C 
HETATM   13  C7  UNL     1     -20.130 -25.543  -6.029  1.00  0.00     0.275 C 
ENDBRANCH   2   3
ENDBRANCH   1   2
BRANCH   1  14
HETATM   14  O1  UNL     1     -23.487 -27.525  -4.863  1.00  0.00    -0.392 OA
ATOM     15  H1  UNL     1     -23.861 -27.985  -5.605  1.00  0.00     0.210 HD
ENDBRANCH   1  14
BRANCH   1  16
HETATM   16  C10 UNL     1     -21.477 -28.144  -3.923  1.00  0.00     0.148 C 
BRANCH  16  17
HETATM   17  N3  UNL     1     -22.378 -29.224  -3.768  1.00  0.00    -0.410 N 
ATOM     18  H3  UNL     1     -23.356 -29.050  -3.539  1.00  0.00     0.154 HD
BRANCH  17  19
HETATM   19  C11 UNL     1     -21.909 -30.550  -3.936  1.00  0.00     0.026 C 
HETATM   20  C12 UNL     1     -21.266 -31.114  -2.684  1.00  0.00     0.035 C 
HETATM   21  C13 UNL     1     -20.875 -32.539  -2.877  1.00  0.00    -0.012 C 
HETATM   22  C14 UNL     1     -19.887 -32.614  -4.025  1.00  0.00     0.009 C 
HETATM   23  C18 UNL     1     -22.072 -33.394  -3.247  1.00  0.00     0.009 C 
HETATM   24  C15 UNL     1     -20.523 -32.098  -5.278  1.00  0.00    -0.012 C 
HETATM   25  C16 UNL     1     -21.724 -32.940  -5.643  1.00  0.00     0.009 C 
HETATM   26  C20 UNL     1     -20.949 -30.676  -5.111  1.00  0.00     0.035 C 
HETATM   27  C17 UNL     1     -22.705 -32.839  -4.508  1.00  0.00    -0.012 C 
HETATM   28  C19 UNL     1     -23.111 -31.418  -4.268  1.00  0.00     0.035 C 
ENDBRANCH  17  19
ENDBRANCH  16  17
ENDBRANCH   1  16
TORSDOF 6
ENDMDL
