MODEL 1
REMARK VINA RESULT: -6.283614164      0.000      0.000
REMARK  7 active torsions:
REMARK  status: ('A' for Active; 'I' for Inactive)
REMARK    1  A    between atoms: C2_2  and  C3_3 
REMARK    2  A    between atoms: C9_9  and  O1_10 
REMARK    3  A    between atoms: C10_12  and  O2_13 
REMARK    4  A    between atoms: C11_15  and  C12_16 
REMARK    5  A    between atoms: C15_20  and  C17_22 
REMARK    6  A    between atoms: C17_22  and  C18_23 
REMARK    7  A    between atoms: C18_23  and  C19_24 
ROOT
HETATM    1  C3  UNL     1     -21.292 -31.094  -6.067  1.00  0.00    -0.019 C 
HETATM    2  C4  UNL     1     -21.392 -29.692  -5.473  1.00  0.00     0.020 C 
HETATM    3  C5  UNL     1     -22.086 -31.063  -7.379  1.00  0.00     0.023 C 
HETATM    4  C6  UNL     1     -23.165 -32.125  -7.226  1.00  0.00     0.023 C 
HETATM    5  C7  UNL     1     -23.528 -32.774  -8.498  1.00  0.00    -0.054 C 
HETATM    6  C8  UNL     1     -24.718 -32.667  -9.071  1.00  0.00     0.017 C 
HETATM    7  C9  UNL     1     -22.443 -33.576  -9.107  1.00  0.00     0.176 C 
HETATM    8  C10 UNL     1     -21.769 -34.493  -8.170  1.00  0.00     0.162 C 
HETATM    9  C11 UNL     1     -21.792 -34.195  -6.713  1.00  0.00     0.092 C 
HETATM   10  C14 UNL     1     -22.641 -33.096  -6.210  1.00  0.00     0.017 C 
HETATM   11  C15 UNL     1     -21.960 -32.130  -5.243  1.00  0.00    -0.028 C 
HETATM   12  C16 UNL     1     -23.114 -31.424  -4.506  1.00  0.00     0.016 C 
ENDROOT
BRANCH  11  13
HETATM   13  C17 UNL     1     -21.145 -32.806  -4.223  1.00  0.00     0.021 C 
BRANCH  13  14
HETATM   14  C18 UNL     1     -20.973 -32.075  -2.906  1.00  0.00     0.114 C 
BRANCH  14  15
HETATM   15  C19 UNL     1     -21.236 -33.116  -1.841  1.00  0.00     0.172 C 
HETATM   16  O4  UNL     1     -21.252 -32.711  -0.646  1.00  0.00    -0.648 OA
HETATM   17  O5  UNL     1     -21.455 -34.442  -2.100  1.00  0.00    -0.648 OA
ENDBRANCH  14  15
ENDBRANCH  13  14
ENDBRANCH  11  13
BRANCH   1  18
HETATM   18  C2  UNL     1     -19.888 -31.335  -6.395  1.00  0.00    -0.027 C 
HETATM   19  C1  UNL     1     -19.551 -31.375  -7.687  1.00  0.00     0.008 C 
ENDBRANCH   1  18
BRANCH   9  20
HETATM   20  C12 UNL     1     -22.147 -35.447  -6.001  1.00  0.00     0.130 C 
HETATM   21  C13 UNL     1     -23.177 -36.351  -6.562  1.00  0.00     0.091 C 
HETATM   22  O3  UNL     1     -21.610 -35.744  -4.969  1.00  0.00    -0.298 OA
ENDBRANCH   9  20
BRANCH   8  23
HETATM   23  O2  UNL     1     -20.440 -34.639  -8.655  1.00  0.00    -0.392 OA
ATOM     24  H2  UNL     1     -20.089 -35.411  -8.226  1.00  0.00     0.210 HD
ENDBRANCH   8  23
BRANCH   7  25
HETATM   25  O1  UNL     1     -22.970 -34.227 -10.223  1.00  0.00    -0.389 OA
ATOM     26  H1  UNL     1     -22.880 -35.162 -10.082  1.00  0.00     0.210 HD
ENDBRANCH   7  25
TORSDOF 7
ENDMDL
MODEL 2
REMARK VINA RESULT: -5.748463753      2.080      4.143
REMARK  7 active torsions:
REMARK  status: ('A' for Active; 'I' for Inactive)
REMARK    1  A    between atoms: C2_2  and  C3_3 
REMARK    2  A    between atoms: C9_9  and  O1_10 
REMARK    3  A    between atoms: C10_12  and  O2_13 
REMARK    4  A    between atoms: C11_15  and  C12_16 
REMARK    5  A    between atoms: C15_20  and  C17_22 
REMARK    6  A    between atoms: C17_22  and  C18_23 
REMARK    7  A    between atoms: C18_23  and  C19_24 
ROOT
HETATM    1  C3  UNL     1     -21.543 -34.195  -4.183  1.00  0.00    -0.019 C 
HETATM    2  C4  UNL     1     -20.776 -35.281  -3.433  1.00  0.00     0.020 C 
HETATM    3  C5  UNL     1     -21.206 -34.378  -5.668  1.00  0.00     0.023 C 
HETATM    4  C6  UNL     1     -20.590 -33.059  -6.110  1.00  0.00     0.023 C 
HETATM    5  C7  UNL     1     -20.868 -32.728  -7.518  1.00  0.00    -0.054 C 
HETATM    6  C8  UNL     1     -19.940 -32.656  -8.461  1.00  0.00     0.017 C 
HETATM    7  C9  UNL     1     -22.296 -32.473  -7.815  1.00  0.00     0.176 C 
HETATM    8  C10 UNL     1     -22.956 -31.553  -6.871  1.00  0.00     0.162 C 
HETATM    9  C11 UNL     1     -22.409 -31.401  -5.496  1.00  0.00     0.092 C 
HETATM   10  C14 UNL     1     -21.114 -32.025  -5.158  1.00  0.00     0.017 C 
HETATM   11  C15 UNL     1     -21.089 -32.822  -3.856  1.00  0.00    -0.028 C 
HETATM   12  C16 UNL     1     -19.598 -32.933  -3.484  1.00  0.00     0.016 C 
ENDROOT
BRANCH  11  13
HETATM   13  C17 UNL     1     -21.763 -32.139  -2.742  1.00  0.00     0.021 C 
BRANCH  13  14
HETATM   14  C18 UNL     1     -20.913 -31.188  -1.922  1.00  0.00     0.114 C 
BRANCH  14  15
HETATM   15  C19 UNL     1     -21.039 -31.677  -0.497  1.00  0.00     0.172 C 
HETATM   16  O4  UNL     1     -21.362 -32.887  -0.340  1.00  0.00    -0.648 OA
HETATM   17  O5  UNL     1     -20.825 -30.894   0.606  1.00  0.00    -0.648 OA
ENDBRANCH  14  15
ENDBRANCH  13  14
ENDBRANCH  11  13
BRANCH   1  18
HETATM   18  C2  UNL     1     -22.970 -34.463  -4.008  1.00  0.00    -0.027 C 
HETATM   19  C1  UNL     1     -23.437 -35.637  -4.442  1.00  0.00     0.008 C 
ENDBRANCH   1  18
BRANCH   9  20
HETATM   20  C12 UNL     1     -22.342 -29.950  -5.194  1.00  0.00     0.130 C 
HETATM   21  C13 UNL     1     -21.165 -29.159  -5.620  1.00  0.00     0.091 C 
HETATM   22  O3  UNL     1     -23.233 -29.400  -4.607  1.00  0.00    -0.298 OA
ENDBRANCH   9  20
BRANCH   8  23
HETATM   23  O2  UNL     1     -24.328 -31.932  -6.851  1.00  0.00    -0.392 OA
ATOM     24  H2  UNL     1     -24.745 -31.368  -6.210  1.00  0.00     0.210 HD
ENDBRANCH   8  23
BRANCH   7  25
HETATM   25  O1  UNL     1     -22.386 -32.050  -9.142  1.00  0.00    -0.389 OA
ATOM     26  H1  UNL     1     -23.186 -32.410  -9.507  1.00  0.00     0.210 HD
ENDBRANCH   7  25
TORSDOF 7
ENDMDL
MODEL 3
REMARK VINA RESULT: -5.710612804      2.157      4.395
REMARK  7 active torsions:
REMARK  status: ('A' for Active; 'I' for Inactive)
REMARK    1  A    between atoms: C2_2  and  C3_3 
REMARK    2  A    between atoms: C9_9  and  O1_10 
REMARK    3  A    between atoms: C10_12  and  O2_13 
REMARK    4  A    between atoms: C11_15  and  C12_16 
REMARK    5  A    between atoms: C15_20  and  C17_22 
REMARK    6  A    between atoms: C17_22  and  C18_23 
REMARK    7  A    between atoms: C18_23  and  C19_24 
ROOT
HETATM    1  C3  UNL     1     -21.355 -33.563  -3.516  1.00  0.00    -0.019 C 
HETATM    2  C4  UNL     1     -21.718 -34.219  -2.186  1.00  0.00     0.020 C 
HETATM    3  C5  UNL     1     -21.508 -32.052  -3.308  1.00  0.00     0.023 C 
HETATM    4  C6  UNL     1     -22.535 -31.602  -4.336  1.00  0.00     0.023 C 
HETATM    5  C7  UNL     1     -22.309 -30.230  -4.824  1.00  0.00    -0.054 C 
HETATM    6  C8  UNL     1     -23.138 -29.220  -4.607  1.00  0.00     0.017 C 
HETATM    7  C9  UNL     1     -21.058 -30.054  -5.595  1.00  0.00     0.176 C 
HETATM    8  C10 UNL     1     -20.841 -31.074  -6.637  1.00  0.00     0.162 C 
HETATM    9  C11 UNL     1     -21.491 -32.406  -6.503  1.00  0.00     0.092 C 
HETATM   10  C14 UNL     1     -22.487 -32.622  -5.434  1.00  0.00     0.017 C 
HETATM   11  C15 UNL     1     -22.299 -33.895  -4.611  1.00  0.00    -0.028 C 
HETATM   12  C16 UNL     1     -23.666 -34.144  -3.946  1.00  0.00     0.016 C 
ENDROOT
BRANCH  11  13
HETATM   13  C17 UNL     1     -21.993 -35.078  -5.428  1.00  0.00     0.021 C 
BRANCH  13  14
HETATM   14  C18 UNL     1     -23.098 -36.108  -5.561  1.00  0.00     0.114 C 
BRANCH  14  15
HETATM   15  C19 UNL     1     -22.459 -37.422  -5.174  1.00  0.00     0.172 C 
HETATM   16  O4  UNL     1     -22.359 -37.661  -3.939  1.00  0.00    -0.648 OA
HETATM   17  O5  UNL     1     -21.996 -38.346  -6.073  1.00  0.00    -0.648 OA
ENDBRANCH  14  15
ENDBRANCH  13  14
ENDBRANCH  11  13
BRANCH   1  18
HETATM   18  C2  UNL     1     -19.943 -33.843  -3.775  1.00  0.00    -0.027 C 
HETATM   19  C1  UNL     1     -19.099 -32.807  -3.783  1.00  0.00     0.008 C 
ENDBRANCH   1  18
BRANCH   9  20
HETATM   20  C12 UNL     1     -22.102 -32.744  -7.812  1.00  0.00     0.130 C 
HETATM   21  C13 UNL     1     -23.576 -32.749  -7.961  1.00  0.00     0.091 C 
HETATM   22  O3  UNL     1     -21.419 -33.016  -8.761  1.00  0.00    -0.298 OA
ENDBRANCH   9  20
BRANCH   8  23
HETATM   23  O2  UNL     1     -19.430 -31.191  -6.781  1.00  0.00    -0.392 OA
ATOM     24  H2  UNL     1     -19.290 -31.850  -7.452  1.00  0.00     0.210 HD
ENDBRANCH   8  23
BRANCH   7  25
HETATM   25  O1  UNL     1     -21.046 -28.752  -6.096  1.00  0.00    -0.389 OA
ATOM     26  H1  UNL     1     -20.352 -28.696  -6.742  1.00  0.00     0.210 HD
ENDBRANCH   7  25
TORSDOF 7
ENDMDL
MODEL 4
REMARK VINA RESULT: -5.670315130      3.074      5.208
REMARK  7 active torsions:
REMARK  status: ('A' for Active; 'I' for Inactive)
REMARK    1  A    between atoms: C2_2  and  C3_3 
REMARK    2  A    between atoms: C9_9  and  O1_10 
REMARK    3  A    between atoms: C10_12  and  O2_13 
REMARK    4  A    between atoms: C11_15  and  C12_16 
REMARK    5  A    between atoms: C15_20  and  C17_22 
REMARK    6  A    between atoms: C17_22  and  C18_23 
REMARK    7  A    between atoms: C18_23  and  C19_24 
ROOT
HETATM    1  C3  UNL     1     -21.982 -34.741  -4.189  1.00  0.00    -0.019 C 
HETATM    2  C4  UNL     1     -21.660 -36.157  -4.659  1.00  0.00     0.020 C 
HETATM    3  C5  UNL     1     -21.688 -33.815  -5.375  1.00  0.00     0.023 C 
HETATM    4  C6  UNL     1     -20.641 -32.833  -4.874  1.00  0.00     0.023 C 
HETATM    5  C7  UNL     1     -20.749 -31.500  -5.492  1.00  0.00    -0.054 C 
HETATM    6  C8  UNL     1     -19.828 -30.974  -6.287  1.00  0.00     0.017 C 
HETATM    7  C9  UNL     1     -21.991 -30.768  -5.156  1.00  0.00     0.176 C 
HETATM    8  C10 UNL     1     -22.316 -30.758  -3.718  1.00  0.00     0.162 C 
HETATM    9  C11 UNL     1     -21.789 -31.838  -2.842  1.00  0.00     0.092 C 
HETATM   10  C14 UNL     1     -20.800 -32.792  -3.383  1.00  0.00     0.017 C 
HETATM   11  C15 UNL     1     -21.090 -34.265  -3.104  1.00  0.00    -0.028 C 
HETATM   12  C16 UNL     1     -19.741 -34.982  -3.305  1.00  0.00     0.016 C 
ENDROOT
BRANCH  11  13
HETATM   13  C17 UNL     1     -21.515 -34.524  -1.721  1.00  0.00     0.021 C 
BRANCH  13  14
HETATM   14  C18 UNL     1     -21.416 -35.959  -1.243  1.00  0.00     0.114 C 
BRANCH  14  15
HETATM   15  C19 UNL     1     -22.298 -36.028  -0.018  1.00  0.00     0.172 C 
HETATM   16  O4  UNL     1     -22.775 -34.936   0.398  1.00  0.00    -0.648 OA
HETATM   17  O5  UNL     1     -22.602 -37.186   0.647  1.00  0.00    -0.648 OA
ENDBRANCH  14  15
ENDBRANCH  13  14
ENDBRANCH  11  13
BRANCH   1  18
HETATM   18  C2  UNL     1     -23.417 -34.683  -3.915  1.00  0.00    -0.027 C 
HETATM   19  C1  UNL     1     -24.107 -35.825  -3.985  1.00  0.00     0.008 C 
ENDBRANCH   1  18
BRANCH   9  20
HETATM   20  C12 UNL     1     -21.231 -31.200  -1.624  1.00  0.00     0.130 C 
HETATM   21  C13 UNL     1     -21.187 -31.952  -0.349  1.00  0.00     0.091 C 
HETATM   22  O3  UNL     1     -20.812 -30.075  -1.653  1.00  0.00    -0.298 OA
ENDBRANCH   9  20
BRANCH   8  23
HETATM   23  O2  UNL     1     -23.734 -30.664  -3.640  1.00  0.00    -0.392 OA
ATOM     24  H2  UNL     1     -23.937 -29.737  -3.678  1.00  0.00     0.210 HD
ENDBRANCH   8  23
BRANCH   7  25
HETATM   25  O1  UNL     1     -21.892 -29.487  -5.702  1.00  0.00    -0.389 OA
ATOM     26  H1  UNL     1     -22.706 -29.031  -5.520  1.00  0.00     0.210 HD
ENDBRANCH   7  25
TORSDOF 7
ENDMDL
MODEL 5
REMARK VINA RESULT: -5.666640995      5.139      7.552
REMARK  7 active torsions:
REMARK  status: ('A' for Active; 'I' for Inactive)
REMARK    1  A    between atoms: C2_2  and  C3_3 
REMARK    2  A    between atoms: C9_9  and  O1_10 
REMARK    3  A    between atoms: C10_12  and  O2_13 
REMARK    4  A    between atoms: C11_15  and  C12_16 
REMARK    5  A    between atoms: C15_20  and  C17_22 
REMARK    6  A    between atoms: C17_22  and  C18_23 
REMARK    7  A    between atoms: C18_23  and  C19_24 
ROOT
HETATM    1  C3  UNL     1     -23.126 -38.553  -6.511  1.00  0.00    -0.019 C 
HETATM    2  C4  UNL     1     -23.578 -37.100  -6.635  1.00  0.00     0.020 C 
HETATM    3  C5  UNL     1     -23.713 -39.291  -7.720  1.00  0.00     0.023 C 
HETATM    4  C6  UNL     1     -24.578 -40.399  -7.138  1.00  0.00     0.023 C 
HETATM    5  C7  UNL     1     -24.623 -41.607  -7.980  1.00  0.00    -0.054 C 
HETATM    6  C8  UNL     1     -25.716 -42.049  -8.584  1.00  0.00     0.017 C 
HETATM    7  C9  UNL     1     -23.328 -42.313  -8.106  1.00  0.00     0.176 C 
HETATM    8  C10 UNL     1     -22.632 -42.535  -6.826  1.00  0.00     0.162 C 
HETATM    9  C11 UNL     1     -22.920 -41.641  -5.673  1.00  0.00     0.092 C 
HETATM   10  C14 UNL     1     -24.028 -40.669  -5.768  1.00  0.00     0.017 C 
HETATM   11  C15 UNL     1     -23.692 -39.245  -5.329  1.00  0.00    -0.028 C 
HETATM   12  C16 UNL     1     -25.055 -38.583  -5.048  1.00  0.00     0.016 C 
ENDROOT
BRANCH  11  13
HETATM   13  C17 UNL     1     -22.918 -39.189  -4.081  1.00  0.00     0.021 C 
BRANCH  13  14
HETATM   14  C18 UNL     1     -23.580 -38.490  -2.909  1.00  0.00     0.114 C 
BRANCH  14  15
HETATM   15  C19 UNL     1     -22.728 -37.269  -2.648  1.00  0.00     0.172 C 
HETATM   16  O4  UNL     1     -22.716 -36.830  -1.464  1.00  0.00    -0.648 OA
HETATM   17  O5  UNL     1     -21.985 -36.630  -3.604  1.00  0.00    -0.648 OA
ENDBRANCH  14  15
ENDBRANCH  13  14
ENDBRANCH  11  13
BRANCH   1  18
HETATM   18  C2  UNL     1     -21.669 -38.573  -6.634  1.00  0.00    -0.027 C 
HETATM   19  C1  UNL     1     -21.149 -39.102  -7.745  1.00  0.00     0.008 C 
ENDBRANCH   1  18
BRANCH   9  20
HETATM   20  C12 UNL     1     -23.127 -42.496  -4.478  1.00  0.00     0.130 C 
HETATM   21  C13 UNL     1     -24.131 -43.584  -4.511  1.00  0.00     0.091 C 
HETATM   22  O3  UNL     1     -22.489 -42.321  -3.476  1.00  0.00    -0.298 OA
ENDBRANCH   9  20
BRANCH   8  23
HETATM   23  O2  UNL     1     -21.243 -42.560  -7.136  1.00  0.00    -0.392 OA
ATOM     24  H2  UNL     1     -20.915 -41.692  -6.932  1.00  0.00     0.210 HD
ENDBRANCH   8  23
BRANCH   7  25
HETATM   25  O1  UNL     1     -23.553 -43.493  -8.816  1.00  0.00    -0.389 OA
ATOM     26  H1  UNL     1     -22.718 -43.935  -8.917  1.00  0.00     0.210 HD
ENDBRANCH   7  25
TORSDOF 7
ENDMDL
