MODEL 1
REMARK VINA RESULT: -8.625912589      0.000      0.000
REMARK  6 active torsions:
REMARK  status: ('A' for Active; 'I' for Inactive)
REMARK    1  A    between atoms: C2_2  and  O1_3 
REMARK    2  A    between atoms: O1_3  and  C3_4 
REMARK    3  A    between atoms: C3_4  and  C4_6 
REMARK    4  A    between atoms: C7_11  and  C8_12 
REMARK    5  A    between atoms: C8_12  and  C9_13 
REMARK    6  A    between atoms: C12_18  and  O3_19 
ROOT
HETATM    1  C9  UNL     1     -21.366 -32.631  -4.257  1.00  0.00     0.031 C 
HETATM    2  C10 UNL     1     -20.852 -33.682  -5.008  1.00  0.00     0.101 C 
HETATM    3  N2  UNL     1     -21.312 -34.266  -6.126  1.00  0.00    -0.361 N 
ATOM      4  H2  UNL     1     -20.966 -35.208  -6.309  1.00  0.00     0.165 HD
HETATM    5  C11 UNL     1     -22.173 -33.768  -7.040  1.00  0.00     0.093 A 
HETATM    6  C12 UNL     1     -22.660 -33.936  -8.323  1.00  0.00     0.099 A 
HETATM    7  C14 UNL     1     -23.461 -32.862  -8.133  1.00  0.00     0.071 A 
HETATM    8  C15 UNL     1     -23.038 -32.611  -6.836  1.00  0.00     0.067 A 
HETATM    9  N3  UNL     1     -23.170 -31.822  -5.759  1.00  0.00    -0.321 N 
ATOM     10  H3  UNL     1     -23.856 -31.071  -5.832  1.00  0.00     0.169 HD
HETATM   11  C16 UNL     1     -22.490 -31.908  -4.575  1.00  0.00     0.254 C 
HETATM   12  O4  UNL     1     -23.013 -31.203  -3.677  1.00  0.00    -0.268 OA
ENDROOT
BRANCH   1  13
HETATM   13  C8  UNL     1     -20.664 -32.239  -3.016  1.00  0.00     0.103 C 
BRANCH  13  14
HETATM   14  C7  UNL     1     -21.122 -32.961  -1.806  1.00  0.00     0.021 A 
HETATM   15  N1  UNL     1     -21.538 -34.235  -1.741  1.00  0.00    -0.362 N 
HETATM   16  C5  UNL     1     -21.898 -34.572  -0.486  1.00  0.00     0.022 A 
ATOM     17  H1  UNL     1     -21.577 -34.868  -2.539  1.00  0.00     0.165 HD
HETATM   18  C4  UNL     1     -21.714 -33.475   0.326  1.00  0.00     0.069 A 
HETATM   19  C6  UNL     1     -22.415 -35.889   0.012  1.00  0.00     0.069 C 
HETATM   20  C17 UNL     1     -21.231 -32.480  -0.515  1.00  0.00    -0.021 A 
HETATM   21  C18 UNL     1     -20.901 -31.129  -0.033  1.00  0.00     0.051 C 
BRANCH  18  22
HETATM   22  C3  UNL     1     -21.969 -33.352   1.774  1.00  0.00     0.295 C 
HETATM   23  O2  UNL     1     -22.152 -34.368   2.458  1.00  0.00    -0.259 OA
BRANCH  22  24
HETATM   24  O1  UNL     1     -22.010 -32.111   2.388  1.00  0.00    -0.318 OA
BRANCH  24  25
HETATM   25  C2  UNL     1     -22.408 -31.961   3.753  1.00  0.00     0.174 C 
HETATM   26  C1  UNL     1     -21.690 -30.806   4.401  1.00  0.00     0.034 C 
ENDBRANCH  24  25
ENDBRANCH  22  24
ENDBRANCH  18  22
ENDBRANCH  13  14
ENDBRANCH   1  13
BRANCH   6  27
HETATM   27  O3  UNL     1     -22.362 -34.865  -9.298  1.00  0.00    -0.353 OA
HETATM   28  C13 UNL     1     -21.994 -34.520 -10.616  1.00  0.00     0.210 C 
ENDBRANCH   6  27
TORSDOF 6
ENDMDL
MODEL 2
REMARK VINA RESULT: -8.412995544      5.815      7.843
REMARK  6 active torsions:
REMARK  status: ('A' for Active; 'I' for Inactive)
REMARK    1  A    between atoms: C2_2  and  O1_3 
REMARK    2  A    between atoms: O1_3  and  C3_4 
REMARK    3  A    between atoms: C3_4  and  C4_6 
REMARK    4  A    between atoms: C7_11  and  C8_12 
REMARK    5  A    between atoms: C8_12  and  C9_13 
REMARK    6  A    between atoms: C12_18  and  O3_19 
ROOT
HETATM    1  C9  UNL     1     -21.599 -26.608  -5.030  1.00  0.00     0.031 C 
HETATM    2  C10 UNL     1     -20.592 -26.386  -5.962  1.00  0.00     0.101 C 
HETATM    3  N2  UNL     1     -19.739 -25.358  -6.102  1.00  0.00    -0.361 N 
ATOM      4  H2  UNL     1     -19.324 -25.249  -7.027  1.00  0.00     0.165 HD
HETATM    5  C11 UNL     1     -19.360 -24.450  -5.176  1.00  0.00     0.093 A 
HETATM    6  C12 UNL     1     -18.416 -23.484  -4.881  1.00  0.00     0.099 A 
HETATM    7  C14 UNL     1     -19.054 -23.254  -3.709  1.00  0.00     0.071 A 
HETATM    8  C15 UNL     1     -20.047 -24.201  -3.914  1.00  0.00     0.067 A 
HETATM    9  N3  UNL     1     -21.147 -24.780  -3.410  1.00  0.00    -0.321 N 
ATOM     10  H3  UNL     1     -21.466 -24.433  -2.506  1.00  0.00     0.169 HD
HETATM   11  C16 UNL     1     -21.891 -25.783  -3.970  1.00  0.00     0.254 C 
HETATM   12  O4  UNL     1     -22.997 -25.930  -3.393  1.00  0.00    -0.268 OA
ENDROOT
BRANCH   1  13
HETATM   13  C8  UNL     1     -22.434 -27.820  -5.166  1.00  0.00     0.103 C 
BRANCH  13  14
HETATM   14  C7  UNL     1     -21.991 -28.961  -4.331  1.00  0.00     0.021 A 
HETATM   15  N1  UNL     1     -21.808 -28.959  -3.003  1.00  0.00    -0.362 N 
HETATM   16  C5  UNL     1     -21.386 -30.161  -2.561  1.00  0.00     0.022 A 
ATOM     17  H1  UNL     1     -21.967 -28.150  -2.402  1.00  0.00     0.165 HD
HETATM   18  C4  UNL     1     -21.283 -31.007  -3.643  1.00  0.00     0.069 A 
HETATM   19  C6  UNL     1     -21.066 -30.577  -1.156  1.00  0.00     0.069 C 
HETATM   20  C17 UNL     1     -21.663 -30.240  -4.738  1.00  0.00    -0.021 A 
HETATM   21  C18 UNL     1     -21.691 -30.778  -6.108  1.00  0.00     0.051 C 
BRANCH  18  22
HETATM   22  C3  UNL     1     -20.860 -32.420  -3.666  1.00  0.00     0.295 C 
HETATM   23  O2  UNL     1     -19.714 -32.716  -4.031  1.00  0.00    -0.259 OA
BRANCH  22  24
HETATM   24  O1  UNL     1     -21.727 -33.431  -3.287  1.00  0.00    -0.318 OA
BRANCH  24  25
HETATM   25  C2  UNL     1     -21.295 -34.526  -2.477  1.00  0.00     0.174 C 
HETATM   26  C1  UNL     1     -21.652 -34.302  -1.030  1.00  0.00     0.034 C 
ENDBRANCH  24  25
ENDBRANCH  22  24
ENDBRANCH  18  22
ENDBRANCH  13  14
ENDBRANCH   1  13
BRANCH   6  27
HETATM   27  O3  UNL     1     -17.318 -23.035  -5.585  1.00  0.00    -0.353 OA
HETATM   28  C13 UNL     1     -17.398 -22.465  -6.872  1.00  0.00     0.210 C 
ENDBRANCH   6  27
TORSDOF 6
ENDMDL
MODEL 3
REMARK VINA RESULT: -8.358390705      2.114      7.956
REMARK  6 active torsions:
REMARK  status: ('A' for Active; 'I' for Inactive)
REMARK    1  A    between atoms: C2_2  and  O1_3 
REMARK    2  A    between atoms: O1_3  and  C3_4 
REMARK    3  A    between atoms: C3_4  and  C4_6 
REMARK    4  A    between atoms: C7_11  and  C8_12 
REMARK    5  A    between atoms: C8_12  and  C9_13 
REMARK    6  A    between atoms: C12_18  and  O3_19 
ROOT
HETATM    1  C9  UNL     1     -21.260 -32.491  -1.019  1.00  0.00     0.031 C 
HETATM    2  C10 UNL     1     -21.550 -33.796  -1.399  1.00  0.00     0.101 C 
HETATM    3  N2  UNL     1     -21.755 -34.898  -0.659  1.00  0.00    -0.361 N 
ATOM      4  H2  UNL     1     -21.624 -35.787  -1.141  1.00  0.00     0.165 HD
HETATM    5  C11 UNL     1     -22.113 -34.983   0.642  1.00  0.00     0.093 A 
HETATM    6  C12 UNL     1     -22.611 -35.835   1.610  1.00  0.00     0.099 A 
HETATM    7  C14 UNL     1     -22.542 -34.820   2.503  1.00  0.00     0.071 A 
HETATM    8  C15 UNL     1     -22.037 -33.890   1.606  1.00  0.00     0.067 A 
HETATM    9  N3  UNL     1     -21.621 -32.626   1.435  1.00  0.00    -0.321 N 
ATOM     10  H3  UNL     1     -21.637 -32.030   2.262  1.00  0.00     0.169 HD
HETATM   11  C16 UNL     1     -21.176 -32.045   0.278  1.00  0.00     0.254 C 
HETATM   12  O4  UNL     1     -20.616 -30.941   0.489  1.00  0.00    -0.268 OA
ENDROOT
BRANCH   1  13
HETATM   13  C8  UNL     1     -21.018 -31.485  -2.075  1.00  0.00     0.103 C 
BRANCH  13  14
HETATM   14  C7  UNL     1     -21.298 -31.967  -3.448  1.00  0.00     0.021 A 
HETATM   15  N1  UNL     1     -21.110 -33.209  -3.916  1.00  0.00    -0.362 N 
HETATM   16  C5  UNL     1     -21.454 -33.304  -5.216  1.00  0.00     0.022 A 
ATOM     17  H1  UNL     1     -20.750 -33.984  -3.359  1.00  0.00     0.165 HD
HETATM   18  C4  UNL     1     -21.895 -32.069  -5.638  1.00  0.00     0.069 A 
HETATM   19  C6  UNL     1     -21.397 -34.507  -6.109  1.00  0.00     0.069 C 
HETATM   20  C17 UNL     1     -21.789 -31.248  -4.521  1.00  0.00    -0.021 A 
HETATM   21  C18 UNL     1     -22.164 -29.825  -4.548  1.00  0.00     0.051 C 
BRANCH  18  22
HETATM   22  C3  UNL     1     -22.375 -31.673  -6.975  1.00  0.00     0.295 C 
HETATM   23  O2  UNL     1     -21.673 -30.949  -7.694  1.00  0.00    -0.259 OA
BRANCH  22  24
HETATM   24  O1  UNL     1     -23.607 -32.096  -7.445  1.00  0.00    -0.318 OA
BRANCH  24  25
HETATM   25  C2  UNL     1     -23.721 -33.100  -8.457  1.00  0.00     0.174 C 
HETATM   26  C1  UNL     1     -23.894 -32.477  -9.818  1.00  0.00     0.034 C 
ENDBRANCH  24  25
ENDBRANCH  22  24
ENDBRANCH  18  22
ENDBRANCH  13  14
ENDBRANCH   1  13
BRANCH   6  27
HETATM   27  O3  UNL     1     -22.988 -37.160   1.553  1.00  0.00    -0.353 OA
HETATM   28  C13 UNL     1     -22.636 -38.025   0.495  1.00  0.00     0.210 C 
ENDBRANCH   6  27
TORSDOF 6
ENDMDL
MODEL 4
REMARK VINA RESULT: -8.287478557      2.569      3.687
REMARK  6 active torsions:
REMARK  status: ('A' for Active; 'I' for Inactive)
REMARK    1  A    between atoms: C2_2  and  O1_3 
REMARK    2  A    between atoms: O1_3  and  C3_4 
REMARK    3  A    between atoms: C3_4  and  C4_6 
REMARK    4  A    between atoms: C7_11  and  C8_12 
REMARK    5  A    between atoms: C8_12  and  C9_13 
REMARK    6  A    between atoms: C12_18  and  O3_19 
ROOT
HETATM    1  C9  UNL     1     -22.368 -36.668  -2.574  1.00  0.00     0.031 C 
HETATM    2  C10 UNL     1     -21.733 -35.799  -3.453  1.00  0.00     0.101 C 
HETATM    3  N2  UNL     1     -21.654 -35.813  -4.794  1.00  0.00    -0.361 N 
ATOM      4  H2  UNL     1     -20.880 -35.287  -5.198  1.00  0.00     0.165 HD
HETATM    5  C11 UNL     1     -22.468 -36.434  -5.677  1.00  0.00     0.093 A 
HETATM    6  C12 UNL     1     -22.835 -36.490  -7.008  1.00  0.00     0.099 A 
HETATM    7  C14 UNL     1     -23.717 -37.469  -6.698  1.00  0.00     0.071 A 
HETATM    8  C15 UNL     1     -23.418 -37.490  -5.344  1.00  0.00     0.067 A 
HETATM    9  N3  UNL     1     -23.688 -38.054  -4.157  1.00  0.00    -0.321 N 
ATOM     10  H3  UNL     1     -24.386 -38.797  -4.158  1.00  0.00     0.169 HD
HETATM   11  C16 UNL     1     -23.133 -37.748  -2.943  1.00  0.00     0.254 C 
HETATM   12  O4  UNL     1     -23.392 -38.615  -2.073  1.00  0.00    -0.268 OA
ENDROOT
BRANCH   1  13
HETATM   13  C8  UNL     1     -22.225 -36.433  -1.121  1.00  0.00     0.103 C 
BRANCH  13  14
HETATM   14  C7  UNL     1     -21.906 -35.031  -0.761  1.00  0.00     0.021 A 
HETATM   15  N1  UNL     1     -21.675 -34.018  -1.609  1.00  0.00    -0.362 N 
HETATM   16  C5  UNL     1     -21.401 -32.875  -0.949  1.00  0.00     0.022 A 
ATOM     17  H1  UNL     1     -21.703 -34.102  -2.625  1.00  0.00     0.165 HD
HETATM   18  C4  UNL     1     -21.452 -33.134   0.403  1.00  0.00     0.069 A 
HETATM   19  C6  UNL     1     -21.087 -31.524  -1.518  1.00  0.00     0.069 C 
HETATM   20  C17 UNL     1     -21.767 -34.484   0.500  1.00  0.00    -0.021 A 
HETATM   21  C18 UNL     1     -21.918 -35.169   1.794  1.00  0.00     0.051 C 
BRANCH  18  22
HETATM   22  C3  UNL     1     -21.222 -32.205   1.525  1.00  0.00     0.295 C 
HETATM   23  O2  UNL     1     -20.077 -31.799   1.767  1.00  0.00    -0.259 OA
BRANCH  22  24
HETATM   24  O1  UNL     1     -22.270 -31.773   2.321  1.00  0.00    -0.318 OA
BRANCH  24  25
HETATM   25  C2  UNL     1     -22.302 -32.031   3.726  1.00  0.00     0.174 C 
HETATM   26  C1  UNL     1     -21.902 -30.807   4.509  1.00  0.00     0.034 C 
ENDBRANCH  24  25
ENDBRANCH  22  24
ENDBRANCH  18  22
ENDBRANCH  13  14
ENDBRANCH   1  13
BRANCH   6  27
HETATM   27  O3  UNL     1     -22.400 -35.777  -8.106  1.00  0.00    -0.353 OA
HETATM   28  C13 UNL     1     -22.510 -34.375  -8.217  1.00  0.00     0.210 C 
ENDBRANCH   6  27
TORSDOF 6
ENDMDL
MODEL 5
REMARK VINA RESULT: -8.255971154      3.958      7.329
REMARK  6 active torsions:
REMARK  status: ('A' for Active; 'I' for Inactive)
REMARK    1  A    between atoms: C2_2  and  O1_3 
REMARK    2  A    between atoms: O1_3  and  C3_4 
REMARK    3  A    between atoms: C3_4  and  C4_6 
REMARK    4  A    between atoms: C7_11  and  C8_12 
REMARK    5  A    between atoms: C8_12  and  C9_13 
REMARK    6  A    between atoms: C12_18  and  O3_19 
ROOT
HETATM    1  C9  UNL     1     -21.502 -34.217  -2.760  1.00  0.00     0.031 C 
HETATM    2  C10 UNL     1     -21.847 -33.660  -3.986  1.00  0.00     0.101 C 
HETATM    3  N2  UNL     1     -22.182 -32.401  -4.312  1.00  0.00    -0.361 N 
ATOM      4  H2  UNL     1     -22.708 -32.292  -5.179  1.00  0.00     0.165 HD
HETATM    5  C11 UNL     1     -21.913 -31.259  -3.640  1.00  0.00     0.093 A 
HETATM    6  C12 UNL     1     -21.873 -29.882  -3.751  1.00  0.00     0.099 A 
HETATM    7  C14 UNL     1     -21.470 -29.815  -2.460  1.00  0.00     0.071 A 
HETATM    8  C15 UNL     1     -21.479 -31.186  -2.249  1.00  0.00     0.067 A 
HETATM    9  N3  UNL     1     -21.261 -32.174  -1.368  1.00  0.00    -0.321 N 
ATOM     10  H3  UNL     1     -20.975 -31.889  -0.432  1.00  0.00     0.169 HD
HETATM   11  C16 UNL     1     -21.377 -33.521  -1.582  1.00  0.00     0.254 C 
HETATM   12  O4  UNL     1     -21.363 -34.173  -0.509  1.00  0.00    -0.268 OA
ENDROOT
BRANCH   1  13
HETATM   13  C8  UNL     1     -21.242 -35.671  -2.693  1.00  0.00     0.103 C 
BRANCH  13  14
HETATM   14  C7  UNL     1     -21.912 -36.457  -3.755  1.00  0.00     0.021 A 
HETATM   15  N1  UNL     1     -21.793 -36.282  -5.079  1.00  0.00    -0.362 N 
HETATM   16  C5  UNL     1     -22.551 -37.162  -5.763  1.00  0.00     0.022 A 
ATOM     17  H1  UNL     1     -21.204 -35.572  -5.514  1.00  0.00     0.165 HD
HETATM   18  C4  UNL     1     -23.207 -37.964  -4.856  1.00  0.00     0.069 A 
HETATM   19  C6  UNL     1     -22.703 -37.302  -7.249  1.00  0.00     0.069 C 
HETATM   20  C17 UNL     1     -22.796 -37.509  -3.609  1.00  0.00    -0.021 A 
HETATM   21  C18 UNL     1     -23.274 -38.108  -2.352  1.00  0.00     0.051 C 
BRANCH  18  22
HETATM   22  C3  UNL     1     -24.148 -39.069  -5.120  1.00  0.00     0.295 C 
HETATM   23  O2  UNL     1     -25.364 -38.844  -5.179  1.00  0.00    -0.259 OA
BRANCH  22  24
HETATM   24  O1  UNL     1     -23.694 -40.365  -5.304  1.00  0.00    -0.318 OA
BRANCH  24  25
HETATM   25  C2  UNL     1     -23.576 -40.942  -6.606  1.00  0.00     0.174 C 
HETATM   26  C1  UNL     1     -22.135 -40.997  -7.044  1.00  0.00     0.034 C 
ENDBRANCH  24  25
ENDBRANCH  22  24
ENDBRANCH  18  22
ENDBRANCH  13  14
ENDBRANCH   1  13
BRANCH   6  27
HETATM   27  O3  UNL     1     -22.155 -29.042  -4.808  1.00  0.00    -0.353 OA
HETATM   28  C13 UNL     1     -22.016 -27.640  -4.748  1.00  0.00     0.210 C 
ENDBRANCH   6  27
TORSDOF 6
ENDMDL
