MODEL 1
REMARK VINA RESULT: -8.344427842      0.000      0.000
REMARK  7 active torsions:
REMARK  status: ('A' for Active; 'I' for Inactive)
REMARK    1  A    between atoms: C2_2  and  C3_3 
REMARK    2  A    between atoms: C3_3  and  C4_4 
REMARK    3  A    between atoms: C6_6  and  C7_7 
REMARK    4  A    between atoms: C7_7  and  N1_8 
REMARK    5  A    between atoms: N1_8  and  C8_10 
REMARK    6  A    between atoms: C8_10  and  N2_12 
REMARK    7  A    between atoms: C10_17  and  C11_18 
ROOT
HETATM    1  N1  UNL     1     -21.457 -35.494  -2.401  1.00  0.00    -0.363 N 
ATOM      2  H1  UNL     1     -20.535 -35.059  -2.396  1.00  0.00     0.162 HD
ENDROOT
BRANCH   1   3
HETATM    3  C7  UNL     1     -21.979 -36.153  -1.177  1.00  0.00     0.166 C 
BRANCH   3   4
HETATM    4  C6  UNL     1     -21.943 -35.023  -0.180  1.00  0.00     0.028 A 
HETATM    5  C5  UNL     1     -21.557 -33.777  -0.539  1.00  0.00     0.023 A 
HETATM    6  C4  UNL     1     -21.525 -32.725   0.359  1.00  0.00    -0.035 A 
HETATM    7  C15 UNL     1     -21.922 -33.023   1.679  1.00  0.00     0.015 A 
HETATM    8  N5  UNL     1     -22.305 -34.270   2.016  1.00  0.00    -0.327 N 
HETATM    9  C16 UNL     1     -21.786 -31.990   2.768  1.00  0.00     0.068 C 
HETATM   10  C14 UNL     1     -22.316 -35.264   1.108  1.00  0.00     0.253 A 
ATOM     11  H5  UNL     1     -22.591 -34.465   2.976  1.00  0.00     0.169 HD
HETATM   12  O2  UNL     1     -22.664 -36.471   1.433  1.00  0.00    -0.268 OA
BRANCH   6  13
HETATM   13  C3  UNL     1     -21.138 -31.355   0.000  1.00  0.00     0.040 C 
BRANCH  13  14
HETATM   14  C2  UNL     1     -20.797 -31.107  -1.407  1.00  0.00     0.000 C 
HETATM   15  C1  UNL     1     -21.561 -30.195  -2.254  1.00  0.00     0.005 C 
ENDBRANCH  13  14
ENDBRANCH   6  13
ENDBRANCH   3   4
ENDBRANCH   1   3
BRANCH   1  16
HETATM   16  C8  UNL     1     -22.241 -35.475  -3.565  1.00  0.00     0.174 C 
HETATM   17  S1  UNL     1     -22.293 -36.704  -4.656  1.00  0.00    -0.041 SA
BRANCH  16  18
HETATM   18  N2  UNL     1     -23.143 -34.358  -3.712  1.00  0.00    -0.303 N 
HETATM   19  C9  UNL     1     -22.760 -33.317  -4.347  1.00  0.00     0.208 A 
HETATM   20  N3  UNL     1     -21.554 -33.175  -4.903  1.00  0.00    -0.308 N 
HETATM   21  N4  UNL     1     -23.425 -32.110  -4.631  1.00  0.00    -0.228 N 
HETATM   22  C10 UNL     1     -21.388 -32.043  -5.489  1.00  0.00     0.153 A 
ATOM     23  H3  UNL     1     -20.833 -33.896  -4.866  1.00  0.00     0.170 HD
HETATM   24  O1  UNL     1     -22.577 -31.429  -5.283  1.00  0.00    -0.221 OA
ATOM     25  H4  UNL     1     -24.375 -31.843  -4.372  1.00  0.00     0.198 HD
ATOM     26  H2  UNL     1     -24.080 -34.400  -3.312  1.00  0.00     0.171 HD
BRANCH  22  27
HETATM   27  C11 UNL     1     -20.236 -31.465  -6.229  1.00  0.00     0.055 C 
HETATM   28  C12 UNL     1     -20.362 -32.091  -7.629  1.00  0.00     0.018 C 
HETATM   29  C13 UNL     1     -20.560 -29.975  -6.380  1.00  0.00     0.018 C 
ENDBRANCH  22  27
ENDBRANCH  16  18
ENDBRANCH   1  16
TORSDOF 7
ENDMDL
MODEL 2
REMARK VINA RESULT: -8.228535688      2.031      2.836
REMARK  7 active torsions:
REMARK  status: ('A' for Active; 'I' for Inactive)
REMARK    1  A    between atoms: C2_2  and  C3_3 
REMARK    2  A    between atoms: C3_3  and  C4_4 
REMARK    3  A    between atoms: C6_6  and  C7_7 
REMARK    4  A    between atoms: C7_7  and  N1_8 
REMARK    5  A    between atoms: N1_8  and  C8_10 
REMARK    6  A    between atoms: C8_10  and  N2_12 
REMARK    7  A    between atoms: C10_17  and  C11_18 
ROOT
HETATM    1  N1  UNL     1     -23.003 -36.040  -3.610  1.00  0.00    -0.363 N 
ATOM      2  H1  UNL     1     -23.739 -35.429  -3.258  1.00  0.00     0.162 HD
ENDROOT
BRANCH   1   3
HETATM    3  C7  UNL     1     -22.692 -37.314  -2.912  1.00  0.00     0.166 C 
BRANCH   3   4
HETATM    4  C6  UNL     1     -22.622 -36.869  -1.474  1.00  0.00     0.028 A 
HETATM    5  C5  UNL     1     -22.386 -35.578  -1.146  1.00  0.00     0.023 A 
HETATM    6  C4  UNL     1     -22.327 -35.147   0.167  1.00  0.00    -0.035 A 
HETATM    7  C15 UNL     1     -22.530 -36.134   1.154  1.00  0.00     0.015 A 
HETATM    8  N5  UNL     1     -22.767 -37.415   0.806  1.00  0.00    -0.327 N 
HETATM    9  C16 UNL     1     -22.343 -35.804   2.613  1.00  0.00     0.068 C 
HETATM   10  C14 UNL     1     -22.812 -37.788  -0.486  1.00  0.00     0.253 A 
ATOM     11  H5  UNL     1     -22.914 -38.113   1.535  1.00  0.00     0.169 HD
HETATM   12  O2  UNL     1     -23.018 -39.023  -0.825  1.00  0.00    -0.268 OA
BRANCH   6  13
HETATM   13  C3  UNL     1     -22.100 -33.751   0.561  1.00  0.00     0.040 C 
BRANCH  13  14
HETATM   14  C2  UNL     1     -21.240 -32.945  -0.315  1.00  0.00     0.000 C 
HETATM   15  C1  UNL     1     -20.843 -31.578   0.013  1.00  0.00     0.005 C 
ENDBRANCH  13  14
ENDBRANCH   6  13
ENDBRANCH   3   4
ENDBRANCH   1   3
BRANCH   1  16
HETATM   16  C8  UNL     1     -22.277 -35.684  -4.757  1.00  0.00     0.174 C 
HETATM   17  S1  UNL     1     -22.875 -35.779  -6.287  1.00  0.00    -0.041 SA
BRANCH  16  18
HETATM   18  N2  UNL     1     -20.987 -35.078  -4.537  1.00  0.00    -0.303 N 
HETATM   19  C9  UNL     1     -20.916 -33.836  -4.243  1.00  0.00     0.208 A 
HETATM   20  N3  UNL     1     -21.973 -33.030  -4.117  1.00  0.00    -0.308 N 
HETATM   21  N4  UNL     1     -19.807 -33.009  -3.983  1.00  0.00    -0.228 N 
HETATM   22  C10 UNL     1     -21.664 -31.819  -3.817  1.00  0.00     0.153 A 
ATOM     23  H3  UNL     1     -22.935 -33.344  -4.247  1.00  0.00     0.170 HD
HETATM   24  O1  UNL     1     -20.312 -31.868  -3.752  1.00  0.00    -0.221 OA
ATOM     25  H4  UNL     1     -18.820 -33.268  -3.980  1.00  0.00     0.198 HD
ATOM     26  H2  UNL     1     -20.137 -35.636  -4.616  1.00  0.00     0.171 HD
BRANCH  22  27
HETATM   27  C11 UNL     1     -22.494 -30.609  -3.579  1.00  0.00     0.055 C 
HETATM   28  C12 UNL     1     -21.558 -29.688  -2.777  1.00  0.00     0.018 C 
HETATM   29  C13 UNL     1     -22.674 -29.965  -4.957  1.00  0.00     0.018 C 
ENDBRANCH  22  27
ENDBRANCH  16  18
ENDBRANCH   1  16
TORSDOF 7
ENDMDL
MODEL 3
REMARK VINA RESULT: -8.201764113      2.790      4.903
REMARK  7 active torsions:
REMARK  status: ('A' for Active; 'I' for Inactive)
REMARK    1  A    between atoms: C2_2  and  C3_3 
REMARK    2  A    between atoms: C3_3  and  C4_4 
REMARK    3  A    between atoms: C6_6  and  C7_7 
REMARK    4  A    between atoms: C7_7  and  N1_8 
REMARK    5  A    between atoms: N1_8  and  C8_10 
REMARK    6  A    between atoms: C8_10  and  N2_12 
REMARK    7  A    between atoms: C10_17  and  C11_18 
ROOT
HETATM    1  N1  UNL     1     -22.794 -34.456  -5.063  1.00  0.00    -0.363 N 
ATOM      2  H1  UNL     1     -23.691 -34.635  -4.613  1.00  0.00     0.162 HD
ENDROOT
BRANCH   1   3
HETATM    3  C7  UNL     1     -21.654 -35.384  -4.854  1.00  0.00     0.166 C 
BRANCH   3   4
HETATM    4  C6  UNL     1     -22.167 -36.254  -3.735  1.00  0.00     0.028 A 
HETATM    5  C5  UNL     1     -21.819 -36.028  -2.448  1.00  0.00     0.023 A 
HETATM    6  C4  UNL     1     -22.285 -36.809  -1.407  1.00  0.00    -0.035 A 
HETATM    7  C15 UNL     1     -23.153 -37.863  -1.762  1.00  0.00     0.015 A 
HETATM    8  N5  UNL     1     -23.489 -38.071  -3.050  1.00  0.00    -0.327 N 
HETATM    9  C16 UNL     1     -23.603 -38.863  -0.727  1.00  0.00     0.068 C 
HETATM   10  C14 UNL     1     -23.007 -37.286  -4.031  1.00  0.00     0.253 A 
ATOM     11  H5  UNL     1     -24.120 -38.837  -3.286  1.00  0.00     0.169 HD
HETATM   12  O2  UNL     1     -23.311 -37.495  -5.274  1.00  0.00    -0.268 OA
BRANCH   6  13
HETATM   13  C3  UNL     1     -21.952 -36.577   0.004  1.00  0.00     0.040 C 
BRANCH  13  14
HETATM   14  C2  UNL     1     -22.841 -35.683   0.759  1.00  0.00     0.000 C 
HETATM   15  C1  UNL     1     -22.565 -35.275   2.133  1.00  0.00     0.005 C 
ENDBRANCH  13  14
ENDBRANCH   6  13
ENDBRANCH   3   4
ENDBRANCH   1   3
BRANCH   1  16
HETATM   16  C8  UNL     1     -22.629 -33.331  -5.885  1.00  0.00     0.174 C 
HETATM   17  S1  UNL     1     -22.006 -33.390  -7.407  1.00  0.00    -0.041 SA
BRANCH  16  18
HETATM   18  N2  UNL     1     -23.171 -32.089  -5.390  1.00  0.00    -0.303 N 
HETATM   19  C9  UNL     1     -22.756 -31.620  -4.275  1.00  0.00     0.208 A 
HETATM   20  N3  UNL     1     -21.832 -32.205  -3.509  1.00  0.00    -0.308 N 
HETATM   21  N4  UNL     1     -23.110 -30.451  -3.574  1.00  0.00    -0.228 N 
HETATM   22  C10 UNL     1     -21.571 -31.555  -2.431  1.00  0.00     0.153 A 
ATOM     23  H3  UNL     1     -21.376 -33.083  -3.755  1.00  0.00     0.170 HD
HETATM   24  O1  UNL     1     -22.395 -30.484  -2.527  1.00  0.00    -0.221 OA
ATOM     25  H4  UNL     1     -23.788 -29.740  -3.847  1.00  0.00     0.198 HD
ATOM     26  H2  UNL     1     -23.880 -31.588  -5.926  1.00  0.00     0.171 HD
BRANCH  22  27
HETATM   27  C11 UNL     1     -20.631 -31.820  -1.312  1.00  0.00     0.055 C 
HETATM   28  C12 UNL     1     -20.746 -30.555  -0.443  1.00  0.00     0.018 C 
HETATM   29  C13 UNL     1     -21.264 -32.964  -0.514  1.00  0.00     0.018 C 
ENDBRANCH  22  27
ENDBRANCH  16  18
ENDBRANCH   1  16
TORSDOF 7
ENDMDL
MODEL 4
REMARK VINA RESULT: -8.071303862      2.790      4.371
REMARK  7 active torsions:
REMARK  status: ('A' for Active; 'I' for Inactive)
REMARK    1  A    between atoms: C2_2  and  C3_3 
REMARK    2  A    between atoms: C3_3  and  C4_4 
REMARK    3  A    between atoms: C6_6  and  C7_7 
REMARK    4  A    between atoms: C7_7  and  N1_8 
REMARK    5  A    between atoms: N1_8  and  C8_10 
REMARK    6  A    between atoms: C8_10  and  N2_12 
REMARK    7  A    between atoms: C10_17  and  C11_18 
ROOT
HETATM    1  N1  UNL     1     -23.320 -35.659  -5.399  1.00  0.00    -0.363 N 
ATOM      2  H1  UNL     1     -24.150 -35.289  -4.936  1.00  0.00     0.162 HD
ENDROOT
BRANCH   1   3
HETATM    3  C7  UNL     1     -23.034 -37.116  -5.369  1.00  0.00     0.166 C 
BRANCH   3   4
HETATM    4  C6  UNL     1     -22.978 -37.388  -3.888  1.00  0.00     0.028 A 
HETATM    5  C5  UNL     1     -22.807 -36.389  -2.992  1.00  0.00     0.023 A 
HETATM    6  C4  UNL     1     -22.761 -36.617  -1.629  1.00  0.00    -0.035 A 
HETATM    7  C15 UNL     1     -22.907 -37.959  -1.218  1.00  0.00     0.015 A 
HETATM    8  N5  UNL     1     -23.080 -38.940  -2.126  1.00  0.00    -0.327 N 
HETATM    9  C16 UNL     1     -22.728 -38.337   0.230  1.00  0.00     0.068 C 
HETATM   10  C14 UNL     1     -23.113 -38.670  -3.445  1.00  0.00     0.253 A 
ATOM     11  H5  UNL     1     -23.186 -39.903  -1.809  1.00  0.00     0.169 HD
HETATM   12  O2  UNL     1     -23.258 -39.613  -4.323  1.00  0.00    -0.268 OA
BRANCH   6  13
HETATM   13  C3  UNL     1     -22.605 -35.556  -0.627  1.00  0.00     0.040 C 
BRANCH  13  14
HETATM   14  C2  UNL     1     -21.670 -34.469  -0.950  1.00  0.00     0.000 C 
HETATM   15  C1  UNL     1     -21.308 -33.430   0.010  1.00  0.00     0.005 C 
ENDBRANCH  13  14
ENDBRANCH   6  13
ENDBRANCH   3   4
ENDBRANCH   1   3
BRANCH   1  16
HETATM   16  C8  UNL     1     -22.442 -34.794  -6.070  1.00  0.00     0.174 C 
HETATM   17  S1  UNL     1     -22.864 -33.892  -7.379  1.00  0.00    -0.041 SA
BRANCH  16  18
HETATM   18  N2  UNL     1     -21.143 -34.607  -5.470  1.00  0.00    -0.303 N 
HETATM   19  C9  UNL     1     -20.949 -33.621  -4.680  1.00  0.00     0.208 A 
HETATM   20  N3  UNL     1     -21.882 -32.722  -4.355  1.00  0.00    -0.308 N 
HETATM   21  N4  UNL     1     -19.802 -33.213  -3.974  1.00  0.00    -0.228 N 
HETATM   22  C10 UNL     1     -21.462 -31.815  -3.546  1.00  0.00     0.153 A 
ATOM     23  H3  UNL     1     -22.836 -32.751  -4.715  1.00  0.00     0.170 HD
HETATM   24  O1  UNL     1     -20.170 -32.171  -3.350  1.00  0.00    -0.221 OA
ATOM     25  H4  UNL     1     -18.883 -33.655  -3.964  1.00  0.00     0.198 HD
ATOM     26  H2  UNL     1     -20.385 -35.258  -5.674  1.00  0.00     0.171 HD
BRANCH  22  27
HETATM   27  C11 UNL     1     -22.136 -30.645  -2.925  1.00  0.00     0.055 C 
HETATM   28  C12 UNL     1     -21.344 -30.428  -1.625  1.00  0.00     0.018 C 
HETATM   29  C13 UNL     1     -21.816 -29.461  -3.843  1.00  0.00     0.018 C 
ENDBRANCH  22  27
ENDBRANCH  16  18
ENDBRANCH   1  16
TORSDOF 7
ENDMDL
MODEL 5
REMARK VINA RESULT: -7.925430271      1.398      1.916
REMARK  7 active torsions:
REMARK  status: ('A' for Active; 'I' for Inactive)
REMARK    1  A    between atoms: C2_2  and  C3_3 
REMARK    2  A    between atoms: C3_3  and  C4_4 
REMARK    3  A    between atoms: C6_6  and  C7_7 
REMARK    4  A    between atoms: C7_7  and  N1_8 
REMARK    5  A    between atoms: N1_8  and  C8_10 
REMARK    6  A    between atoms: C8_10  and  N2_12 
REMARK    7  A    between atoms: C10_17  and  C11_18 
ROOT
HETATM    1  N1  UNL     1     -21.824 -35.934  -3.611  1.00  0.00    -0.363 N 
ATOM      2  H1  UNL     1     -20.919 -35.547  -3.345  1.00  0.00     0.162 HD
ENDROOT
BRANCH   1   3
HETATM    3  C7  UNL     1     -22.368 -37.120  -2.900  1.00  0.00     0.166 C 
BRANCH   3   4
HETATM    4  C6  UNL     1     -22.367 -36.646  -1.469  1.00  0.00     0.028 A 
HETATM    5  C5  UNL     1     -22.018 -35.381  -1.144  1.00  0.00     0.023 A 
HETATM    6  C4  UNL     1     -22.019 -34.925   0.162  1.00  0.00    -0.035 A 
HETATM    7  C15 UNL     1     -22.409 -35.858   1.145  1.00  0.00     0.015 A 
HETATM    8  N5  UNL     1     -22.756 -37.114   0.801  1.00  0.00    -0.327 N 
HETATM    9  C16 UNL     1     -22.306 -35.512   2.609  1.00  0.00     0.068 C 
HETATM   10  C14 UNL     1     -22.736 -37.514  -0.485  1.00  0.00     0.253 A 
ATOM     11  H5  UNL     1     -23.038 -37.773   1.527  1.00  0.00     0.169 HD
HETATM   12  O2  UNL     1     -23.049 -38.727  -0.818  1.00  0.00    -0.268 OA
BRANCH   6  13
HETATM   13  C3  UNL     1     -21.672 -33.552   0.550  1.00  0.00     0.040 C 
BRANCH  13  14
HETATM   14  C2  UNL     1     -21.300 -32.629  -0.532  1.00  0.00     0.000 C 
HETATM   15  C1  UNL     1     -20.949 -31.233  -0.289  1.00  0.00     0.005 C 
ENDBRANCH  13  14
ENDBRANCH   6  13
ENDBRANCH   3   4
ENDBRANCH   1   3
BRANCH   1  16
HETATM   16  C8  UNL     1     -22.563 -35.352  -4.652  1.00  0.00     0.174 C 
HETATM   17  S1  UNL     1     -22.808 -36.067  -6.114  1.00  0.00    -0.041 SA
BRANCH  16  18
HETATM   18  N2  UNL     1     -23.246 -34.120  -4.343  1.00  0.00    -0.303 N 
HETATM   19  C9  UNL     1     -22.737 -33.007  -4.712  1.00  0.00     0.208 A 
HETATM   20  N3  UNL     1     -21.588 -32.889  -5.383  1.00  0.00    -0.308 N 
HETATM   21  N4  UNL     1     -23.186 -31.683  -4.543  1.00  0.00    -0.228 N 
HETATM   22  C10 UNL     1     -21.269 -31.673  -5.648  1.00  0.00     0.153 A 
ATOM     23  H3  UNL     1     -21.018 -33.689  -5.660  1.00  0.00     0.170 HD
HETATM   24  O1  UNL     1     -22.293 -30.975  -5.101  1.00  0.00    -0.221 OA
ATOM     25  H4  UNL     1     -24.036 -31.366  -4.078  1.00  0.00     0.198 HD
ATOM     26  H2  UNL     1     -24.129 -34.137  -3.833  1.00  0.00     0.171 HD
BRANCH  22  27
HETATM   27  C11 UNL     1     -20.109 -31.081  -6.363  1.00  0.00     0.055 C 
HETATM   28  C12 UNL     1     -20.125 -31.801  -7.723  1.00  0.00     0.018 C 
HETATM   29  C13 UNL     1     -20.499 -29.623  -6.630  1.00  0.00     0.018 C 
ENDBRANCH  22  27
ENDBRANCH  16  18
ENDBRANCH   1  16
TORSDOF 7
ENDMDL
