MODEL 1
REMARK VINA RESULT: -6.106385144      0.000      0.000
REMARK  7 active torsions:
REMARK  status: ('A' for Active; 'I' for Inactive)
REMARK    1  A    between atoms: S1_2  and  C2_3 
REMARK    2  A    between atoms: C2_3  and  C3_4 
REMARK    3  A    between atoms: C3_4  and  C4_5 
REMARK    4  A    between atoms: C5_6  and  C6_7 
REMARK    5  A    between atoms: C7_8  and  O1_9 
REMARK    6  A    between atoms: N2_18  and  C12_19 
REMARK    7  A    between atoms: C12_19  and  C13_20 
REMARK       I    between atoms: C13_20  and  N3_22 
ROOT
HETATM    1  C6  UNL     1     -22.705 -31.665  -4.806  1.00  0.00     0.198 C 
HETATM    2  C7  UNL     1     -21.987 -30.913  -5.866  1.00  0.00     0.180 C 
HETATM    3  C8  UNL     1     -21.782 -31.563  -7.176  1.00  0.00     0.054 C 
HETATM    4  C9  UNL     1     -22.864 -31.302  -8.197  1.00  0.00     0.041 C 
HETATM    5  C10 UNL     1     -20.501 -30.960  -7.781  1.00  0.00     0.041 C 
HETATM    6  N1  UNL     1     -21.514 -32.992  -7.116  1.00  0.00    -0.356 N 
ATOM      7  H1  UNL     1     -21.160 -33.485  -7.936  1.00  0.00     0.162 HD
HETATM    8  C11 UNL     1     -21.751 -33.698  -5.901  1.00  0.00     0.172 C 
HETATM    9  S2  UNL     1     -20.921 -35.025  -5.518  1.00  0.00    -0.041 SA
HETATM   10  N2  UNL     1     -22.721 -33.114  -5.040  1.00  0.00    -0.332 N 
ENDROOT
BRANCH   1  11
HETATM   11  C5  UNL     1     -22.112 -31.427  -3.487  1.00  0.00    -0.078 C 
HETATM   12  C4  UNL     1     -21.602 -31.244  -2.400  1.00  0.00    -0.104 C 
BRANCH  12  13
HETATM   13  C3  UNL     1     -21.004 -31.009  -1.084  1.00  0.00     0.104 C 
BRANCH  13  14
HETATM   14  C2  UNL     1     -21.070 -32.318  -0.331  1.00  0.00     0.085 C 
BRANCH  14  15
HETATM   15  S1  UNL     1     -21.377 -31.902   1.424  1.00  0.00    -0.173 SA
HETATM   16  C1  UNL     1     -22.277 -33.230   2.251  1.00  0.00     0.089 C 
ENDBRANCH  14  15
ENDBRANCH  13  14
ENDBRANCH  12  13
ENDBRANCH   1  11
BRANCH   2  17
HETATM   17  O1  UNL     1     -22.637 -29.679  -6.080  1.00  0.00    -0.390 OA
ATOM     18  H1  UNL     1     -22.628 -29.479  -7.009  1.00  0.00     0.210 HD
ENDBRANCH   2  17
BRANCH  10  19
HETATM   19  C12 UNL     1     -23.665 -33.891  -4.306  1.00  0.00     0.229 C 
BRANCH  19  20
HETATM   20  C13 UNL     1     -23.182 -34.970  -3.454  1.00  0.00     0.237 C 
HETATM   21  O2  UNL     1     -22.513 -34.785  -2.430  1.00  0.00    -0.272 OA
HETATM   22  N3  UNL     1     -23.482 -36.314  -3.794  1.00  0.00    -0.359 N 
HETATM   23  C14 UNL     1     -23.027 -37.437  -2.975  1.00  0.00     0.152 C 
HETATM   24  C15 UNL     1     -24.258 -36.587  -4.979  1.00  0.00     0.152 C 
ENDBRANCH  19  20
ENDBRANCH  10  19
TORSDOF 7
ENDMDL
MODEL 2
REMARK VINA RESULT: -6.096805404      1.111      1.315
REMARK  7 active torsions:
REMARK  status: ('A' for Active; 'I' for Inactive)
REMARK    1  A    between atoms: S1_2  and  C2_3 
REMARK    2  A    between atoms: C2_3  and  C3_4 
REMARK    3  A    between atoms: C3_4  and  C4_5 
REMARK    4  A    between atoms: C5_6  and  C6_7 
REMARK    5  A    between atoms: C7_8  and  O1_9 
REMARK    6  A    between atoms: N2_18  and  C12_19 
REMARK    7  A    between atoms: C12_19  and  C13_20 
REMARK       I    between atoms: C13_20  and  N3_22 
ROOT
HETATM    1  C6  UNL     1     -22.643 -31.760  -4.099  1.00  0.00     0.198 C 
HETATM    2  C7  UNL     1     -22.155 -30.968  -5.256  1.00  0.00     0.180 C 
HETATM    3  C8  UNL     1     -22.021 -31.639  -6.564  1.00  0.00     0.054 C 
HETATM    4  C9  UNL     1     -23.238 -31.555  -7.454  1.00  0.00     0.041 C 
HETATM    5  C10 UNL     1     -20.906 -30.906  -7.333  1.00  0.00     0.041 C 
HETATM    6  N1  UNL     1     -21.567 -33.020  -6.501  1.00  0.00    -0.356 N 
ATOM      7  H1  UNL     1     -21.250 -33.497  -7.345  1.00  0.00     0.162 HD
HETATM    8  C11 UNL     1     -21.570 -33.701  -5.250  1.00  0.00     0.172 C 
HETATM    9  S2  UNL     1     -20.538 -34.898  -4.935  1.00  0.00    -0.041 SA
HETATM   10  N2  UNL     1     -22.500 -33.208  -4.293  1.00  0.00    -0.332 N 
ENDROOT
BRANCH   1  11
HETATM   11  C5  UNL     1     -21.936 -31.398  -2.867  1.00  0.00    -0.078 C 
HETATM   12  C4  UNL     1     -21.358 -31.119  -1.836  1.00  0.00    -0.104 C 
BRANCH  12  13
HETATM   13  C3  UNL     1     -20.653 -30.763  -0.603  1.00  0.00     0.104 C 
BRANCH  13  14
HETATM   14  C2  UNL     1     -21.427 -31.379   0.540  1.00  0.00     0.085 C 
BRANCH  14  15
HETATM   15  S1  UNL     1     -21.191 -33.189   0.422  1.00  0.00    -0.173 SA
HETATM   16  C1  UNL     1     -22.277 -34.055   1.574  1.00  0.00     0.089 C 
ENDBRANCH  14  15
ENDBRANCH  13  14
ENDBRANCH  12  13
ENDBRANCH   1  11
BRANCH   2  17
HETATM   17  O1  UNL     1     -22.977 -29.834  -5.421  1.00  0.00    -0.390 OA
ATOM     18  H1  UNL     1     -22.615 -29.111  -4.920  1.00  0.00     0.210 HD
ENDBRANCH   2  17
BRANCH  10  19
HETATM   19  C12 UNL     1     -23.246 -34.067  -3.433  1.00  0.00     0.229 C 
BRANCH  19  20
HETATM   20  C13 UNL     1     -23.475 -35.447  -3.838  1.00  0.00     0.237 C 
HETATM   21  O2  UNL     1     -24.046 -35.766  -4.889  1.00  0.00    -0.272 OA
HETATM   22  N3  UNL     1     -23.028 -36.502  -3.002  1.00  0.00    -0.359 N 
HETATM   23  C14 UNL     1     -23.227 -37.907  -3.358  1.00  0.00     0.152 C 
HETATM   24  C15 UNL     1     -22.356 -36.187  -1.764  1.00  0.00     0.152 C 
ENDBRANCH  19  20
ENDBRANCH  10  19
TORSDOF 7
ENDMDL
MODEL 3
REMARK VINA RESULT: -6.024622810      2.517      5.443
REMARK  7 active torsions:
REMARK  status: ('A' for Active; 'I' for Inactive)
REMARK    1  A    between atoms: S1_2  and  C2_3 
REMARK    2  A    between atoms: C2_3  and  C3_4 
REMARK    3  A    between atoms: C3_4  and  C4_5 
REMARK    4  A    between atoms: C5_6  and  C6_7 
REMARK    5  A    between atoms: C7_8  and  O1_9 
REMARK    6  A    between atoms: N2_18  and  C12_19 
REMARK    7  A    between atoms: C12_19  and  C13_20 
REMARK       I    between atoms: C13_20  and  N3_22 
ROOT
HETATM    1  C6  UNL     1     -22.318 -36.858  -2.786  1.00  0.00     0.198 C 
HETATM    2  C7  UNL     1     -23.330 -37.834  -3.263  1.00  0.00     0.180 C 
HETATM    3  C8  UNL     1     -23.857 -37.690  -4.635  1.00  0.00     0.054 C 
HETATM    4  C9  UNL     1     -23.108 -38.464  -5.693  1.00  0.00     0.041 C 
HETATM    5  C10 UNL     1     -25.280 -38.279  -4.634  1.00  0.00     0.041 C 
HETATM    6  N1  UNL     1     -24.037 -36.317  -5.082  1.00  0.00    -0.356 N 
ATOM      7  H1  UNL     1     -24.580 -36.115  -5.921  1.00  0.00     0.162 HD
HETATM    8  C11 UNL     1     -23.447 -35.256  -4.336  1.00  0.00     0.172 C 
HETATM    9  S2  UNL     1     -24.082 -33.775  -4.324  1.00  0.00    -0.041 SA
HETATM   10  N2  UNL     1     -22.305 -35.616  -3.569  1.00  0.00    -0.332 N 
ENDROOT
BRANCH   1  11
HETATM   11  C5  UNL     1     -22.539 -36.503  -1.381  1.00  0.00    -0.078 C 
HETATM   12  C4  UNL     1     -22.698 -36.204  -0.215  1.00  0.00    -0.104 C 
BRANCH  12  13
HETATM   13  C3  UNL     1     -22.913 -35.848   1.189  1.00  0.00     0.104 C 
BRANCH  13  14
HETATM   14  C2  UNL     1     -21.706 -35.051   1.631  1.00  0.00     0.085 C 
BRANCH  14  15
HETATM   15  S1  UNL     1     -22.325 -33.421   2.187  1.00  0.00    -0.173 SA
HETATM   16  C1  UNL     1     -21.182 -32.106   1.716  1.00  0.00     0.089 C 
ENDBRANCH  14  15
ENDBRANCH  13  14
ENDBRANCH  12  13
ENDBRANCH   1  11
BRANCH   2  17
HETATM   17  O1  UNL     1     -22.818 -39.140  -3.119  1.00  0.00    -0.390 OA
ATOM     18  H1  UNL     1     -23.367 -39.746  -3.604  1.00  0.00     0.210 HD
ENDBRANCH   2  17
BRANCH  10  19
HETATM   19  C12 UNL     1     -21.163 -34.770  -3.445  1.00  0.00     0.229 C 
BRANCH  19  20
HETATM   20  C13 UNL     1     -21.277 -33.539  -2.674  1.00  0.00     0.237 C 
HETATM   21  O2  UNL     1     -21.362 -33.511  -1.440  1.00  0.00    -0.272 OA
HETATM   22  N3  UNL     1     -21.290 -32.293  -3.350  1.00  0.00    -0.359 N 
HETATM   23  C14 UNL     1     -21.398 -31.024  -2.629  1.00  0.00     0.152 C 
HETATM   24  C15 UNL     1     -21.194 -32.267  -4.789  1.00  0.00     0.152 C 
ENDBRANCH  19  20
ENDBRANCH  10  19
TORSDOF 7
ENDMDL
MODEL 4
REMARK VINA RESULT: -5.650061867      2.171      4.946
REMARK  7 active torsions:
REMARK  status: ('A' for Active; 'I' for Inactive)
REMARK    1  A    between atoms: S1_2  and  C2_3 
REMARK    2  A    between atoms: C2_3  and  C3_4 
REMARK    3  A    between atoms: C3_4  and  C4_5 
REMARK    4  A    between atoms: C5_6  and  C6_7 
REMARK    5  A    between atoms: C7_8  and  O1_9 
REMARK    6  A    between atoms: N2_18  and  C12_19 
REMARK    7  A    between atoms: C12_19  and  C13_20 
REMARK       I    between atoms: C13_20  and  N3_22 
ROOT
HETATM    1  C6  UNL     1     -21.032 -33.514  -4.444  1.00  0.00     0.198 C 
HETATM    2  C7  UNL     1     -21.903 -34.668  -4.108  1.00  0.00     0.180 C 
HETATM    3  C8  UNL     1     -22.595 -35.373  -5.205  1.00  0.00     0.054 C 
HETATM    4  C9  UNL     1     -21.844 -36.546  -5.788  1.00  0.00     0.041 C 
HETATM    5  C10 UNL     1     -23.884 -35.974  -4.611  1.00  0.00     0.041 C 
HETATM    6  N1  UNL     1     -23.062 -34.517  -6.285  1.00  0.00    -0.356 N 
ATOM      7  H1  UNL     1     -23.722 -34.874  -6.977  1.00  0.00     0.162 HD
HETATM    8  C11 UNL     1     -22.590 -33.176  -6.369  1.00  0.00     0.172 C 
HETATM    9  S2  UNL     1     -23.470 -32.009  -7.046  1.00  0.00    -0.041 SA
HETATM   10  N2  UNL     1     -21.324 -32.940  -5.763  1.00  0.00    -0.332 N 
ENDROOT
BRANCH   1  11
HETATM   11  C5  UNL     1     -21.155 -32.444  -3.450  1.00  0.00    -0.078 C 
HETATM   12  C4  UNL     1     -21.280 -31.561  -2.626  1.00  0.00    -0.104 C 
BRANCH  12  13
HETATM   13  C3  UNL     1     -21.408 -30.493  -1.632  1.00  0.00     0.104 C 
BRANCH  13  14
HETATM   14  C2  UNL     1     -20.521 -30.866  -0.467  1.00  0.00     0.085 C 
BRANCH  14  15
HETATM   15  S1  UNL     1     -21.565 -31.796   0.714  1.00  0.00    -0.173 SA
HETATM   16  C1  UNL     1     -21.314 -33.574   0.531  1.00  0.00     0.089 C 
ENDBRANCH  14  15
ENDBRANCH  13  14
ENDBRANCH  12  13
ENDBRANCH   1  11
BRANCH   2  17
HETATM   17  O1  UNL     1     -21.156 -35.614  -3.374  1.00  0.00    -0.390 OA
ATOM     18  H1  UNL     1     -20.501 -35.160  -2.857  1.00  0.00     0.210 HD
ENDBRANCH   2  17
BRANCH  10  19
HETATM   19  C12 UNL     1     -20.343 -32.082  -6.342  1.00  0.00     0.229 C 
BRANCH  19  20
HETATM   20  C13 UNL     1     -20.121 -32.132  -7.781  1.00  0.00     0.237 C 
HETATM   21  O2  UNL     1     -19.863 -33.174  -8.398  1.00  0.00    -0.272 OA
HETATM   22  N3  UNL     1     -20.202 -30.937  -8.540  1.00  0.00    -0.359 N 
HETATM   23  C14 UNL     1     -19.992 -30.925  -9.988  1.00  0.00     0.152 C 
HETATM   24  C15 UNL     1     -20.500 -29.693  -7.872  1.00  0.00     0.152 C 
ENDBRANCH  19  20
ENDBRANCH  10  19
TORSDOF 7
ENDMDL
MODEL 5
REMARK VINA RESULT: -5.577657851      2.347      3.315
REMARK  7 active torsions:
REMARK  status: ('A' for Active; 'I' for Inactive)
REMARK    1  A    between atoms: S1_2  and  C2_3 
REMARK    2  A    between atoms: C2_3  and  C3_4 
REMARK    3  A    between atoms: C3_4  and  C4_5 
REMARK    4  A    between atoms: C5_6  and  C6_7 
REMARK    5  A    between atoms: C7_8  and  O1_9 
REMARK    6  A    between atoms: N2_18  and  C12_19 
REMARK    7  A    between atoms: C12_19  and  C13_20 
REMARK       I    between atoms: C13_20  and  N3_22 
ROOT
HETATM    1  C6  UNL     1     -23.421 -34.689  -4.127  1.00  0.00     0.198 C 
HETATM    2  C7  UNL     1     -22.600 -33.517  -4.522  1.00  0.00     0.180 C 
HETATM    3  C8  UNL     1     -22.346 -33.285  -5.957  1.00  0.00     0.054 C 
HETATM    4  C9  UNL     1     -23.346 -32.389  -6.649  1.00  0.00     0.041 C 
HETATM    5  C10 UNL     1     -20.999 -32.544  -6.061  1.00  0.00     0.041 C 
HETATM    6  N1  UNL     1     -22.155 -34.491  -6.749  1.00  0.00    -0.356 N 
ATOM      7  H1  UNL     1     -21.775 -34.432  -7.694  1.00  0.00     0.162 HD
HETATM    8  C11 UNL     1     -22.504 -35.755  -6.193  1.00  0.00     0.172 C 
HETATM    9  S2  UNL     1     -21.769 -37.114  -6.651  1.00  0.00    -0.041 SA
HETATM   10  N2  UNL     1     -23.495 -35.716  -5.173  1.00  0.00    -0.332 N 
ENDROOT
BRANCH   1  11
HETATM   11  C5  UNL     1     -22.901 -35.321  -2.911  1.00  0.00    -0.078 C 
HETATM   12  C4  UNL     1     -22.482 -35.829  -1.890  1.00  0.00    -0.104 C 
BRANCH  12  13
HETATM   13  C3  UNL     1     -21.966 -36.457  -0.672  1.00  0.00     0.104 C 
BRANCH  13  14
HETATM   14  C2  UNL     1     -22.712 -35.842   0.490  1.00  0.00     0.085 C 
BRANCH  14  15
HETATM   15  S1  UNL     1     -21.520 -34.770   1.373  1.00  0.00    -0.173 SA
HETATM   16  C1  UNL     1     -21.378 -33.164   0.561  1.00  0.00     0.089 C 
ENDBRANCH  14  15
ENDBRANCH  13  14
ENDBRANCH  12  13
ENDBRANCH   1  11
BRANCH   2  17
HETATM   17  O1  UNL     1     -23.171 -32.347  -3.977  1.00  0.00    -0.390 OA
ATOM     18  H1  UNL     1     -22.643 -32.055  -3.243  1.00  0.00     0.210 HD
ENDBRANCH   2  17
BRANCH  10  19
HETATM   19  C12 UNL     1     -24.522 -36.700  -5.062  1.00  0.00     0.229 C 
BRANCH  19  20
HETATM   20  C13 UNL     1     -24.147 -38.092  -4.855  1.00  0.00     0.237 C 
HETATM   21  O2  UNL     1     -23.582 -38.504  -3.835  1.00  0.00    -0.272 OA
HETATM   22  N3  UNL     1     -24.436 -39.048  -5.863  1.00  0.00    -0.359 N 
HETATM   23  C14 UNL     1     -24.087 -40.460  -5.711  1.00  0.00     0.152 C 
HETATM   24  C15 UNL     1     -25.094 -38.622  -7.074  1.00  0.00     0.152 C 
ENDBRANCH  19  20
ENDBRANCH  10  19
TORSDOF 7
ENDMDL
