MODEL 1
REMARK VINA RESULT: -7.941224681      0.000      0.000
REMARK  6 active torsions:
REMARK  status: ('A' for Active; 'I' for Inactive)
REMARK    1  A    between atoms: C2_2  and  C3_3 
REMARK       I    between atoms: C3_3  and  N1_5 
REMARK    2  A    between atoms: N1_5  and  C4_7 
REMARK    3  A    between atoms: C7_12  and  N3_13 
REMARK    4  A    between atoms: N3_13  and  C8_15 
REMARK    5  A    between atoms: C8_15  and  C9_16 
REMARK    6  A    between atoms: C9_16  and  O2_17 
ROOT
HETATM    1  C4  UNL     1     -21.621 -33.840  -2.830  1.00  0.00     0.686 A 
HETATM    2  N2  UNL     1     -22.320 -34.369  -3.828  1.00  0.00    -0.194 N 
ATOM      3  H2  UNL     1     -22.426 -33.858  -4.705  1.00  0.00     0.184 HD
HETATM    4  C5  UNL     1     -22.891 -35.587  -3.680  1.00  0.00     0.041 A 
HETATM    5  C6  UNL     1     -22.763 -36.307  -2.502  1.00  0.00     0.042 A 
HETATM    6  C7  UNL     1     -22.041 -35.732  -1.506  1.00  0.00     0.127 A 
HETATM    7  N4  UNL     1     -21.479 -34.522  -1.666  1.00  0.00    -0.176 N 
ATOM      8  H4  UNL     1     -20.940 -34.111  -0.903  1.00  0.00     0.186 HD
HETATM    9  C11 UNL     1     -23.431 -37.599  -2.504  1.00  0.00     0.258 C 
HETATM   10  C12 UNL     1     -23.376 -38.431  -1.298  1.00  0.00     0.048 C 
HETATM   11  N5  UNL     1     -22.945 -38.271  -3.704  1.00  0.00     0.102 N 
HETATM   12  C13 UNL     1     -23.014 -39.686  -3.622  1.00  0.00     0.311 C 
HETATM   13  C14 UNL     1     -23.572 -37.698  -4.850  1.00  0.00     0.158 C 
HETATM   14  C15 UNL     1     -24.986 -38.250  -5.060  1.00  0.00     0.049 C 
HETATM   15  C16 UNL     1     -22.830 -38.026  -6.142  1.00  0.00     0.049 C 
HETATM   16  C17 UNL     1     -23.685 -36.216  -4.767  1.00  0.00     0.099 C 
ENDROOT
BRANCH   1  17
HETATM   17  N1  UNL     1     -21.046 -32.687  -2.887  1.00  0.00    -0.159 N 
HETATM   18  C3  UNL     1     -21.688 -31.474  -3.144  1.00  0.00     0.235 C 
HETATM   19  O1  UNL     1     -22.340 -31.271  -4.191  1.00  0.00    -0.273 OA
ATOM     20  H1  UNL     1     -20.038 -32.659  -2.731  1.00  0.00     0.187 HD
BRANCH  18  21
HETATM   21  C2  UNL     1     -21.594 -30.387  -2.141  1.00  0.00     0.099 C 
HETATM   22  C1  UNL     1     -20.908 -30.858  -0.883  1.00  0.00     0.014 C 
ENDBRANCH  18  21
ENDBRANCH   1  17
BRANCH   6  23
HETATM   23  N3  UNL     1     -21.906 -36.369  -0.410  1.00  0.00    -0.373 N 
ATOM     24  H3  UNL     1     -21.967 -37.387  -0.407  1.00  0.00     0.161 HD
BRANCH  23  25
HETATM   25  C8  UNL     1     -21.665 -35.660   0.830  1.00  0.00     0.147 C 
BRANCH  25  26
HETATM   26  C9  UNL     1     -22.888 -35.681   1.717  1.00  0.00     0.186 C 
BRANCH  26  27
HETATM   27  O2  UNL     1     -22.856 -34.580   2.556  1.00  0.00    -0.394 OA
HETATM   28  C10 UNL     1     -22.186 -33.535   1.918  1.00  0.00     0.201 C 
ENDBRANCH  26  27
ENDBRANCH  25  26
ENDBRANCH  23  25
ENDBRANCH   6  23
TORSDOF 6
ENDMDL
MODEL 2
REMARK VINA RESULT: -7.491739392      2.745      5.499
REMARK  6 active torsions:
REMARK  status: ('A' for Active; 'I' for Inactive)
REMARK    1  A    between atoms: C2_2  and  C3_3 
REMARK       I    between atoms: C3_3  and  N1_5 
REMARK    2  A    between atoms: N1_5  and  C4_7 
REMARK    3  A    between atoms: C7_12  and  N3_13 
REMARK    4  A    between atoms: N3_13  and  C8_15 
REMARK    5  A    between atoms: C8_15  and  C9_16 
REMARK    6  A    between atoms: C9_16  and  O2_17 
ROOT
HETATM    1  C4  UNL     1     -21.632 -36.019  -0.845  1.00  0.00     0.686 A 
HETATM    2  N2  UNL     1     -21.494 -35.816  -2.150  1.00  0.00    -0.194 N 
ATOM      3  H2  UNL     1     -21.499 -36.607  -2.794  1.00  0.00     0.184 HD
HETATM    4  C5  UNL     1     -21.348 -34.557  -2.624  1.00  0.00     0.041 A 
HETATM    5  C6  UNL     1     -21.340 -33.460  -1.775  1.00  0.00     0.042 A 
HETATM    6  C7  UNL     1     -21.484 -33.711  -0.448  1.00  0.00     0.127 A 
HETATM    7  N4  UNL     1     -21.628 -34.966   0.010  1.00  0.00    -0.176 N 
ATOM      8  H4  UNL     1     -21.736 -35.128   1.012  1.00  0.00     0.186 HD
HETATM    9  C11 UNL     1     -21.179 -32.177  -2.440  1.00  0.00     0.258 C 
HETATM   10  C12 UNL     1     -21.135 -30.956  -1.631  1.00  0.00     0.048 C 
HETATM   11  N5  UNL     1     -22.206 -32.160  -3.475  1.00  0.00     0.102 N 
HETATM   12  C13 UNL     1     -22.593 -30.850  -3.859  1.00  0.00     0.311 C 
HETATM   13  C14 UNL     1     -21.809 -33.014  -4.547  1.00  0.00     0.158 C 
HETATM   14  C15 UNL     1     -20.799 -32.330  -5.474  1.00  0.00     0.049 C 
HETATM   15  C16 UNL     1     -22.977 -33.390  -5.453  1.00  0.00     0.049 C 
HETATM   16  C17 UNL     1     -21.186 -34.281  -4.075  1.00  0.00     0.099 C 
ENDROOT
BRANCH   1  17
HETATM   17  N1  UNL     1     -21.776 -37.184  -0.310  1.00  0.00    -0.159 N 
HETATM   18  C3  UNL     1     -22.833 -37.570   0.518  1.00  0.00     0.235 C 
HETATM   19  O1  UNL     1     -23.097 -36.976   1.586  1.00  0.00    -0.273 OA
ATOM     20  H1  UNL     1     -21.058 -37.882  -0.507  1.00  0.00     0.187 HD
BRANCH  18  21
HETATM   21  C2  UNL     1     -23.672 -38.723   0.116  1.00  0.00     0.099 C 
HETATM   22  C1  UNL     1     -23.416 -39.118  -1.316  1.00  0.00     0.014 C 
ENDBRANCH  18  21
ENDBRANCH   1  17
BRANCH   6  23
HETATM   23  N3  UNL     1     -21.481 -32.723   0.359  1.00  0.00    -0.373 N 
ATOM     24  H3  UNL     1     -21.217 -31.798   0.023  1.00  0.00     0.161 HD
BRANCH  23  25
HETATM   25  C8  UNL     1     -21.850 -32.906   1.748  1.00  0.00     0.147 C 
BRANCH  25  26
HETATM   26  C9  UNL     1     -21.524 -31.677   2.565  1.00  0.00     0.186 C 
BRANCH  26  27
HETATM   27  O2  UNL     1     -22.418 -31.587   3.619  1.00  0.00    -0.394 OA
HETATM   28  C10 UNL     1     -21.846 -30.836   4.645  1.00  0.00     0.201 C 
ENDBRANCH  26  27
ENDBRANCH  25  26
ENDBRANCH  23  25
ENDBRANCH   6  23
TORSDOF 6
ENDMDL
MODEL 3
REMARK VINA RESULT: -7.368073750      1.514      4.621
REMARK  6 active torsions:
REMARK  status: ('A' for Active; 'I' for Inactive)
REMARK    1  A    between atoms: C2_2  and  C3_3 
REMARK       I    between atoms: C3_3  and  N1_5 
REMARK    2  A    between atoms: N1_5  and  C4_7 
REMARK    3  A    between atoms: C7_12  and  N3_13 
REMARK    4  A    between atoms: N3_13  and  C8_15 
REMARK    5  A    between atoms: C8_15  and  C9_16 
REMARK    6  A    between atoms: C9_16  and  O2_17 
ROOT
HETATM    1  C4  UNL     1     -22.316 -35.421  -0.591  1.00  0.00     0.686 A 
HETATM    2  N2  UNL     1     -22.552 -36.351  -1.510  1.00  0.00    -0.194 N 
ATOM      3  H2  UNL     1     -22.999 -37.229  -1.246  1.00  0.00     0.184 HD
HETATM    4  C5  UNL     1     -22.198 -36.130  -2.798  1.00  0.00     0.041 A 
HETATM    5  C6  UNL     1     -21.590 -34.946  -3.189  1.00  0.00     0.042 A 
HETATM    6  C7  UNL     1     -21.368 -34.022  -2.219  1.00  0.00     0.127 A 
HETATM    7  N4  UNL     1     -21.724 -34.253  -0.944  1.00  0.00    -0.176 N 
ATOM      8  H4  UNL     1     -21.547 -33.542  -0.234  1.00  0.00     0.186 HD
HETATM    9  C11 UNL     1     -21.277 -34.863  -4.606  1.00  0.00     0.258 C 
HETATM   10  C12 UNL     1     -20.613 -33.662  -5.119  1.00  0.00     0.048 C 
HETATM   11  N5  UNL     1     -22.528 -35.180  -5.286  1.00  0.00     0.102 N 
HETATM   12  C13 UNL     1     -22.609 -34.635  -6.594  1.00  0.00     0.311 C 
HETATM   13  C14 UNL     1     -22.770 -36.583  -5.197  1.00  0.00     0.158 C 
HETATM   14  C15 UNL     1     -21.957 -37.367  -6.233  1.00  0.00     0.049 C 
HETATM   15  C16 UNL     1     -24.224 -36.940  -5.491  1.00  0.00     0.049 C 
HETATM   16  C17 UNL     1     -22.437 -37.142  -3.859  1.00  0.00     0.099 C 
ENDROOT
BRANCH   1  17
HETATM   17  N1  UNL     1     -22.621 -35.549   0.656  1.00  0.00    -0.159 N 
HETATM   18  C3  UNL     1     -21.966 -34.921   1.718  1.00  0.00     0.235 C 
HETATM   19  O1  UNL     1     -20.744 -35.076   1.934  1.00  0.00    -0.273 OA
ATOM     20  H1  UNL     1     -23.406 -36.159   0.886  1.00  0.00     0.187 HD
BRANCH  18  21
HETATM   21  C2  UNL     1     -22.744 -34.041   2.620  1.00  0.00     0.099 C 
HETATM   22  C1  UNL     1     -22.242 -32.620   2.570  1.00  0.00     0.014 C 
ENDBRANCH  18  21
ENDBRANCH   1  17
BRANCH   6  23
HETATM   23  N3  UNL     1     -20.811 -32.923  -2.547  1.00  0.00    -0.373 N 
ATOM     24  H3  UNL     1     -20.153 -32.902  -3.326  1.00  0.00     0.161 HD
BRANCH  23  25
HETATM   25  C8  UNL     1     -21.105 -31.703  -1.823  1.00  0.00     0.147 C 
BRANCH  25  26
HETATM   26  C9  UNL     1     -21.659 -30.641  -2.744  1.00  0.00     0.186 C 
BRANCH  26  27
HETATM   27  O2  UNL     1     -22.661 -31.198  -3.522  1.00  0.00    -0.394 OA
HETATM   28  C10 UNL     1     -22.742 -30.507  -4.731  1.00  0.00     0.201 C 
ENDBRANCH  26  27
ENDBRANCH  25  26
ENDBRANCH  23  25
ENDBRANCH   6  23
TORSDOF 6
ENDMDL
MODEL 4
REMARK VINA RESULT: -7.310512255      1.331      4.130
REMARK  6 active torsions:
REMARK  status: ('A' for Active; 'I' for Inactive)
REMARK    1  A    between atoms: C2_2  and  C3_3 
REMARK       I    between atoms: C3_3  and  N1_5 
REMARK    2  A    between atoms: N1_5  and  C4_7 
REMARK    3  A    between atoms: C7_12  and  N3_13 
REMARK    4  A    between atoms: N3_13  and  C8_15 
REMARK    5  A    between atoms: C8_15  and  C9_16 
REMARK    6  A    between atoms: C9_16  and  O2_17 
ROOT
HETATM    1  C4  UNL     1     -22.554 -36.018  -0.401  1.00  0.00     0.686 A 
HETATM    2  N2  UNL     1     -22.971 -37.109  -1.034  1.00  0.00    -0.194 N 
ATOM      3  H2  UNL     1     -23.399 -37.872  -0.509  1.00  0.00     0.184 HD
HETATM    4  C5  UNL     1     -22.828 -37.205  -2.376  1.00  0.00     0.041 A 
HETATM    5  C6  UNL     1     -22.252 -36.184  -3.118  1.00  0.00     0.042 A 
HETATM    6  C7  UNL     1     -21.839 -35.087  -2.433  1.00  0.00     0.127 A 
HETATM    7  N4  UNL     1     -21.987 -35.003  -1.100  1.00  0.00    -0.176 N 
ATOM      8  H4  UNL     1     -21.670 -34.167  -0.609  1.00  0.00     0.186 HD
HETATM    9  C11 UNL     1     -22.175 -36.440  -4.547  1.00  0.00     0.258 C 
HETATM   10  C12 UNL     1     -21.563 -35.433  -5.419  1.00  0.00     0.048 C 
HETATM   11  N5  UNL     1     -23.532 -36.808  -4.936  1.00  0.00     0.102 N 
HETATM   12  C13 UNL     1     -23.809 -36.562  -6.306  1.00  0.00     0.311 C 
HETATM   13  C14 UNL     1     -23.805 -38.135  -4.490  1.00  0.00     0.158 C 
HETATM   14  C15 UNL     1     -23.203 -39.186  -5.429  1.00  0.00     0.049 C 
HETATM   15  C16 UNL     1     -25.300 -38.443  -4.468  1.00  0.00     0.049 C 
HETATM   16  C17 UNL     1     -23.275 -38.407  -3.126  1.00  0.00     0.099 C 
ENDROOT
BRANCH   1  17
HETATM   17  N1  UNL     1     -22.652 -35.845   0.873  1.00  0.00    -0.159 N 
HETATM   18  C3  UNL     1     -21.894 -34.946   1.628  1.00  0.00     0.235 C 
HETATM   19  O1  UNL     1     -20.646 -34.991   1.666  1.00  0.00    -0.273 OA
ATOM     20  H1  UNL     1     -23.339 -36.410   1.371  1.00  0.00     0.187 HD
BRANCH  18  21
HETATM   21  C2  UNL     1     -22.594 -33.902   2.413  1.00  0.00     0.099 C 
HETATM   22  C1  UNL     1     -22.018 -32.535   2.146  1.00  0.00     0.014 C 
ENDBRANCH  18  21
ENDBRANCH   1  17
BRANCH   6  23
HETATM   23  N3  UNL     1     -21.305 -34.131  -3.087  1.00  0.00    -0.373 N 
ATOM     24  H3  UNL     1     -21.050 -34.268  -4.064  1.00  0.00     0.161 HD
BRANCH  23  25
HETATM   25  C8  UNL     1     -21.059 -32.852  -2.452  1.00  0.00     0.147 C 
BRANCH  25  26
HETATM   26  C9  UNL     1     -21.617 -31.716  -3.278  1.00  0.00     0.186 C 
BRANCH  26  27
HETATM   27  O2  UNL     1     -21.586 -30.554  -2.525  1.00  0.00    -0.394 OA
HETATM   28  C10 UNL     1     -21.124 -30.849  -1.242  1.00  0.00     0.201 C 
ENDBRANCH  26  27
ENDBRANCH  25  26
ENDBRANCH  23  25
ENDBRANCH   6  23
TORSDOF 6
ENDMDL
MODEL 5
REMARK VINA RESULT: -7.222562784      1.004      1.248
REMARK  6 active torsions:
REMARK  status: ('A' for Active; 'I' for Inactive)
REMARK    1  A    between atoms: C2_2  and  C3_3 
REMARK       I    between atoms: C3_3  and  N1_5 
REMARK    2  A    between atoms: N1_5  and  C4_7 
REMARK    3  A    between atoms: C7_12  and  N3_13 
REMARK    4  A    between atoms: N3_13  and  C8_15 
REMARK    5  A    between atoms: C8_15  and  C9_16 
REMARK    6  A    between atoms: C9_16  and  O2_17 
ROOT
HETATM    1  C4  UNL     1     -21.924 -33.957  -3.029  1.00  0.00     0.686 A 
HETATM    2  N2  UNL     1     -22.606 -34.546  -4.005  1.00  0.00    -0.194 N 
ATOM      3  H2  UNL     1     -22.761 -34.057  -4.887  1.00  0.00     0.184 HD
HETATM    4  C5  UNL     1     -23.094 -35.796  -3.827  1.00  0.00     0.041 A 
HETATM    5  C6  UNL     1     -22.898 -36.487  -2.641  1.00  0.00     0.042 A 
HETATM    6  C7  UNL     1     -22.195 -35.851  -1.669  1.00  0.00     0.127 A 
HETATM    7  N4  UNL     1     -21.716 -34.610  -1.858  1.00  0.00    -0.176 N 
ATOM      8  H4  UNL     1     -21.190 -34.153  -1.112  1.00  0.00     0.186 HD
HETATM    9  C11 UNL     1     -23.480 -37.819  -2.611  1.00  0.00     0.258 C 
HETATM   10  C12 UNL     1     -23.350 -38.626  -1.395  1.00  0.00     0.048 C 
HETATM   11  N5  UNL     1     -22.975 -38.477  -3.811  1.00  0.00     0.102 N 
HETATM   12  C13 UNL     1     -22.951 -39.892  -3.706  1.00  0.00     0.311 C 
HETATM   13  C14 UNL     1     -23.660 -37.964  -4.952  1.00  0.00     0.158 C 
HETATM   14  C15 UNL     1     -25.039 -38.609  -5.126  1.00  0.00     0.049 C 
HETATM   15  C16 UNL     1     -22.923 -38.265  -6.254  1.00  0.00     0.049 C 
HETATM   16  C17 UNL     1     -23.866 -36.491  -4.888  1.00  0.00     0.099 C 
ENDROOT
BRANCH   1  17
HETATM   17  N1  UNL     1     -21.425 -32.771  -3.114  1.00  0.00    -0.159 N 
HETATM   18  C3  UNL     1     -21.739 -31.829  -4.097  1.00  0.00     0.235 C 
HETATM   19  O1  UNL     1     -21.576 -32.055  -5.315  1.00  0.00    -0.273 OA
ATOM     20  H1  UNL     1     -20.744 -32.497  -2.405  1.00  0.00     0.187 HD
BRANCH  18  21
HETATM   21  C2  UNL     1     -22.286 -30.517  -3.682  1.00  0.00     0.099 C 
HETATM   22  C1  UNL     1     -22.763 -29.719  -4.870  1.00  0.00     0.014 C 
ENDBRANCH  18  21
ENDBRANCH   1  17
BRANCH   6  23
HETATM   23  N3  UNL     1     -21.998 -36.461  -0.567  1.00  0.00    -0.373 N 
ATOM     24  H3  UNL     1     -21.420 -37.300  -0.550  1.00  0.00     0.161 HD
BRANCH  23  25
HETATM   25  C8  UNL     1     -22.589 -35.971   0.662  1.00  0.00     0.147 C 
BRANCH  25  26
HETATM   26  C9  UNL     1     -21.652 -35.029   1.381  1.00  0.00     0.186 C 
BRANCH  26  27
HETATM   27  O2  UNL     1     -22.056 -33.725   1.144  1.00  0.00    -0.394 OA
HETATM   28  C10 UNL     1     -20.949 -32.880   1.218  1.00  0.00     0.201 C 
ENDBRANCH  26  27
ENDBRANCH  25  26
ENDBRANCH  23  25
ENDBRANCH   6  23
TORSDOF 6
ENDMDL
