MODEL 1
REMARK VINA RESULT: -8.573788205      0.000      0.000
REMARK  5 active torsions:
REMARK  status: ('A' for Active; 'I' for Inactive)
REMARK    1  A    between atoms: C2_2  and  N1_3 
REMARK       I    between atoms: N1_3  and  C3_5 
REMARK       I    between atoms: C3_5  and  N2_7 
REMARK    2  A    between atoms: C8_15  and  N5_16 
REMARK       I    between atoms: N5_16  and  C9_18 
REMARK    3  A    between atoms: C9_18  and  C10_20 
REMARK    4  A    between atoms: C10_20  and  C11_21 
REMARK    5  A    between atoms: C14_24  and  C15_25 
ROOT
HETATM    1  C15 UNL     1     -23.075 -38.353  -4.547  1.00  0.00     0.136 C 
HETATM    2  C16 UNL     1     -24.369 -37.927  -5.016  1.00  0.00     0.059 C 
HETATM    3  N6  UNL     1     -25.388 -37.594  -5.402  1.00  0.00    -0.197 NA
ENDROOT
BRANCH   1   4
HETATM    4  C14 UNL     1     -22.334 -37.170  -3.961  1.00  0.00     0.069 C 
HETATM    5  C6  UNL     1     -22.575 -37.089  -2.481  1.00  0.00     0.044 A 
HETATM    6  C5  UNL     1     -22.563 -35.905  -1.821  1.00  0.00     0.030 A 
HETATM    7  N3  UNL     1     -22.827 -38.032  -1.592  1.00  0.00    -0.300 N 
HETATM    8  C4  UNL     1     -22.312 -34.632  -2.478  1.00  0.00     0.172 C 
HETATM    9  C8  UNL     1     -22.831 -36.212  -0.459  1.00  0.00     0.134 A 
HETATM   10  N2  UNL     1     -22.569 -34.700  -3.893  1.00  0.00    -0.329 N 
HETATM   11  C3  UNL     1     -22.625 -33.477  -4.604  1.00  0.00     0.318 C 
HETATM   12  C17 UNL     1     -22.770 -35.900  -4.632  1.00  0.00     0.139 C 
HETATM   13  N1  UNL     1     -22.426 -32.246  -3.927  1.00  0.00    -0.343 N 
HETATM   14  O1  UNL     1     -22.849 -33.474  -5.832  1.00  0.00    -0.247 OA
ATOM     15  H1  UNL     1     -22.244 -32.263  -2.924  1.00  0.00     0.164 HD
HETATM   16  N4  UNL     1     -22.986 -37.533  -0.355  1.00  0.00    -0.280 N 
HETATM   17  C7  UNL     1     -23.275 -38.338   0.837  1.00  0.00     0.179 C 
ATOM     18  H3  UNL     1     -22.894 -39.025  -1.817  1.00  0.00     0.187 HD
BRANCH  13  19
HETATM   19  C2  UNL     1     -22.472 -30.969  -4.601  1.00  0.00     0.120 C 
HETATM   20  C1  UNL     1     -22.300 -29.864  -3.602  1.00  0.00     0.026 C 
ENDBRANCH  13  19
BRANCH   9  21
HETATM   21  N5  UNL     1     -22.892 -35.316   0.450  1.00  0.00    -0.311 N 
HETATM   22  C9  UNL     1     -21.997 -34.883   1.400  1.00  0.00     0.223 C 
HETATM   23  O2  UNL     1     -22.028 -35.422   2.557  1.00  0.00    -0.273 OA
ATOM     24  H5  UNL     1     -23.785 -34.823   0.476  1.00  0.00     0.170 HD
BRANCH  22  25
HETATM   25  C10 UNL     1     -21.020 -33.814   1.084  1.00  0.00     0.107 C 
BRANCH  25  26
HETATM   26  C11 UNL     1     -21.619 -32.447   1.109  1.00  0.00    -0.014 C 
HETATM   27  C12 UNL     1     -21.449 -31.750   2.434  1.00  0.00     0.010 C 
HETATM   28  C13 UNL     1     -21.150 -31.566  -0.016  1.00  0.00     0.010 C 
ENDBRANCH  25  26
ENDBRANCH  22  25
ENDBRANCH   9  21
ENDBRANCH   1   4
TORSDOF 5
ENDMDL
MODEL 2
REMARK VINA RESULT: -8.428021621      1.762      7.345
REMARK  5 active torsions:
REMARK  status: ('A' for Active; 'I' for Inactive)
REMARK    1  A    between atoms: C2_2  and  N1_3 
REMARK       I    between atoms: N1_3  and  C3_5 
REMARK       I    between atoms: C3_5  and  N2_7 
REMARK    2  A    between atoms: C8_15  and  N5_16 
REMARK       I    between atoms: N5_16  and  C9_18 
REMARK    3  A    between atoms: C9_18  and  C10_20 
REMARK    4  A    between atoms: C10_20  and  C11_21 
REMARK    5  A    between atoms: C14_24  and  C15_25 
ROOT
HETATM    1  C15 UNL     1     -21.123 -31.175  -1.197  1.00  0.00     0.136 C 
HETATM    2  C16 UNL     1     -21.178 -31.205   0.243  1.00  0.00     0.059 C 
HETATM    3  N6  UNL     1     -21.208 -31.220   1.382  1.00  0.00    -0.197 NA
ENDROOT
BRANCH   1   4
HETATM    4  C14 UNL     1     -20.921 -32.580  -1.725  1.00  0.00     0.069 C 
HETATM    5  C6  UNL     1     -21.547 -32.718  -3.083  1.00  0.00     0.044 A 
HETATM    6  C5  UNL     1     -22.038 -33.901  -3.525  1.00  0.00     0.030 A 
HETATM    7  N3  UNL     1     -21.744 -31.829  -4.040  1.00  0.00    -0.300 N 
HETATM    8  C4  UNL     1     -21.993 -35.123  -2.736  1.00  0.00     0.172 C 
HETATM    9  C8  UNL     1     -22.549 -33.654  -4.827  1.00  0.00     0.134 A 
HETATM   10  N2  UNL     1     -21.849 -34.848  -1.330  1.00  0.00    -0.329 N 
HETATM   11  C3  UNL     1     -22.061 -35.921  -0.431  1.00  0.00     0.318 C 
HETATM   12  C17 UNL     1     -21.507 -33.582  -0.774  1.00  0.00     0.139 C 
HETATM   13  N1  UNL     1     -22.396 -37.209  -0.921  1.00  0.00    -0.343 N 
HETATM   14  O1  UNL     1     -21.953 -35.741   0.799  1.00  0.00    -0.247 OA
ATOM     15  H1  UNL     1     -22.481 -37.343  -1.929  1.00  0.00     0.164 HD
HETATM   16  N4  UNL     1     -22.350 -32.366  -5.113  1.00  0.00    -0.280 N 
HETATM   17  C7  UNL     1     -22.698 -31.624  -6.330  1.00  0.00     0.179 C 
ATOM     18  H3  UNL     1     -21.469 -30.849  -3.973  1.00  0.00     0.187 HD
BRANCH  13  19
HETATM   19  C2  UNL     1     -22.624 -38.340  -0.052  1.00  0.00     0.120 C 
HETATM   20  C1  UNL     1     -23.826 -39.104  -0.519  1.00  0.00     0.026 C 
ENDBRANCH  13  19
BRANCH   9  21
HETATM   21  N5  UNL     1     -23.092 -34.566  -5.540  1.00  0.00    -0.311 N 
HETATM   22  C9  UNL     1     -22.577 -35.593  -6.296  1.00  0.00     0.223 C 
HETATM   23  O2  UNL     1     -22.352 -35.385  -7.534  1.00  0.00    -0.273 OA
ATOM     24  H5  UNL     1     -24.111 -34.523  -5.550  1.00  0.00     0.170 HD
BRANCH  22  25
HETATM   25  C10 UNL     1     -22.292 -36.912  -5.681  1.00  0.00     0.107 C 
BRANCH  25  26
HETATM   26  C11 UNL     1     -23.484 -37.519  -5.020  1.00  0.00    -0.014 C 
HETATM   27  C12 UNL     1     -24.591 -37.855  -5.986  1.00  0.00     0.010 C 
HETATM   28  C13 UNL     1     -23.152 -38.710  -4.162  1.00  0.00     0.010 C 
ENDBRANCH  25  26
ENDBRANCH  22  25
ENDBRANCH   9  21
ENDBRANCH   1   4
TORSDOF 5
ENDMDL
MODEL 3
REMARK VINA RESULT: -8.116271383      2.077      5.356
REMARK  5 active torsions:
REMARK  status: ('A' for Active; 'I' for Inactive)
REMARK    1  A    between atoms: C2_2  and  N1_3 
REMARK       I    between atoms: N1_3  and  C3_5 
REMARK       I    between atoms: C3_5  and  N2_7 
REMARK    2  A    between atoms: C8_15  and  N5_16 
REMARK       I    between atoms: N5_16  and  C9_18 
REMARK    3  A    between atoms: C9_18  and  C10_20 
REMARK    4  A    between atoms: C10_20  and  C11_21 
REMARK    5  A    between atoms: C14_24  and  C15_25 
ROOT
HETATM    1  C15 UNL     1     -23.748 -38.958  -5.791  1.00  0.00     0.136 C 
HETATM    2  C16 UNL     1     -24.807 -39.009  -6.767  1.00  0.00     0.059 C 
HETATM    3  N6  UNL     1     -25.633 -39.047  -7.551  1.00  0.00    -0.197 NA
ENDROOT
BRANCH   1   4
HETATM    4  C14 UNL     1     -23.901 -37.713  -4.943  1.00  0.00     0.069 C 
HETATM    5  C6  UNL     1     -23.176 -36.561  -5.579  1.00  0.00     0.044 A 
HETATM    6  C5  UNL     1     -22.646 -35.557  -4.839  1.00  0.00     0.030 A 
HETATM    7  N3  UNL     1     -22.917 -36.295  -6.846  1.00  0.00    -0.300 N 
HETATM    8  C4  UNL     1     -22.738 -35.506  -3.388  1.00  0.00     0.172 C 
HETATM    9  C8  UNL     1     -22.042 -34.663  -5.764  1.00  0.00     0.134 A 
HETATM   10  N2  UNL     1     -22.987 -36.806  -2.822  1.00  0.00    -0.329 N 
HETATM   11  C3  UNL     1     -22.833 -36.946  -1.421  1.00  0.00     0.318 C 
HETATM   12  C17 UNL     1     -23.378 -37.960  -3.559  1.00  0.00     0.139 C 
HETATM   13  N1  UNL     1     -22.453 -35.833  -0.628  1.00  0.00    -0.343 N 
HETATM   14  O1  UNL     1     -23.032 -38.050  -0.874  1.00  0.00    -0.247 OA
ATOM     15  H1  UNL     1     -22.294 -34.936  -1.087  1.00  0.00     0.164 HD
HETATM   16  N4  UNL     1     -22.231 -35.149  -6.993  1.00  0.00    -0.280 N 
HETATM   17  C7  UNL     1     -21.800 -34.595  -8.282  1.00  0.00     0.179 C 
ATOM     18  H3  UNL     1     -23.203 -36.890  -7.624  1.00  0.00     0.187 HD
BRANCH  13  19
HETATM   19  C2  UNL     1     -22.281 -35.917   0.804  1.00  0.00     0.120 C 
HETATM   20  C1  UNL     1     -22.189 -34.538   1.385  1.00  0.00     0.026 C 
ENDBRANCH  13  19
BRANCH   9  21
HETATM   21  N5  UNL     1     -21.443 -33.595  -5.400  1.00  0.00    -0.311 N 
HETATM   22  C9  UNL     1     -21.852 -32.288  -5.276  1.00  0.00     0.223 C 
HETATM   23  O2  UNL     1     -21.694 -31.503  -6.270  1.00  0.00    -0.273 OA
ATOM     24  H5  UNL     1     -20.464 -33.741  -5.152  1.00  0.00     0.170 HD
BRANCH  22  25
HETATM   25  C10 UNL     1     -22.461 -31.805  -4.014  1.00  0.00     0.107 C 
BRANCH  25  26
HETATM   26  C11 UNL     1     -21.450 -31.423  -2.985  1.00  0.00    -0.014 C 
HETATM   27  C12 UNL     1     -21.780 -30.132  -2.280  1.00  0.00     0.010 C 
HETATM   28  C13 UNL     1     -21.169 -32.513  -1.987  1.00  0.00     0.010 C 
ENDBRANCH  25  26
ENDBRANCH  22  25
ENDBRANCH   9  21
ENDBRANCH   1   4
TORSDOF 5
ENDMDL
MODEL 4
REMARK VINA RESULT: -7.743693284      2.244      5.560
REMARK  5 active torsions:
REMARK  status: ('A' for Active; 'I' for Inactive)
REMARK    1  A    between atoms: C2_2  and  N1_3 
REMARK       I    between atoms: N1_3  and  C3_5 
REMARK       I    between atoms: C3_5  and  N2_7 
REMARK    2  A    between atoms: C8_15  and  N5_16 
REMARK       I    between atoms: N5_16  and  C9_18 
REMARK    3  A    between atoms: C9_18  and  C10_20 
REMARK    4  A    between atoms: C10_20  and  C11_21 
REMARK    5  A    between atoms: C14_24  and  C15_25 
ROOT
HETATM    1  C15 UNL     1     -21.917 -30.823  -6.244  1.00  0.00     0.136 C 
HETATM    2  C16 UNL     1     -22.112 -30.829  -7.671  1.00  0.00     0.059 C 
HETATM    3  N6  UNL     1     -22.275 -30.820  -8.799  1.00  0.00    -0.197 NA
ENDROOT
BRANCH   1   4
HETATM    4  C14 UNL     1     -22.518 -32.077  -5.646  1.00  0.00     0.069 C 
HETATM    5  C6  UNL     1     -22.058 -32.247  -4.227  1.00  0.00     0.044 A 
HETATM    6  C5  UNL     1     -21.928 -33.472  -3.661  1.00  0.00     0.030 A 
HETATM    7  N3  UNL     1     -21.712 -31.355  -3.316  1.00  0.00    -0.300 N 
HETATM    8  C4  UNL     1     -22.228 -34.708  -4.368  1.00  0.00     0.172 C 
HETATM    9  C8  UNL     1     -21.474 -33.246  -2.333  1.00  0.00     0.134 A 
HETATM   10  N2  UNL     1     -22.185 -34.532  -5.795  1.00  0.00    -0.329 N 
HETATM   11  C3  UNL     1     -22.190 -35.700  -6.596  1.00  0.00     0.318 C 
HETATM   12  C17 UNL     1     -22.140 -33.276  -6.465  1.00  0.00     0.139 C 
HETATM   13  N1  UNL     1     -22.241 -36.982  -5.991  1.00  0.00    -0.343 N 
HETATM   14  O1  UNL     1     -22.151 -35.609  -7.840  1.00  0.00    -0.247 OA
ATOM     15  H1  UNL     1     -22.274 -37.042  -4.973  1.00  0.00     0.164 HD
HETATM   16  N4  UNL     1     -21.353 -31.929  -2.156  1.00  0.00    -0.280 N 
HETATM   17  C7  UNL     1     -20.920 -31.194  -0.962  1.00  0.00     0.179 C 
ATOM     18  H3  UNL     1     -21.716 -30.348  -3.475  1.00  0.00     0.187 HD
BRANCH  13  19
HETATM   19  C2  UNL     1     -22.249 -38.207  -6.756  1.00  0.00     0.120 C 
HETATM   20  C1  UNL     1     -23.109 -39.226  -6.072  1.00  0.00     0.026 C 
ENDBRANCH  13  19
BRANCH   9  21
HETATM   21  N5  UNL     1     -21.245 -34.198  -1.512  1.00  0.00    -0.311 N 
HETATM   22  C9  UNL     1     -21.916 -34.660  -0.404  1.00  0.00     0.223 C 
HETATM   23  O2  UNL     1     -21.596 -34.195   0.740  1.00  0.00    -0.273 OA
ATOM     24  H5  UNL     1     -20.393 -34.720  -1.720  1.00  0.00     0.170 HD
BRANCH  22  25
HETATM   25  C10 UNL     1     -22.988 -35.676  -0.540  1.00  0.00     0.107 C 
BRANCH  25  26
HETATM   26  C11 UNL     1     -22.473 -37.017  -0.946  1.00  0.00    -0.014 C 
HETATM   27  C12 UNL     1     -22.621 -38.059   0.132  1.00  0.00     0.010 C 
HETATM   28  C13 UNL     1     -23.051 -37.514  -2.243  1.00  0.00     0.010 C 
ENDBRANCH  25  26
ENDBRANCH  22  25
ENDBRANCH   9  21
ENDBRANCH   1   4
TORSDOF 5
ENDMDL
MODEL 5
REMARK VINA RESULT: -7.661154685      2.494      5.889
REMARK  5 active torsions:
REMARK  status: ('A' for Active; 'I' for Inactive)
REMARK    1  A    between atoms: C2_2  and  N1_3 
REMARK       I    between atoms: N1_3  and  C3_5 
REMARK       I    between atoms: C3_5  and  N2_7 
REMARK    2  A    between atoms: C8_15  and  N5_16 
REMARK       I    between atoms: N5_16  and  C9_18 
REMARK    3  A    between atoms: C9_18  and  C10_20 
REMARK    4  A    between atoms: C10_20  and  C11_21 
REMARK    5  A    between atoms: C14_24  and  C15_25 
ROOT
HETATM    1  C15 UNL     1     -25.056 -39.154  -6.172  1.00  0.00     0.136 C 
HETATM    2  C16 UNL     1     -24.059 -40.158  -5.897  1.00  0.00     0.059 C 
HETATM    3  N6  UNL     1     -23.282 -40.961  -5.674  1.00  0.00    -0.197 NA
ENDROOT
BRANCH   1   4
HETATM    4  C14 UNL     1     -24.736 -37.896  -5.392  1.00  0.00     0.069 C 
HETATM    5  C6  UNL     1     -23.784 -37.033  -6.169  1.00  0.00     0.044 A 
HETATM    6  C5  UNL     1     -22.899 -36.212  -5.551  1.00  0.00     0.030 A 
HETATM    7  N3  UNL     1     -23.608 -36.892  -7.470  1.00  0.00    -0.300 N 
HETATM    8  C4  UNL     1     -22.803 -36.094  -4.105  1.00  0.00     0.172 C 
HETATM    9  C8  UNL     1     -22.173 -35.566  -6.588  1.00  0.00     0.134 A 
HETATM   10  N2  UNL     1     -23.354 -37.244  -3.436  1.00  0.00    -0.329 N 
HETATM   11  C3  UNL     1     -23.086 -37.383  -2.053  1.00  0.00     0.318 C 
HETATM   12  C17 UNL     1     -24.150 -38.249  -4.056  1.00  0.00     0.139 C 
HETATM   13  N1  UNL     1     -22.306 -36.412  -1.373  1.00  0.00    -0.343 N 
HETATM   14  O1  UNL     1     -23.535 -38.361  -1.421  1.00  0.00    -0.247 OA
ATOM     15  H1  UNL     1     -21.945 -35.617  -1.901  1.00  0.00     0.164 HD
HETATM   16  N4  UNL     1     -22.638 -36.009  -7.757  1.00  0.00    -0.280 N 
HETATM   17  C7  UNL     1     -22.217 -35.646  -9.116  1.00  0.00     0.179 C 
ATOM     18  H3  UNL     1     -24.145 -37.396  -8.176  1.00  0.00     0.187 HD
BRANCH  13  19
HETATM   19  C2  UNL     1     -22.000 -36.503   0.035  1.00  0.00     0.120 C 
HETATM   20  C1  UNL     1     -22.733 -35.430   0.782  1.00  0.00     0.026 C 
ENDBRANCH  13  19
BRANCH   9  21
HETATM   21  N5  UNL     1     -21.247 -34.716  -6.354  1.00  0.00    -0.311 N 
HETATM   22  C9  UNL     1     -21.196 -33.344  -6.431  1.00  0.00     0.223 C 
HETATM   23  O2  UNL     1     -20.795 -32.810  -7.519  1.00  0.00    -0.273 OA
ATOM     24  H5  UNL     1     -20.371 -35.140  -6.049  1.00  0.00     0.170 HD
BRANCH  22  25
HETATM   25  C10 UNL     1     -21.597 -32.507  -5.275  1.00  0.00     0.107 C 
BRANCH  25  26
HETATM   26  C11 UNL     1     -21.135 -33.059  -3.967  1.00  0.00    -0.014 C 
HETATM   27  C12 UNL     1     -19.730 -33.599  -4.014  1.00  0.00     0.010 C 
HETATM   28  C13 UNL     1     -21.293 -32.096  -2.821  1.00  0.00     0.010 C 
ENDBRANCH  25  26
ENDBRANCH  22  25
ENDBRANCH   9  21
ENDBRANCH   1   4
TORSDOF 5
ENDMDL
