MODEL 1
REMARK VINA RESULT: -7.910937674      0.000      0.000
REMARK  2 active torsions:
REMARK  status: ('A' for Active; 'I' for Inactive)
REMARK    1  A    between atoms: C4_6  and  C5_7 
REMARK    2  A    between atoms: C7_14  and  O2_15 
ROOT
HETATM    1  C1  UNL     1       0.614 -26.522  33.885  1.00  0.00     0.047 C 
HETATM    2  C2  UNL     1       0.664 -27.279  34.970  1.00  0.00     0.080 A 
HETATM    3  N1  UNL     1       0.901 -28.597  34.923  1.00  0.00    -0.340 N 
ATOM      4  H1  UNL     1       1.047 -29.029  34.010  1.00  0.00     0.167 HD
HETATM    5  C3  UNL     1       0.956 -29.385  36.022  1.00  0.00     0.110 A 
HETATM    6  C4  UNL     1       1.193 -30.687  35.925  1.00  0.00     0.082 C 
HETATM    7  N4  UNL     1       0.764 -28.823  37.230  1.00  0.00    -0.306 N 
ATOM      8  H4  UNL     1       0.805 -29.415  38.060  1.00  0.00     0.170 HD
HETATM    9  C8  UNL     1       0.519 -27.510  37.383  1.00  0.00     0.299 A 
HETATM   10  O3  UNL     1       0.342 -27.011  38.541  1.00  0.00    -0.264 OA
HETATM   11  C9  UNL     1       0.471 -26.739  36.241  1.00  0.00     0.265 A 
HETATM   12  O4  UNL     1       0.242 -25.513  36.393  1.00  0.00    -0.280 OA
ENDROOT
BRANCH   6  13
HETATM   13  C5  UNL     1       1.405 -31.318  34.628  1.00  0.00     0.091 A 
HETATM   14  N2  UNL     1       0.449 -31.794  33.816  1.00  0.00    -0.305 N 
HETATM   15  C6  UNL     1       1.015 -32.304  32.707  1.00  0.00     0.326 A 
ATOM     16  H2  UNL     1      -0.552 -31.773  34.009  1.00  0.00     0.171 HD
HETATM   17  O1  UNL     1       0.455 -32.846  31.707  1.00  0.00    -0.247 OA
HETATM   18  N3  UNL     1       2.347 -32.155  32.803  1.00  0.00    -0.287 N 
HETATM   19  C7  UNL     1       2.597 -31.546  33.988  1.00  0.00     0.171 A 
ATOM     20  H3  UNL     1       3.041 -32.446  32.113  1.00  0.00     0.172 HD
BRANCH  19  21
HETATM   21  O2  UNL     1       3.869 -31.206  34.475  1.00  0.00    -0.344 OA
ATOM     22  H2  UNL     1       4.274 -30.349  34.420  1.00  0.00     0.219 HD
ENDBRANCH  19  21
ENDBRANCH   6  13
TORSDOF 2
ENDMDL
MODEL 2
REMARK VINA RESULT: -7.511141029      2.489      5.445
REMARK  2 active torsions:
REMARK  status: ('A' for Active; 'I' for Inactive)
REMARK    1  A    between atoms: C4_6  and  C5_7 
REMARK    2  A    between atoms: C7_14  and  O2_15 
ROOT
HETATM    1  C1  UNL     1       2.233 -31.212  33.136  1.00  0.00     0.047 C 
HETATM    2  C2  UNL     1       1.592 -30.889  34.248  1.00  0.00     0.080 A 
HETATM    3  N1  UNL     1       1.592 -29.646  34.748  1.00  0.00    -0.340 N 
ATOM      4  H1  UNL     1       2.109 -28.923  34.247  1.00  0.00     0.167 HD
HETATM    5  C3  UNL     1       0.941 -29.298  35.884  1.00  0.00     0.110 A 
HETATM    6  C4  UNL     1       0.970 -28.053  36.341  1.00  0.00     0.082 C 
HETATM    7  N4  UNL     1       0.256 -30.246  36.552  1.00  0.00    -0.306 N 
ATOM      8  H4  UNL     1      -0.235 -29.986  37.407  1.00  0.00     0.170 HD
HETATM    9  C8  UNL     1       0.196 -31.522  36.132  1.00  0.00     0.299 A 
HETATM   10  O3  UNL     1      -0.461 -32.393  36.787  1.00  0.00    -0.264 OA
HETATM   11  C9  UNL     1       0.870 -31.838  34.971  1.00  0.00     0.265 A 
HETATM   12  O4  UNL     1       0.808 -33.033  34.586  1.00  0.00    -0.280 OA
ENDROOT
BRANCH   6  13
HETATM   13  C5  UNL     1       1.705 -27.011  35.635  1.00  0.00     0.091 A 
HETATM   14  N2  UNL     1       2.788 -26.361  36.089  1.00  0.00    -0.305 N 
HETATM   15  C6  UNL     1       3.196 -25.469  35.169  1.00  0.00     0.326 A 
ATOM     16  H2  UNL     1       3.234 -26.520  36.993  1.00  0.00     0.171 HD
HETATM   17  O1  UNL     1       4.176 -24.666  35.220  1.00  0.00    -0.247 OA
HETATM   18  N3  UNL     1       2.370 -25.543  34.111  1.00  0.00    -0.287 N 
HETATM   19  C7  UNL     1       1.445 -26.493  34.390  1.00  0.00     0.171 A 
ATOM     20  H3  UNL     1       2.429 -24.987  33.257  1.00  0.00     0.172 HD
BRANCH  19  21
HETATM   21  O2  UNL     1       0.396 -26.882  33.542  1.00  0.00    -0.344 OA
ATOM     22  H2  UNL     1      -0.314 -27.470  33.770  1.00  0.00     0.219 HD
ENDBRANCH  19  21
ENDBRANCH   6  13
TORSDOF 2
ENDMDL
MODEL 3
REMARK VINA RESULT: -7.145417593      1.865      6.103
REMARK  2 active torsions:
REMARK  status: ('A' for Active; 'I' for Inactive)
REMARK    1  A    between atoms: C4_6  and  C5_7 
REMARK    2  A    between atoms: C7_14  and  O2_15 
ROOT
HETATM    1  C1  UNL     1       1.731 -32.023  36.697  1.00  0.00     0.047 C 
HETATM    2  C2  UNL     1       1.340 -31.330  35.638  1.00  0.00     0.080 A 
HETATM    3  N1  UNL     1       1.259 -29.993  35.637  1.00  0.00    -0.340 N 
ATOM      4  H1  UNL     1       1.509 -29.493  36.490  1.00  0.00     0.167 HD
HETATM    5  C3  UNL     1       0.862 -29.270  34.563  1.00  0.00     0.110 A 
HETATM    6  C4  UNL     1       0.796 -27.946  34.610  1.00  0.00     0.082 C 
HETATM    7  N4  UNL     1       0.528 -29.922  33.433  1.00  0.00    -0.306 N 
ATOM      8  H4  UNL     1       0.229 -29.379  32.623  1.00  0.00     0.170 HD
HETATM    9  C8  UNL     1       0.576 -31.262  33.334  1.00  0.00     0.299 A 
HETATM   10  O3  UNL     1       0.254 -31.847  32.250  1.00  0.00    -0.264 OA
HETATM   11  C9  UNL     1       0.986 -31.964  34.448  1.00  0.00     0.265 A 
HETATM   12  O4  UNL     1       1.027 -33.216  34.346  1.00  0.00    -0.280 OA
ENDROOT
BRANCH   6  13
HETATM   13  C5  UNL     1       1.152 -27.218  35.822  1.00  0.00     0.091 A 
HETATM   14  N2  UNL     1       2.378 -26.782  36.151  1.00  0.00    -0.305 N 
HETATM   15  C6  UNL     1       2.328 -26.153  37.339  1.00  0.00     0.326 A 
ATOM     16  H2  UNL     1       3.219 -26.908  35.587  1.00  0.00     0.171 HD
HETATM   17  O1  UNL     1       3.269 -25.605  37.988  1.00  0.00    -0.247 OA
HETATM   18  N3  UNL     1       1.059 -26.182  37.780  1.00  0.00    -0.287 N 
HETATM   19  C7  UNL     1       0.325 -26.838  36.849  1.00  0.00     0.171 A 
ATOM     20  H3  UNL     1       0.713 -25.783  38.654  1.00  0.00     0.172 HD
BRANCH  19  21
HETATM   21  O2  UNL     1      -1.054 -27.086  36.927  1.00  0.00    -0.344 OA
ATOM     22  H2  UNL     1      -1.462 -27.823  37.368  1.00  0.00     0.219 HD
ENDBRANCH  19  21
ENDBRANCH   6  13
TORSDOF 2
ENDMDL
MODEL 4
REMARK VINA RESULT: -7.131957895      1.921      5.976
REMARK  2 active torsions:
REMARK  status: ('A' for Active; 'I' for Inactive)
REMARK    1  A    between atoms: C4_6  and  C5_7 
REMARK    2  A    between atoms: C7_14  and  O2_15 
ROOT
HETATM    1  C1  UNL     1       1.793 -32.309  36.677  1.00  0.00     0.047 C 
HETATM    2  C2  UNL     1       1.352 -31.448  35.772  1.00  0.00     0.080 A 
HETATM    3  N1  UNL     1       1.282 -30.130  36.002  1.00  0.00    -0.340 N 
ATOM      4  H1  UNL     1       1.581 -29.781  36.913  1.00  0.00     0.167 HD
HETATM    5  C3  UNL     1       0.835 -29.236  35.088  1.00  0.00     0.110 A 
HETATM    6  C4  UNL     1       0.783 -27.939  35.362  1.00  0.00     0.082 C 
HETATM    7  N4  UNL     1       0.438 -29.687  33.884  1.00  0.00    -0.306 N 
ATOM      8  H4  UNL     1       0.101 -29.016  33.194  1.00  0.00     0.170 HD
HETATM    9  C8  UNL     1       0.470 -30.991  33.557  1.00  0.00     0.299 A 
HETATM   10  O3  UNL     1       0.087 -31.384  32.408  1.00  0.00    -0.264 OA
HETATM   11  C9  UNL     1       0.932 -31.871  34.512  1.00  0.00     0.265 A 
HETATM   12  O4  UNL     1       0.958 -33.088  34.198  1.00  0.00    -0.280 OA
ENDROOT
BRANCH   6  13
HETATM   13  C5  UNL     1       1.207 -27.427  36.659  1.00  0.00     0.091 A 
HETATM   14  N2  UNL     1       0.543 -27.561  37.818  1.00  0.00    -0.305 N 
HETATM   15  C6  UNL     1       1.235 -26.962  38.804  1.00  0.00     0.326 A 
ATOM     16  H2  UNL     1      -0.349 -28.042  37.933  1.00  0.00     0.171 HD
HETATM   17  O1  UNL     1       0.944 -26.869  40.035  1.00  0.00    -0.247 OA
HETATM   18  N3  UNL     1       2.356 -26.439  38.279  1.00  0.00    -0.287 N 
HETATM   19  C7  UNL     1       2.347 -26.721  36.954  1.00  0.00     0.171 A 
ATOM     20  H3  UNL     1       3.078 -25.925  38.784  1.00  0.00     0.172 HD
BRANCH  19  21
HETATM   21  O2  UNL     1       3.343 -26.350  36.037  1.00  0.00    -0.344 OA
ATOM     22  H2  UNL     1       3.980 -25.656  36.159  1.00  0.00     0.219 HD
ENDBRANCH  19  21
ENDBRANCH   6  13
TORSDOF 2
ENDMDL
MODEL 5
REMARK VINA RESULT: -6.929531384      2.747      6.100
REMARK  2 active torsions:
REMARK  status: ('A' for Active; 'I' for Inactive)
REMARK    1  A    between atoms: C4_6  and  C5_7 
REMARK    2  A    between atoms: C7_14  and  O2_15 
ROOT
HETATM    1  C1  UNL     1       1.937 -31.493  36.184  1.00  0.00     0.047 C 
HETATM    2  C2  UNL     1       0.948 -30.615  36.124  1.00  0.00     0.080 A 
HETATM    3  N1  UNL     1       0.919 -29.504  36.873  1.00  0.00    -0.340 N 
ATOM      4  H1  UNL     1       1.694 -29.334  37.514  1.00  0.00     0.167 HD
HETATM    5  C3  UNL     1      -0.084 -28.596  36.823  1.00  0.00     0.110 A 
HETATM    6  C4  UNL     1      -0.069 -27.510  37.585  1.00  0.00     0.082 C 
HETATM    7  N4  UNL     1      -1.110 -28.813  35.979  1.00  0.00    -0.306 N 
ATOM      8  H4  UNL     1      -1.867 -28.130  35.940  1.00  0.00     0.170 HD
HETATM    9  C8  UNL     1      -1.175 -29.897  35.187  1.00  0.00     0.299 A 
HETATM   10  O3  UNL     1      -2.160 -30.072  34.400  1.00  0.00    -0.264 OA
HETATM   11  C9  UNL     1      -0.134 -30.799  35.264  1.00  0.00     0.265 A 
HETATM   12  O4  UNL     1      -0.203 -31.810  34.520  1.00  0.00    -0.280 OA
ENDROOT
BRANCH   6  13
HETATM   13  C5  UNL     1       1.032 -27.254  38.506  1.00  0.00     0.091 A 
HETATM   14  N2  UNL     1       1.096 -27.643  39.789  1.00  0.00    -0.305 N 
HETATM   15  C6  UNL     1       2.258 -27.230  40.326  1.00  0.00     0.326 A 
ATOM     16  H2  UNL     1       0.376 -28.171  40.281  1.00  0.00     0.171 HD
HETATM   17  O1  UNL     1       2.692 -27.397  41.506  1.00  0.00    -0.247 OA
HETATM   18  N3  UNL     1       2.951 -26.569  39.382  1.00  0.00    -0.287 N 
HETATM   19  C7  UNL     1       2.200 -26.579  38.254  1.00  0.00     0.171 A 
ATOM     20  H3  UNL     1       3.870 -26.140  39.495  1.00  0.00     0.172 HD
BRANCH  19  21
HETATM   21  O2  UNL     1       2.564 -25.994  37.031  1.00  0.00    -0.344 OA
ATOM     22  H2  UNL     1       2.116 -25.272  36.605  1.00  0.00     0.219 HD
ENDBRANCH  19  21
ENDBRANCH   6  13
TORSDOF 2
ENDMDL
