MODEL 1
REMARK VINA RESULT: -7.557981882      0.000      0.000
REMARK  2 active torsions:
REMARK  status: ('A' for Active; 'I' for Inactive)
REMARK    1  A    between atoms: C4_8  and  C5_9 
REMARK    2  A    between atoms: C6_10  and  O1_11 
ROOT
HETATM    1  C5  UNL     1       1.246 -31.119  34.766  1.00  0.00     0.085 A 
HETATM    2  C6  UNL     1       0.265 -31.115  33.794  1.00  0.00     0.160 A 
HETATM    3  N3  UNL     1       0.508 -31.633  32.559  1.00  0.00    -0.288 N 
ATOM      4  H3  UNL     1      -0.230 -31.622  31.855  1.00  0.00     0.172 HD
HETATM    5  C7  UNL     1       1.710 -32.161  32.256  1.00  0.00     0.329 A 
HETATM    6  O2  UNL     1       1.965 -32.652  31.111  1.00  0.00    -0.247 OA
HETATM    7  N4  UNL     1       2.684 -32.176  33.188  1.00  0.00    -0.275 N 
ATOM      8  H4  UNL     1       3.595 -32.573  32.960  1.00  0.00     0.173 HD
HETATM    9  C8  UNL     1       2.465 -31.667  34.423  1.00  0.00     0.264 A 
HETATM   10  O3  UNL     1       3.378 -31.679  35.300  1.00  0.00    -0.267 OA
ENDROOT
BRANCH   1  11
HETATM   11  C4  UNL     1       1.024 -30.569  36.114  1.00  0.00     0.056 C 
HETATM   12  C3  UNL     1       0.906 -29.275  36.328  1.00  0.00     0.101 A 
HETATM   13  N2  UNL     1       0.704 -28.701  37.526  1.00  0.00    -0.296 N 
HETATM   14  C9  UNL     1       0.957 -28.234  35.428  1.00  0.00     0.227 A 
HETATM   15  N1  UNL     1       0.632 -27.373  37.381  1.00  0.00    -0.297 N 
ATOM     16  H2  UNL     1       0.619 -29.201  38.411  1.00  0.00     0.187 HD
HETATM   17  C2  UNL     1       0.784 -27.036  36.091  1.00  0.00     0.091 A 
ATOM     18  H1  UNL     1       0.482 -26.711  38.142  1.00  0.00     0.187 HD
HETATM   19  C1  UNL     1       0.768 -25.812  35.598  1.00  0.00     0.049 C 
HETATM   20  O4  UNL     1       1.135 -28.351  34.185  1.00  0.00    -0.283 OA
ENDBRANCH   1  11
BRANCH   2  21
HETATM   21  O1  UNL     1      -0.976 -30.570  34.109  1.00  0.00    -0.345 OA
ATOM     22  H1  UNL     1      -1.725 -30.818  33.581  1.00  0.00     0.219 HD
ENDBRANCH   2  21
TORSDOF 2
ENDMDL
MODEL 2
REMARK VINA RESULT: -7.238140109      0.110      1.960
REMARK  2 active torsions:
REMARK  status: ('A' for Active; 'I' for Inactive)
REMARK    1  A    between atoms: C4_8  and  C5_9 
REMARK    2  A    between atoms: C6_10  and  O1_11 
ROOT
HETATM    1  C5  UNL     1       1.223 -31.154  34.776  1.00  0.00     0.085 A 
HETATM    2  C6  UNL     1       2.457 -31.669  34.429  1.00  0.00     0.160 A 
HETATM    3  N3  UNL     1       2.680 -32.153  33.177  1.00  0.00    -0.288 N 
ATOM      4  H3  UNL     1       3.599 -32.529  32.940  1.00  0.00     0.172 HD
HETATM    5  C7  UNL     1       1.705 -32.144  32.248  1.00  0.00     0.329 A 
HETATM    6  O2  UNL     1       1.885 -32.590  31.071  1.00  0.00    -0.247 OA
HETATM    7  N4  UNL     1       0.491 -31.647  32.563  1.00  0.00    -0.275 N 
ATOM      8  H4  UNL     1      -0.249 -31.640  31.862  1.00  0.00     0.173 HD
HETATM    9  C8  UNL     1       0.246 -31.159  33.802  1.00  0.00     0.264 A 
HETATM   10  O3  UNL     1      -0.892 -30.692  34.100  1.00  0.00    -0.267 OA
ENDROOT
BRANCH   1  11
HETATM   11  C4  UNL     1       0.940 -30.620  36.119  1.00  0.00     0.056 C 
HETATM   12  C3  UNL     1       0.877 -29.326  36.356  1.00  0.00     0.101 A 
HETATM   13  N2  UNL     1       0.626 -28.766  37.551  1.00  0.00    -0.296 N 
HETATM   14  C9  UNL     1       1.045 -28.272  35.487  1.00  0.00     0.227 A 
HETATM   15  N1  UNL     1       0.635 -27.434  37.433  1.00  0.00    -0.297 N 
ATOM     16  H2  UNL     1       0.455 -29.279  38.416  1.00  0.00     0.187 HD
HETATM   17  C2  UNL     1       0.892 -27.080  36.166  1.00  0.00     0.091 A 
ATOM     18  H1  UNL     1       0.470 -26.780  38.199  1.00  0.00     0.187 HD
HETATM   19  C1  UNL     1       0.975 -25.846  35.702  1.00  0.00     0.049 C 
HETATM   20  O4  UNL     1       1.300 -28.372  34.255  1.00  0.00    -0.283 OA
ENDBRANCH   1  11
BRANCH   2  21
HETATM   21  O1  UNL     1       3.463 -31.678  35.389  1.00  0.00    -0.345 OA
ATOM     22  H1  UNL     1       3.752 -30.849  35.749  1.00  0.00     0.219 HD
ENDBRANCH   2  21
TORSDOF 2
ENDMDL
MODEL 3
REMARK VINA RESULT: -7.014194659      2.067      5.236
REMARK  2 active torsions:
REMARK  status: ('A' for Active; 'I' for Inactive)
REMARK    1  A    between atoms: C4_8  and  C5_9 
REMARK    2  A    between atoms: C6_10  and  O1_11 
ROOT
HETATM    1  C5  UNL     1       0.565 -30.161  35.290  1.00  0.00     0.085 A 
HETATM    2  C6  UNL     1       0.413 -28.857  34.863  1.00  0.00     0.160 A 
HETATM    3  N3  UNL     1      -0.730 -28.167  35.128  1.00  0.00    -0.288 N 
ATOM      4  H3  UNL     1      -0.823 -27.204  34.805  1.00  0.00     0.172 HD
HETATM    5  C7  UNL     1      -1.740 -28.740  35.812  1.00  0.00     0.329 A 
HETATM    6  O2  UNL     1      -2.818 -28.120  36.075  1.00  0.00    -0.247 OA
HETATM    7  N4  UNL     1      -1.616 -30.013  36.240  1.00  0.00    -0.275 N 
ATOM      8  H4  UNL     1      -2.379 -30.449  36.757  1.00  0.00     0.173 HD
HETATM    9  C8  UNL     1      -0.488 -30.718  35.988  1.00  0.00     0.264 A 
HETATM   10  O3  UNL     1      -0.368 -31.913  36.388  1.00  0.00    -0.267 OA
ENDROOT
BRANCH   1  11
HETATM   11  C4  UNL     1       1.784 -30.942  35.024  1.00  0.00     0.056 C 
HETATM   12  C3  UNL     1       1.955 -31.608  33.901  1.00  0.00     0.101 A 
HETATM   13  N2  UNL     1       3.037 -32.340  33.589  1.00  0.00    -0.296 N 
HETATM   14  C9  UNL     1       1.114 -31.718  32.817  1.00  0.00     0.227 A 
HETATM   15  N1  UNL     1       2.879 -32.879  32.374  1.00  0.00    -0.297 N 
ATOM     16  H2  UNL     1       3.853 -32.468  34.187  1.00  0.00     0.187 HD
HETATM   17  C2  UNL     1       1.696 -32.519  31.855  1.00  0.00     0.091 A 
ATOM     18  H1  UNL     1       3.561 -33.477  31.909  1.00  0.00     0.187 HD
HETATM   19  C1  UNL     1       1.222 -32.874  30.675  1.00  0.00     0.049 C 
HETATM   20  O4  UNL     1      -0.019 -31.173  32.711  1.00  0.00    -0.283 OA
ENDBRANCH   1  11
BRANCH   2  21
HETATM   21  O1  UNL     1       1.455 -28.266  34.157  1.00  0.00    -0.345 OA
ATOM     22  H1  UNL     1       1.285 -27.952  33.277  1.00  0.00     0.219 HD
ENDBRANCH   2  21
TORSDOF 2
ENDMDL
MODEL 4
REMARK VINA RESULT: -6.960541181      2.028      2.771
REMARK  2 active torsions:
REMARK  status: ('A' for Active; 'I' for Inactive)
REMARK    1  A    between atoms: C4_8  and  C5_9 
REMARK    2  A    between atoms: C6_10  and  O1_11 
ROOT
HETATM    1  C5  UNL     1      -0.505 -29.497  35.367  1.00  0.00     0.085 A 
HETATM    2  C6  UNL     1      -0.602 -30.771  35.892  1.00  0.00     0.160 A 
HETATM    3  N3  UNL     1      -0.078 -31.837  35.228  1.00  0.00    -0.288 N 
ATOM      4  H3  UNL     1      -0.160 -32.771  35.632  1.00  0.00     0.172 HD
HETATM    5  C7  UNL     1       0.546 -31.677  34.045  1.00  0.00     0.329 A 
HETATM    6  O2  UNL     1       1.045 -32.654  33.403  1.00  0.00    -0.247 OA
HETATM    7  N4  UNL     1       0.653 -30.442  33.512  1.00  0.00    -0.275 N 
ATOM      8  H4  UNL     1       1.125 -30.318  32.616  1.00  0.00     0.173 HD
HETATM    9  C8  UNL     1       0.141 -29.367  34.155  1.00  0.00     0.264 A 
HETATM   10  O3  UNL     1       0.240 -28.207  33.657  1.00  0.00    -0.267 OA
ENDROOT
BRANCH   1  11
HETATM   11  C4  UNL     1      -1.058 -28.317  36.053  1.00  0.00     0.056 C 
HETATM   12  C3  UNL     1      -0.308 -27.523  36.788  1.00  0.00     0.101 A 
HETATM   13  N2  UNL     1      -0.740 -26.432  37.443  1.00  0.00    -0.296 N 
HETATM   14  C9  UNL     1       1.039 -27.602  37.061  1.00  0.00     0.227 A 
HETATM   15  N1  UNL     1       0.283 -25.861  38.089  1.00  0.00    -0.297 N 
ATOM     16  H2  UNL     1      -1.702 -26.092  37.447  1.00  0.00     0.187 HD
HETATM   17  C2  UNL     1       1.411 -26.555  37.880  1.00  0.00     0.091 A 
ATOM     18  H1  UNL     1       0.214 -25.018  38.658  1.00  0.00     0.187 HD
HETATM   19  C1  UNL     1       2.604 -26.270  38.370  1.00  0.00     0.049 C 
HETATM   20  O4  UNL     1       1.821 -28.494  36.631  1.00  0.00    -0.283 OA
ENDBRANCH   1  11
BRANCH   2  21
HETATM   21  O1  UNL     1      -1.247 -30.936  37.113  1.00  0.00    -0.345 OA
ATOM     22  H1  UNL     1      -1.043 -30.333  37.817  1.00  0.00     0.219 HD
ENDBRANCH   2  21
TORSDOF 2
ENDMDL
MODEL 5
REMARK VINA RESULT: -6.829578059      2.460      3.905
REMARK  2 active torsions:
REMARK  status: ('A' for Active; 'I' for Inactive)
REMARK    1  A    between atoms: C4_8  and  C5_9 
REMARK    2  A    between atoms: C6_10  and  O1_11 
ROOT
HETATM    1  C5  UNL     1       0.061 -28.837  34.911  1.00  0.00     0.085 A 
HETATM    2  C6  UNL     1       0.796 -29.952  34.559  1.00  0.00     0.160 A 
HETATM    3  N3  UNL     1       0.631 -31.131  35.219  1.00  0.00    -0.288 N 
ATOM      4  H3  UNL     1       1.183 -31.943  34.944  1.00  0.00     0.172 HD
HETATM    5  C7  UNL     1      -0.253 -31.238  36.231  1.00  0.00     0.329 A 
HETATM    6  O2  UNL     1      -0.428 -32.325  36.865  1.00  0.00    -0.247 OA
HETATM    7  N4  UNL     1      -0.982 -30.163  36.594  1.00  0.00    -0.275 N 
ATOM      8  H4  UNL     1      -1.650 -30.241  37.360  1.00  0.00     0.173 HD
HETATM    9  C8  UNL     1      -0.834 -28.981  35.951  1.00  0.00     0.264 A 
HETATM   10  O3  UNL     1      -1.518 -27.970  36.289  1.00  0.00    -0.267 OA
ENDROOT
BRANCH   1  11
HETATM   11  C4  UNL     1       0.210 -27.544  34.222  1.00  0.00     0.056 C 
HETATM   12  C3  UNL     1       1.024 -26.608  34.664  1.00  0.00     0.101 A 
HETATM   13  N2  UNL     1       1.211 -25.407  34.092  1.00  0.00    -0.296 N 
HETATM   14  C9  UNL     1       1.848 -26.620  35.767  1.00  0.00     0.227 A 
HETATM   15  N1  UNL     1       2.105 -24.707  34.800  1.00  0.00    -0.297 N 
ATOM     16  H2  UNL     1       0.743 -25.079  33.248  1.00  0.00     0.187 HD
HETATM   17  C2  UNL     1       2.529 -25.422  35.853  1.00  0.00     0.091 A 
ATOM     18  H1  UNL     1       2.419 -23.764  34.572  1.00  0.00     0.187 HD
HETATM   19  C1  UNL     1       3.409 -25.032  36.756  1.00  0.00     0.049 C 
HETATM   20  O4  UNL     1       1.967 -27.576  36.581  1.00  0.00    -0.283 OA
ENDBRANCH   1  11
BRANCH   2  21
HETATM   21  O1  UNL     1       1.708 -29.840  33.514  1.00  0.00    -0.345 OA
ATOM     22  H1  UNL     1       1.712 -30.513  32.844  1.00  0.00     0.219 HD
ENDBRANCH   2  21
TORSDOF 2
ENDMDL
