MODEL 1
REMARK VINA RESULT: -8.086926165      0.000      0.000
REMARK  2 active torsions:
REMARK  status: ('A' for Active; 'I' for Inactive)
REMARK       I    between atoms: N1_1  and  C1_4 
REMARK       I    between atoms: C1_4  and  N3_6 
REMARK    1  A    between atoms: N3_6  and  C2_8 
REMARK    2  A    between atoms: N7_21  and  O3_22 
ROOT
HETATM    1  C2  UNL     1       0.401 -28.012  37.205  1.00  0.00     0.703 A 
HETATM    2  N4  UNL     1       0.397 -29.357  37.137  1.00  0.00    -0.171 N 
ATOM      3  H4  UNL     1       0.154 -29.906  37.961  1.00  0.00     0.186 HD
HETATM    4  C3  UNL     1       0.714 -29.980  35.984  1.00  0.00     0.172 A 
HETATM    5  N5  UNL     1       0.712 -31.325  35.904  1.00  0.00    -0.301 N 
ATOM      6  H5  UNL     1       0.469 -31.882  36.723  1.00  0.00     0.171 HD
HETATM    7  C4  UNL     1       1.029 -31.932  34.751  1.00  0.00     0.315 A 
HETATM    8  O1  UNL     1       1.036 -33.199  34.649  1.00  0.00    -0.262 OA
HETATM    9  C5  UNL     1       1.362 -31.206  33.619  1.00  0.00     0.315 A 
HETATM   10  O2  UNL     1       1.651 -31.799  32.559  1.00  0.00    -0.262 OA
HETATM   11  N6  UNL     1       1.367 -29.861  33.683  1.00  0.00    -0.299 N 
ATOM     12  H6  UNL     1       1.609 -29.303  32.864  1.00  0.00     0.171 HD
HETATM   13  C6  UNL     1       1.048 -29.265  34.845  1.00  0.00     0.200 A 
HETATM   14  N7  UNL     1       1.043 -27.924  34.945  1.00  0.00    -0.128 N 
HETATM   15  N8  UNL     1       0.732 -27.330  36.079  1.00  0.00    -0.103 N 
ATOM     16  H8  UNL     1       0.740 -26.310  36.113  1.00  0.00     0.208 HD
ENDROOT
BRANCH   1  17
HETATM   17  N3  UNL     1       0.118 -27.343  38.245  1.00  0.00    -0.162 N 
HETATM   18  C1  UNL     1       0.993 -27.014  39.286  1.00  0.00     0.200 C 
HETATM   19  N1  UNL     1       1.593 -27.901  40.027  1.00  0.00    -0.373 N 
HETATM   20  N2  UNL     1       1.257 -25.657  39.571  1.00  0.00    -0.063 NA
ATOM     21  H12 UNL     1       2.231 -27.661  40.786  1.00  0.00     0.158 HD
ATOM     22  H11 UNL     1       1.402 -28.881  39.821  1.00  0.00     0.158 HD
ATOM     23  H3  UNL     1      -0.843 -27.012  38.331  1.00  0.00     0.187 HD
ENDBRANCH   1  17
BRANCH  14  24
HETATM   24  O3  UNL     1       1.347 -27.272  33.910  1.00  0.00    -0.266 OA
ATOM     25  H3  UNL     1       0.957 -26.411  33.813  1.00  0.00     0.247 HD
ENDBRANCH  14  24
TORSDOF 2
ENDMDL
MODEL 2
REMARK VINA RESULT: -7.840948892      1.372      2.311
REMARK  2 active torsions:
REMARK  status: ('A' for Active; 'I' for Inactive)
REMARK       I    between atoms: N1_1  and  C1_4 
REMARK       I    between atoms: C1_4  and  N3_6 
REMARK    1  A    between atoms: N3_6  and  C2_8 
REMARK    2  A    between atoms: N7_21  and  O3_22 
ROOT
HETATM    1  C2  UNL     1       0.216 -28.078  36.906  1.00  0.00     0.703 A 
HETATM    2  N4  UNL     1       1.016 -28.308  35.848  1.00  0.00    -0.171 N 
ATOM      3  H4  UNL     1       1.692 -27.601  35.559  1.00  0.00     0.186 HD
HETATM    4  C3  UNL     1       0.928 -29.469  35.169  1.00  0.00     0.172 A 
HETATM    5  N5  UNL     1       1.724 -29.710  34.110  1.00  0.00    -0.301 N 
ATOM      6  H5  UNL     1       2.404 -29.010  33.815  1.00  0.00     0.171 HD
HETATM    7  C4  UNL     1       1.626 -30.870  33.443  1.00  0.00     0.315 A 
HETATM    8  O1  UNL     1       2.364 -31.123  32.440  1.00  0.00    -0.262 OA
HETATM    9  C5  UNL     1       0.716 -31.845  33.817  1.00  0.00     0.315 A 
HETATM   10  O2  UNL     1       0.647 -32.915  33.178  1.00  0.00    -0.262 OA
HETATM   11  N6  UNL     1      -0.088 -31.618  34.875  1.00  0.00    -0.299 N 
ATOM     12  H6  UNL     1      -0.766 -32.319  35.170  1.00  0.00     0.171 HD
HETATM   13  C6  UNL     1       0.022 -30.452  35.534  1.00  0.00     0.200 A 
HETATM   14  N7  UNL     1      -0.763 -30.192  36.594  1.00  0.00    -0.128 N 
HETATM   15  N8  UNL     1      -0.665 -29.052  37.248  1.00  0.00    -0.103 N 
ATOM     16  H8  UNL     1      -1.280 -28.894  38.047  1.00  0.00     0.208 HD
ENDROOT
BRANCH   1  17
HETATM   17  N3  UNL     1       0.229 -27.016  37.602  1.00  0.00    -0.162 N 
HETATM   18  C1  UNL     1       1.047 -26.757  38.707  1.00  0.00     0.200 C 
HETATM   19  N1  UNL     1       1.025 -27.466  39.799  1.00  0.00    -0.373 N 
HETATM   20  N2  UNL     1       1.954 -25.676  38.664  1.00  0.00    -0.063 NA
ATOM     21  H12 UNL     1       1.621 -27.277  40.605  1.00  0.00     0.158 HD
ATOM     22  H11 UNL     1       0.370 -28.247  39.830  1.00  0.00     0.158 HD
ATOM     23  H3  UNL     1      -0.420 -26.279  37.329  1.00  0.00     0.187 HD
ENDBRANCH   1  17
BRANCH  14  24
HETATM   24  O3  UNL     1      -1.589 -31.084  36.928  1.00  0.00    -0.266 OA
ATOM     25  H3  UNL     1      -2.058 -30.954  37.743  1.00  0.00     0.247 HD
ENDBRANCH  14  24
TORSDOF 2
ENDMDL
MODEL 3
REMARK VINA RESULT: -7.827668461      2.477      5.964
REMARK  2 active torsions:
REMARK  status: ('A' for Active; 'I' for Inactive)
REMARK       I    between atoms: N1_1  and  C1_4 
REMARK       I    between atoms: C1_4  and  N3_6 
REMARK    1  A    between atoms: N3_6  and  C2_8 
REMARK    2  A    between atoms: N7_21  and  O3_22 
ROOT
HETATM    1  C2  UNL     1       0.395 -29.997  34.031  1.00  0.00     0.703 A 
HETATM    2  N4  UNL     1       1.140 -28.909  34.305  1.00  0.00    -0.171 N 
ATOM      3  H4  UNL     1       1.725 -28.498  33.578  1.00  0.00     0.186 HD
HETATM    4  C3  UNL     1       1.116 -28.362  35.537  1.00  0.00     0.172 A 
HETATM    5  N5  UNL     1       1.857 -27.274  35.822  1.00  0.00    -0.301 N 
ATOM      6  H5  UNL     1       2.443 -26.855  35.101  1.00  0.00     0.171 HD
HETATM    7  C4  UNL     1       1.824 -26.740  37.052  1.00  0.00     0.315 A 
HETATM    8  O1  UNL     1       2.513 -25.714  37.349  1.00  0.00    -0.262 OA
HETATM    9  C5  UNL     1       1.036 -27.281  38.055  1.00  0.00     0.315 A 
HETATM   10  O2  UNL     1       1.025 -26.762  39.191  1.00  0.00    -0.262 OA
HETATM   11  N6  UNL     1       0.290 -28.369  37.785  1.00  0.00    -0.299 N 
ATOM     12  H6  UNL     1      -0.298 -28.788  38.506  1.00  0.00     0.171 HD
HETATM   13  C6  UNL     1       0.333 -28.894  36.549  1.00  0.00     0.200 A 
HETATM   14  N7  UNL     1      -0.400 -29.980  36.243  1.00  0.00    -0.128 N 
HETATM   15  N8  UNL     1      -0.366 -30.504  35.034  1.00  0.00    -0.103 N 
ATOM     16  H8  UNL     1      -0.936 -31.327  34.844  1.00  0.00     0.208 HD
ENDROOT
BRANCH   1  17
HETATM   17  N3  UNL     1       0.356 -30.577  32.903  1.00  0.00    -0.162 N 
HETATM   18  C1  UNL     1       1.166 -31.638  32.485  1.00  0.00     0.200 C 
HETATM   19  N1  UNL     1       2.462 -31.559  32.392  1.00  0.00    -0.373 N 
HETATM   20  N2  UNL     1       0.574 -32.872  32.138  1.00  0.00    -0.063 NA
ATOM     21  H12 UNL     1       3.053 -32.333  32.087  1.00  0.00     0.158 HD
ATOM     22  H11 UNL     1       2.890 -30.668  32.643  1.00  0.00     0.158 HD
ATOM     23  H3  UNL     1      -0.335 -30.236  32.234  1.00  0.00     0.187 HD
ENDBRANCH   1  17
BRANCH  14  24
HETATM   24  O3  UNL     1      -1.113 -30.466  37.162  1.00  0.00    -0.266 OA
ATOM     25  H3  UNL     1      -1.012 -31.393  37.341  1.00  0.00     0.247 HD
ENDBRANCH  14  24
TORSDOF 2
ENDMDL
MODEL 4
REMARK VINA RESULT: -7.451371487      1.581      1.792
REMARK  2 active torsions:
REMARK  status: ('A' for Active; 'I' for Inactive)
REMARK       I    between atoms: N1_1  and  C1_4 
REMARK       I    between atoms: C1_4  and  N3_6 
REMARK    1  A    between atoms: N3_6  and  C2_8 
REMARK    2  A    between atoms: N7_21  and  O3_22 
ROOT
HETATM    1  C2  UNL     1      -0.078 -27.202  36.894  1.00  0.00     0.703 A 
HETATM    2  N4  UNL     1       0.071 -28.469  37.325  1.00  0.00    -0.171 N 
ATOM      3  H4  UNL     1      -0.240 -28.726  38.262  1.00  0.00     0.186 HD
HETATM    4  C3  UNL     1       0.628 -29.398  36.523  1.00  0.00     0.172 A 
HETATM    5  N5  UNL     1       0.781 -30.669  36.943  1.00  0.00    -0.301 N 
ATOM      6  H5  UNL     1       0.472 -30.936  37.877  1.00  0.00     0.171 HD
HETATM    7  C4  UNL     1       1.338 -31.583  36.135  1.00  0.00     0.315 A 
HETATM    8  O1  UNL     1       1.495 -32.789  36.506  1.00  0.00    -0.262 OA
HETATM    9  C5  UNL     1       1.766 -31.256  34.859  1.00  0.00     0.315 A 
HETATM   10  O2  UNL     1       2.280 -32.129  34.129  1.00  0.00    -0.262 OA
HETATM   11  N6  UNL     1       1.620 -29.989  34.424  1.00  0.00    -0.299 N 
ATOM     12  H6  UNL     1       1.927 -29.723  33.490  1.00  0.00     0.171 HD
HETATM   13  C6  UNL     1       1.061 -29.083  35.245  1.00  0.00     0.200 A 
HETATM   14  N7  UNL     1       0.898 -27.809  34.844  1.00  0.00    -0.128 N 
HETATM   15  N8  UNL     1       0.351 -26.913  35.640  1.00  0.00    -0.103 N 
ATOM     16  H8  UNL     1       0.246 -25.957  35.298  1.00  0.00     0.208 HD
ENDROOT
BRANCH   1  17
HETATM   17  N3  UNL     1      -0.590 -26.264  37.579  1.00  0.00    -0.162 N 
HETATM   18  C1  UNL     1      -0.128 -24.946  37.663  1.00  0.00     0.200 C 
HETATM   19  N1  UNL     1       1.050 -24.627  38.117  1.00  0.00    -0.373 N 
HETATM   20  N2  UNL     1      -0.960 -23.888  37.240  1.00  0.00    -0.063 NA
ATOM     21  H12 UNL     1       1.388 -23.666  38.178  1.00  0.00     0.158 HD
ATOM     22  H11 UNL     1       1.651 -25.392  38.423  1.00  0.00     0.158 HD
ATOM     23  H3  UNL     1      -1.423 -26.493  38.122  1.00  0.00     0.187 HD
ENDBRANCH   1  17
BRANCH  14  24
HETATM   24  O3  UNL     1       1.291 -27.521  33.682  1.00  0.00    -0.266 OA
ATOM     25  H3  UNL     1       1.033 -26.674  33.338  1.00  0.00     0.247 HD
ENDBRANCH  14  24
TORSDOF 2
ENDMDL
MODEL 5
REMARK VINA RESULT: -7.435819248      2.778      5.577
REMARK  2 active torsions:
REMARK  status: ('A' for Active; 'I' for Inactive)
REMARK       I    between atoms: N1_1  and  C1_4 
REMARK       I    between atoms: C1_4  and  N3_6 
REMARK    1  A    between atoms: N3_6  and  C2_8 
REMARK    2  A    between atoms: N7_21  and  O3_22 
ROOT
HETATM    1  C2  UNL     1       0.737 -29.123  34.389  1.00  0.00     0.703 A 
HETATM    2  N4  UNL     1       0.659 -29.233  35.729  1.00  0.00    -0.171 N 
ATOM      3  H4  UNL     1       0.391 -30.122  36.150  1.00  0.00     0.186 HD
HETATM    4  C3  UNL     1       0.933 -28.172  36.514  1.00  0.00     0.172 A 
HETATM    5  N5  UNL     1       0.859 -28.271  37.856  1.00  0.00    -0.301 N 
ATOM      6  H5  UNL     1       0.594 -29.157  38.286  1.00  0.00     0.171 HD
HETATM    7  C4  UNL     1       1.135 -27.208  38.626  1.00  0.00     0.315 A 
HETATM    8  O1  UNL     1       1.072 -27.274  39.894  1.00  0.00    -0.262 OA
HETATM    9  C5  UNL     1       1.501 -25.991  38.075  1.00  0.00     0.315 A 
HETATM   10  O2  UNL     1       1.752 -25.019  38.817  1.00  0.00    -0.262 OA
HETATM   11  N6  UNL     1       1.579 -25.877  36.735  1.00  0.00    -0.299 N 
ATOM     12  H6  UNL     1       1.846 -24.992  36.304  1.00  0.00     0.171 HD
HETATM   13  C6  UNL     1       1.300 -26.950  35.975  1.00  0.00     0.200 A 
HETATM   14  N7  UNL     1       1.369 -26.873  34.634  1.00  0.00    -0.128 N 
HETATM   15  N8  UNL     1       1.098 -27.918  33.879  1.00  0.00    -0.103 N 
ATOM     16  H8  UNL     1       1.162 -27.818  32.866  1.00  0.00     0.208 HD
ENDROOT
BRANCH   1  17
HETATM   17  N3  UNL     1       0.497 -30.066  33.574  1.00  0.00    -0.162 N 
HETATM   18  C1  UNL     1       1.313 -31.174  33.320  1.00  0.00     0.200 C 
HETATM   19  N1  UNL     1       2.523 -31.082  32.848  1.00  0.00    -0.373 N 
HETATM   20  N2  UNL     1       0.825 -32.473  33.580  1.00  0.00    -0.063 NA
ATOM     21  H12 UNL     1       3.118 -31.889  32.663  1.00  0.00     0.158 HD
ATOM     22  H11 UNL     1       2.876 -30.144  32.660  1.00  0.00     0.158 HD
ATOM     23  H3  UNL     1      -0.378 -30.012  33.052  1.00  0.00     0.187 HD
ENDBRANCH   1  17
BRANCH  14  24
HETATM   24  O3  UNL     1       1.703 -25.762  34.141  1.00  0.00    -0.266 OA
ATOM     25  H3  UNL     1       1.267 -25.497  33.341  1.00  0.00     0.247 HD
ENDBRANCH  14  24
TORSDOF 2
ENDMDL
