MODEL 1
REMARK VINA RESULT: -8.362627330      0.000      0.000
REMARK  3 active torsions:
REMARK  status: ('A' for Active; 'I' for Inactive)
REMARK    1  A    between atoms: C10_10  and  C11_11 
REMARK    2  A    between atoms: C11_11  and  C12_13 
REMARK    3  A    between atoms: C12_13  and  C13_14 
ROOT
HETATM    1  C11 UNL     1      16.086  -5.288   8.824  1.00  0.00     0.138 C 
HETATM    2  O1  UNL     1      17.056  -5.231   9.540  1.00  0.00    -0.297 OA
ENDROOT
BRANCH   1   3
HETATM    3  C10 UNL     1      16.249  -5.295   7.356  1.00  0.00     0.025 C 
HETATM    4  C2  UNL     1      16.700  -3.960   6.816  1.00  0.00     0.001 C 
HETATM    5  C1  UNL     1      15.828  -2.825   7.279  1.00  0.00     0.011 C 
HETATM    6  C3  UNL     1      16.775  -4.041   5.329  1.00  0.00    -0.009 C 
HETATM    7  C4  UNL     1      17.845  -5.017   4.916  1.00  0.00     0.010 C 
HETATM    8  C8  UNL     1      15.428  -4.397   4.764  1.00  0.00     0.010 C 
HETATM    9  C5  UNL     1      17.460  -6.370   5.489  1.00  0.00    -0.013 C 
HETATM   10  C6  UNL     1      16.160  -6.770   4.829  1.00  0.00     0.009 C 
HETATM   11  C19 UNL     1      17.353  -6.293   6.976  1.00  0.00     0.022 C 
HETATM   12  C7  UNL     1      15.076  -5.783   5.223  1.00  0.00    -0.013 C 
HETATM   13  C9  UNL     1      14.991  -5.788   6.724  1.00  0.00     0.022 C 
ENDBRANCH   1   3
BRANCH   1  14
HETATM   14  C12 UNL     1      14.734  -5.352   9.389  1.00  0.00     0.119 C 
BRANCH  14  15
HETATM   15  C13 UNL     1      14.562  -4.505  10.629  1.00  0.00     0.199 C 
HETATM   16  O2  UNL     1      14.273  -3.193  10.151  1.00  0.00    -0.291 OA
HETATM   17  N1  UNL     1      13.311  -2.758  10.927  1.00  0.00    -0.186 NA
HETATM   18  C14 UNL     1      12.456  -1.722  10.505  1.00  0.00     0.121 C 
HETATM   19  C17 UNL     1      12.364  -3.900  10.878  1.00  0.00     0.134 C 
HETATM   20  C15 UNL     1      11.252  -1.951  11.440  1.00  0.00     0.019 C 
HETATM   21  C16 UNL     1      11.373  -3.424  11.875  1.00  0.00     0.029 C 
HETATM   22  C18 UNL     1      13.302  -4.936  11.283  1.00  0.00     0.032 C 
HETATM   23  N2  UNL     1      13.089  -5.938  12.004  1.00  0.00    -0.402 N 
ATOM     24  H22 UNL     1      13.747  -6.663  12.287  1.00  0.00     0.155 HD
ATOM     25  H21 UNL     1      12.223  -6.235  12.453  1.00  0.00     0.155 HD
ENDBRANCH  14  15
ENDBRANCH   1  14
TORSDOF 3
ENDMDL
MODEL 2
REMARK VINA RESULT: -8.014972610      0.973      1.127
REMARK  3 active torsions:
REMARK  status: ('A' for Active; 'I' for Inactive)
REMARK    1  A    between atoms: C10_10  and  C11_11 
REMARK    2  A    between atoms: C11_11  and  C12_13 
REMARK    3  A    between atoms: C12_13  and  C13_14 
ROOT
HETATM    1  C11 UNL     1      16.074  -4.959   8.034  1.00  0.00     0.138 C 
HETATM    2  O1  UNL     1      16.949  -5.247   8.815  1.00  0.00    -0.297 OA
ENDROOT
BRANCH   1   3
HETATM    3  C10 UNL     1      16.247  -5.237   6.594  1.00  0.00     0.025 C 
HETATM    4  C2  UNL     1      17.118  -4.214   5.906  1.00  0.00     0.001 C 
HETATM    5  C1  UNL     1      16.658  -2.803   6.155  1.00  0.00     0.011 C 
HETATM    6  C3  UNL     1      17.183  -4.536   4.451  1.00  0.00    -0.009 C 
HETATM    7  C4  UNL     1      17.881  -5.854   4.243  1.00  0.00     0.010 C 
HETATM    8  C8  UNL     1      15.802  -4.520   3.858  1.00  0.00     0.010 C 
HETATM    9  C5  UNL     1      17.066  -6.910   4.970  1.00  0.00    -0.013 C 
HETATM   10  C6  UNL     1      15.717  -6.965   4.291  1.00  0.00     0.009 C 
HETATM   11  C19 UNL     1      16.969  -6.582   6.423  1.00  0.00     0.022 C 
HETATM   12  C7  UNL     1      15.009  -5.635   4.479  1.00  0.00    -0.013 C 
HETATM   13  C9  UNL     1      14.906  -5.388   5.958  1.00  0.00     0.022 C 
ENDBRANCH   1   3
BRANCH   1  14
HETATM   14  C12 UNL     1      14.829  -4.333   8.493  1.00  0.00     0.119 C 
BRANCH  14  15
HETATM   15  C13 UNL     1      14.792  -4.097   9.986  1.00  0.00     0.199 C 
HETATM   16  O2  UNL     1      13.908  -2.993  10.169  1.00  0.00    -0.291 OA
HETATM   17  N1  UNL     1      13.175  -3.320  11.204  1.00  0.00    -0.186 NA
HETATM   18  C14 UNL     1      11.916  -2.723  11.414  1.00  0.00     0.121 C 
HETATM   19  C17 UNL     1      12.744  -4.690  10.831  1.00  0.00     0.134 C 
HETATM   20  C15 UNL     1      11.265  -3.762  12.348  1.00  0.00     0.019 C 
HETATM   21  C16 UNL     1      12.046  -5.064  12.085  1.00  0.00     0.029 C 
HETATM   22  C18 UNL     1      14.069  -5.241  10.592  1.00  0.00     0.032 C 
HETATM   23  N2  UNL     1      14.486  -6.396  10.840  1.00  0.00    -0.402 N 
ATOM     24  H22 UNL     1      15.414  -6.782  10.673  1.00  0.00     0.155 HD
ATOM     25  H21 UNL     1      13.989  -7.184  11.257  1.00  0.00     0.155 HD
ENDBRANCH  14  15
ENDBRANCH   1  14
TORSDOF 3
ENDMDL
MODEL 3
REMARK VINA RESULT: -7.765770941      1.220      2.281
REMARK  3 active torsions:
REMARK  status: ('A' for Active; 'I' for Inactive)
REMARK    1  A    between atoms: C10_10  and  C11_11 
REMARK    2  A    between atoms: C11_11  and  C12_13 
REMARK    3  A    between atoms: C12_13  and  C13_14 
ROOT
HETATM    1  C11 UNL     1      15.650  -3.816   7.564  1.00  0.00     0.138 C 
HETATM    2  O1  UNL     1      16.077  -2.717   7.823  1.00  0.00    -0.297 OA
ENDROOT
BRANCH   1   3
HETATM    3  C10 UNL     1      16.241  -4.599   6.460  1.00  0.00     0.025 C 
HETATM    4  C2  UNL     1      16.616  -6.000   6.877  1.00  0.00     0.001 C 
HETATM    5  C1  UNL     1      17.481  -6.024   8.108  1.00  0.00     0.011 C 
HETATM    6  C3  UNL     1      17.262  -6.690   5.723  1.00  0.00    -0.009 C 
HETATM    7  C4  UNL     1      16.270  -6.862   4.602  1.00  0.00     0.010 C 
HETATM    8  C8  UNL     1      18.488  -5.934   5.291  1.00  0.00     0.010 C 
HETATM    9  C5  UNL     1      15.820  -5.473   4.187  1.00  0.00    -0.013 C 
HETATM   10  C6  UNL     1      17.040  -4.760   3.648  1.00  0.00     0.009 C 
HETATM   11  C19 UNL     1      15.200  -4.761   5.342  1.00  0.00     0.022 C 
HETATM   12  C7  UNL     1      18.055  -4.596   4.765  1.00  0.00    -0.013 C 
HETATM   13  C9  UNL     1      17.382  -3.837   5.873  1.00  0.00     0.022 C 
ENDBRANCH   1   3
BRANCH   1  14
HETATM   14  C12 UNL     1      14.544  -4.396   8.334  1.00  0.00     0.119 C 
BRANCH  14  15
HETATM   15  C13 UNL     1      14.620  -4.094   9.813  1.00  0.00     0.199 C 
HETATM   16  O2  UNL     1      13.712  -3.016  10.023  1.00  0.00    -0.291 OA
HETATM   17  N1  UNL     1      13.080  -3.321  11.129  1.00  0.00    -0.186 NA
HETATM   18  C14 UNL     1      11.820  -2.761  11.419  1.00  0.00     0.121 C 
HETATM   19  C17 UNL     1      12.674  -4.722  10.851  1.00  0.00     0.134 C 
HETATM   20  C15 UNL     1      11.289  -3.779  12.447  1.00  0.00     0.019 C 
HETATM   21  C16 UNL     1      12.096  -5.063  12.174  1.00  0.00     0.029 C 
HETATM   22  C18 UNL     1      13.996  -5.235  10.526  1.00  0.00     0.032 C 
HETATM   23  N2  UNL     1      14.476  -6.362  10.786  1.00  0.00    -0.402 N 
ATOM     24  H22 UNL     1      15.402  -6.722  10.558  1.00  0.00     0.155 HD
ATOM     25  H21 UNL     1      14.047  -7.147  11.276  1.00  0.00     0.155 HD
ENDBRANCH  14  15
ENDBRANCH   1  14
TORSDOF 3
ENDMDL
MODEL 4
REMARK VINA RESULT: -7.756437773      2.703      6.574
REMARK  3 active torsions:
REMARK  status: ('A' for Active; 'I' for Inactive)
REMARK    1  A    between atoms: C10_10  and  C11_11 
REMARK    2  A    between atoms: C11_11  and  C12_13 
REMARK    3  A    between atoms: C12_13  and  C13_14 
ROOT
HETATM    1  C11 UNL     1      15.755  -4.267   9.115  1.00  0.00     0.138 C 
HETATM    2  O1  UNL     1      16.470  -4.977   9.781  1.00  0.00    -0.297 OA
ENDROOT
BRANCH   1   3
HETATM    3  C10 UNL     1      14.979  -3.187   9.759  1.00  0.00     0.025 C 
HETATM    4  C2  UNL     1      14.182  -3.673  10.945  1.00  0.00     0.001 C 
HETATM    5  C1  UNL     1      13.322  -4.862  10.614  1.00  0.00     0.011 C 
HETATM    6  C3  UNL     1      13.384  -2.535  11.488  1.00  0.00    -0.009 C 
HETATM    7  C4  UNL     1      14.302  -1.474  12.035  1.00  0.00     0.010 C 
HETATM    8  C8  UNL     1      12.461  -2.002  10.428  1.00  0.00     0.010 C 
HETATM    9  C5  UNL     1      15.167  -0.994  10.883  1.00  0.00    -0.013 C 
HETATM   10  C6  UNL     1      14.239  -0.357   9.874  1.00  0.00     0.009 C 
HETATM   11  C19 UNL     1      15.948  -2.131  10.312  1.00  0.00     0.022 C 
HETATM   12  C7  UNL     1      13.296  -1.414   9.327  1.00  0.00    -0.013 C 
HETATM   13  C9  UNL     1      14.143  -2.503   8.731  1.00  0.00     0.022 C 
ENDBRANCH   1   3
BRANCH   1  14
HETATM   14  C12 UNL     1      15.641  -4.457   7.666  1.00  0.00     0.119 C 
BRANCH  14  15
HETATM   15  C13 UNL     1      15.690  -5.909   7.246  1.00  0.00     0.199 C 
HETATM   16  O2  UNL     1      14.829  -6.001   6.113  1.00  0.00    -0.291 OA
HETATM   17  N1  UNL     1      15.473  -6.764   5.265  1.00  0.00    -0.186 NA
HETATM   18  C14 UNL     1      15.178  -6.722   3.888  1.00  0.00     0.121 C 
HETATM   19  C17 UNL     1      16.810  -6.121   5.256  1.00  0.00     0.134 C 
HETATM   20  C15 UNL     1      16.475  -7.318   3.305  1.00  0.00     0.019 C 
HETATM   21  C16 UNL     1      17.532  -7.097   4.403  1.00  0.00     0.029 C 
HETATM   22  C18 UNL     1      17.043  -6.159   6.691  1.00  0.00     0.032 C 
HETATM   23  N2  UNL     1      18.121  -6.354   7.298  1.00  0.00    -0.402 N 
ATOM     24  H22 UNL     1      18.284  -6.381   8.304  1.00  0.00     0.155 HD
ATOM     25  H21 UNL     1      19.052  -6.526   6.917  1.00  0.00     0.155 HD
ENDBRANCH  14  15
ENDBRANCH   1  14
TORSDOF 3
ENDMDL
MODEL 5
REMARK VINA RESULT: -7.667036143      1.281      1.595
REMARK  3 active torsions:
REMARK  status: ('A' for Active; 'I' for Inactive)
REMARK    1  A    between atoms: C10_10  and  C11_11 
REMARK    2  A    between atoms: C11_11  and  C12_13 
REMARK    3  A    between atoms: C12_13  and  C13_14 
ROOT
HETATM    1  C11 UNL     1      16.575  -5.793   7.545  1.00  0.00     0.138 C 
HETATM    2  O1  UNL     1      17.636  -5.953   8.100  1.00  0.00    -0.297 OA
ENDROOT
BRANCH   1   3
HETATM    3  C10 UNL     1      16.500  -5.824   6.070  1.00  0.00     0.025 C 
HETATM    4  C2  UNL     1      17.202  -4.653   5.428  1.00  0.00     0.001 C 
HETATM    5  C1  UNL     1      16.748  -3.331   5.986  1.00  0.00     0.011 C 
HETATM    6  C3  UNL     1      17.019  -4.731   3.950  1.00  0.00    -0.009 C 
HETATM    7  C4  UNL     1      17.711  -5.954   3.406  1.00  0.00     0.010 C 
HETATM    8  C8  UNL     1      15.555  -4.704   3.610  1.00  0.00     0.010 C 
HETATM    9  C5  UNL     1      17.072  -7.160   4.071  1.00  0.00    -0.013 C 
HETATM   10  C6  UNL     1      15.626  -7.188   3.631  1.00  0.00     0.009 C 
HETATM   11  C19 UNL     1      17.223  -7.077   5.554  1.00  0.00     0.022 C 
HETATM   12  C7  UNL     1      14.921  -5.950   4.158  1.00  0.00    -0.013 C 
HETATM   13  C9  UNL     1      15.073  -5.952   5.653  1.00  0.00     0.022 C 
ENDBRANCH   1   3
BRANCH   1  14
HETATM   14  C12 UNL     1      15.348  -5.568   8.315  1.00  0.00     0.119 C 
BRANCH  14  15
HETATM   15  C13 UNL     1      15.592  -4.912   9.655  1.00  0.00     0.199 C 
HETATM   16  O2  UNL     1      15.747  -3.524   9.370  1.00  0.00    -0.291 OA
HETATM   17  N1  UNL     1      15.071  -2.912  10.311  1.00  0.00    -0.186 NA
HETATM   18  C14 UNL     1      14.606  -1.595  10.126  1.00  0.00     0.121 C 
HETATM   19  C17 UNL     1      13.780  -3.643  10.259  1.00  0.00     0.134 C 
HETATM   20  C15 UNL     1      13.483  -1.542  11.181  1.00  0.00     0.019 C 
HETATM   21  C16 UNL     1      13.111  -3.017  11.426  1.00  0.00     0.029 C 
HETATM   22  C18 UNL     1      14.322  -4.985  10.416  1.00  0.00     0.032 C 
HETATM   23  N2  UNL     1      13.829  -5.952  11.040  1.00  0.00    -0.402 N 
ATOM     24  H22 UNL     1      14.209  -6.892  11.151  1.00  0.00     0.155 HD
ATOM     25  H21 UNL     1      12.955  -6.003  11.564  1.00  0.00     0.155 HD
ENDBRANCH  14  15
ENDBRANCH   1  14
TORSDOF 3
ENDMDL
