MODEL 1
REMARK VINA RESULT: -8.035818901      0.000      0.000
REMARK  3 active torsions:
REMARK  status: ('A' for Active; 'I' for Inactive)
REMARK    1  A    between atoms: O1_2  and  C2_3 
REMARK    2  A    between atoms: N1_11  and  C10_12 
REMARK    3  A    between atoms: C10_12  and  C11_13 
ROOT
HETATM    1  C2  UNL     1      19.325  -6.628   3.795  1.00  0.00     0.120 C 
HETATM    2  C3  UNL     1      19.652  -5.876   5.034  1.00  0.00     0.034 C 
HETATM    3  C4  UNL     1      18.618  -4.782   5.193  1.00  0.00     0.033 C 
HETATM    4  C5  UNL     1      17.366  -5.465   5.720  1.00  0.00     0.034 C 
HETATM    5  C6  UNL     1      17.051  -6.703   4.908  1.00  0.00     0.033 C 
HETATM    6  C7  UNL     1      17.856  -6.771   3.637  1.00  0.00     0.034 C 
HETATM    7  C8  UNL     1      16.211  -4.501   5.736  1.00  0.00     0.051 C 
HETATM    8  C9  UNL     1      15.087  -5.016   6.626  1.00  0.00     0.128 C 
HETATM    9  N1  UNL     1      15.553  -5.344   7.929  1.00  0.00    -0.355 N 
HETATM   10  C18 UNL     1      16.905  -5.851   8.064  1.00  0.00     0.186 C 
HETATM   11  N2  UNL     1      17.394  -6.314   9.317  1.00  0.00    -0.064 NA
HETATM   12  N3  UNL     1      17.649  -5.879   7.062  1.00  0.00    -0.355 N 
ATOM     13  H3  UNL     1      18.588  -6.247   7.221  1.00  0.00     0.163 HD
ENDROOT
BRANCH   9  14
HETATM   14  C10 UNL     1      14.816  -5.204   9.123  1.00  0.00     0.130 C 
BRANCH  14  15
HETATM   15  C11 UNL     1      15.170  -4.133  10.064  1.00  0.00     0.004 C 
HETATM   16  C12 UNL     1      15.059  -2.767   9.505  1.00  0.00     0.006 C 
HETATM   17  C13 UNL     1      15.149  -1.693  10.588  1.00  0.00     0.000 C 
HETATM   18  C14 UNL     1      13.856  -1.427  11.276  1.00  0.00     0.000 C 
HETATM   19  C15 UNL     1      12.731  -2.300  10.849  1.00  0.00     0.000 C 
HETATM   20  C16 UNL     1      12.951  -3.758  11.096  1.00  0.00     0.000 C 
HETATM   21  C17 UNL     1      14.353  -4.167  11.347  1.00  0.00     0.006 C 
ENDBRANCH  14  15
ENDBRANCH   9  14
BRANCH   1  22
HETATM   22  O1  UNL     1      20.017  -7.827   3.674  1.00  0.00    -0.391 OA
HETATM   23  C1  UNL     1      21.339  -7.758   4.038  1.00  0.00     0.202 C 
ENDBRANCH   1  22
TORSDOF 3
ENDMDL
MODEL 2
REMARK VINA RESULT: -7.957905422      0.767      1.458
REMARK  3 active torsions:
REMARK  status: ('A' for Active; 'I' for Inactive)
REMARK    1  A    between atoms: O1_2  and  C2_3 
REMARK    2  A    between atoms: N1_11  and  C10_12 
REMARK    3  A    between atoms: C10_12  and  C11_13 
ROOT
HETATM    1  C2  UNL     1      19.345  -6.506   3.638  1.00  0.00     0.120 C 
HETATM    2  C3  UNL     1      19.934  -6.135   4.951  1.00  0.00     0.034 C 
HETATM    3  C4  UNL     1      19.333  -4.810   5.366  1.00  0.00     0.033 C 
HETATM    4  C5  UNL     1      17.936  -5.128   5.877  1.00  0.00     0.034 C 
HETATM    5  C6  UNL     1      17.205  -6.030   4.906  1.00  0.00     0.033 C 
HETATM    6  C7  UNL     1      17.911  -6.129   3.579  1.00  0.00     0.034 C 
HETATM    7  C8  UNL     1      17.174  -3.858   6.141  1.00  0.00     0.051 C 
HETATM    8  C9  UNL     1      15.963  -4.126   7.025  1.00  0.00     0.128 C 
HETATM    9  N1  UNL     1      16.321  -4.816   8.217  1.00  0.00    -0.355 N 
HETATM   10  C18 UNL     1      17.426  -5.753   8.159  1.00  0.00     0.186 C 
HETATM   11  N2  UNL     1      17.760  -6.566   9.278  1.00  0.00    -0.064 NA
HETATM   12  N3  UNL     1      18.094  -5.844   7.108  1.00  0.00    -0.355 N 
ATOM     13  H3  UNL     1      18.857  -6.521   7.130  1.00  0.00     0.163 HD
ENDROOT
BRANCH   9  14
HETATM   14  C10 UNL     1      15.702  -4.657   9.473  1.00  0.00     0.130 C 
BRANCH  14  15
HETATM   15  C11 UNL     1      14.456  -3.883   9.568  1.00  0.00     0.004 C 
HETATM   16  C12 UNL     1      13.795  -3.948  10.891  1.00  0.00     0.006 C 
HETATM   17  C13 UNL     1      12.683  -2.911  11.030  1.00  0.00     0.000 C 
HETATM   18  C14 UNL     1      13.169  -1.562  11.431  1.00  0.00     0.000 C 
HETATM   19  C15 UNL     1      14.647  -1.441  11.548  1.00  0.00     0.000 C 
HETATM   20  C16 UNL     1      15.392  -1.705  10.279  1.00  0.00     0.000 C 
HETATM   21  C17 UNL     1      14.635  -2.413   9.221  1.00  0.00     0.006 C 
ENDBRANCH  14  15
ENDBRANCH   9  14
BRANCH   1  22
HETATM   22  O1  UNL     1      19.591  -7.823   3.271  1.00  0.00    -0.391 OA
HETATM   23  C1  UNL     1      20.902  -8.212   3.393  1.00  0.00     0.202 C 
ENDBRANCH   1  22
TORSDOF 3
ENDMDL
MODEL 3
REMARK VINA RESULT: -7.864684296      2.826      7.829
REMARK  3 active torsions:
REMARK  status: ('A' for Active; 'I' for Inactive)
REMARK    1  A    between atoms: O1_2  and  C2_3 
REMARK    2  A    between atoms: N1_11  and  C10_12 
REMARK    3  A    between atoms: C10_12  and  C11_13 
ROOT
HETATM    1  C2  UNL     1      13.230  -4.237  11.439  1.00  0.00     0.120 C 
HETATM    2  C3  UNL     1      13.789  -3.175  10.563  1.00  0.00     0.034 C 
HETATM    3  C4  UNL     1      15.258  -3.478  10.356  1.00  0.00     0.033 C 
HETATM    4  C5  UNL     1      15.311  -4.603   9.334  1.00  0.00     0.034 C 
HETATM    5  C6  UNL     1      14.347  -5.709   9.706  1.00  0.00     0.033 C 
HETATM    6  C7  UNL     1      13.822  -5.558  11.110  1.00  0.00     0.034 C 
HETATM    7  C8  UNL     1      16.718  -5.115   9.193  1.00  0.00     0.051 C 
HETATM    8  C9  UNL     1      16.875  -5.925   7.912  1.00  0.00     0.128 C 
HETATM    9  N1  UNL     1      16.431  -5.201   6.771  1.00  0.00    -0.355 N 
HETATM   10  C18 UNL     1      15.331  -4.270   6.937  1.00  0.00     0.186 C 
HETATM   11  N2  UNL     1      14.756  -3.606   5.818  1.00  0.00    -0.064 NA
HETATM   12  N3  UNL     1      14.885  -4.051   8.082  1.00  0.00    -0.355 N 
ATOM     13  H3  UNL     1      14.111  -3.388   8.133  1.00  0.00     0.163 HD
ENDROOT
BRANCH   9  14
HETATM   14  C10 UNL     1      16.981  -5.294   5.476  1.00  0.00     0.130 C 
BRANCH  14  15
HETATM   15  C11 UNL     1      18.102  -6.212   5.236  1.00  0.00     0.004 C 
HETATM   16  C12 UNL     1      18.140  -6.787   3.872  1.00  0.00     0.006 C 
HETATM   17  C13 UNL     1      19.464  -7.492   3.581  1.00  0.00     0.000 C 
HETATM   18  C14 UNL     1      20.546  -6.572   3.134  1.00  0.00     0.000 C 
HETATM   19  C15 UNL     1      20.176  -5.132   3.125  1.00  0.00     0.000 C 
HETATM   20  C16 UNL     1      19.796  -4.581   4.462  1.00  0.00     0.000 C 
HETATM   21  C17 UNL     1      19.461  -5.583   5.501  1.00  0.00     0.006 C 
ENDBRANCH  14  15
ENDBRANCH   9  14
BRANCH   1  22
HETATM   22  O1  UNL     1      11.842  -4.245  11.484  1.00  0.00    -0.391 OA
HETATM   23  C1  UNL     1      11.264  -3.000  11.438  1.00  0.00     0.202 C 
ENDBRANCH   1  22
TORSDOF 3
ENDMDL
MODEL 4
REMARK VINA RESULT: -7.746858606      2.989      7.893
REMARK  3 active torsions:
REMARK  status: ('A' for Active; 'I' for Inactive)
REMARK    1  A    between atoms: O1_2  and  C2_3 
REMARK    2  A    between atoms: N1_11  and  C10_12 
REMARK    3  A    between atoms: C10_12  and  C11_13 
ROOT
HETATM    1  C2  UNL     1      13.234  -4.194  11.440  1.00  0.00     0.120 C 
HETATM    2  C3  UNL     1      13.751  -3.179  10.487  1.00  0.00     0.034 C 
HETATM    3  C4  UNL     1      15.216  -3.478  10.247  1.00  0.00     0.033 C 
HETATM    4  C5  UNL     1      15.249  -4.659   9.291  1.00  0.00     0.034 C 
HETATM    5  C6  UNL     1      14.312  -5.752   9.758  1.00  0.00     0.033 C 
HETATM    6  C7  UNL     1      13.832  -5.526  11.168  1.00  0.00     0.034 C 
HETATM    7  C8  UNL     1      16.657  -5.164   9.132  1.00  0.00     0.051 C 
HETATM    8  C9  UNL     1      16.781  -6.045   7.895  1.00  0.00     0.128 C 
HETATM    9  N1  UNL     1      16.291  -5.392   6.730  1.00  0.00    -0.355 N 
HETATM   10  C18 UNL     1      15.186  -4.465   6.879  1.00  0.00     0.186 C 
HETATM   11  N2  UNL     1      14.566  -3.872   5.744  1.00  0.00    -0.064 NA
HETATM   12  N3  UNL     1      14.775  -4.185   8.024  1.00  0.00    -0.355 N 
ATOM     13  H3  UNL     1      13.995  -3.528   8.063  1.00  0.00     0.163 HD
ENDROOT
BRANCH   9  14
HETATM   14  C10 UNL     1      16.799  -5.554   5.425  1.00  0.00     0.130 C 
BRANCH  14  15
HETATM   15  C11 UNL     1      16.476  -6.775   4.674  1.00  0.00     0.004 C 
HETATM   16  C12 UNL     1      15.453  -6.591   3.620  1.00  0.00     0.006 C 
HETATM   17  C13 UNL     1      15.366  -7.797   2.686  1.00  0.00     0.000 C 
HETATM   18  C14 UNL     1      16.375  -7.782   1.593  1.00  0.00     0.000 C 
HETATM   19  C15 UNL     1      17.335  -6.647   1.646  1.00  0.00     0.000 C 
HETATM   20  C16 UNL     1      18.175  -6.604   2.882  1.00  0.00     0.000 C 
HETATM   21  C17 UNL     1      17.690  -7.418   4.021  1.00  0.00     0.006 C 
ENDBRANCH  14  15
ENDBRANCH   9  14
BRANCH   1  22
HETATM   22  O1  UNL     1      11.848  -4.215  11.532  1.00  0.00    -0.391 OA
HETATM   23  C1  UNL     1      11.256  -2.978  11.462  1.00  0.00     0.202 C 
ENDBRANCH   1  22
TORSDOF 3
ENDMDL
MODEL 5
REMARK VINA RESULT: -7.669688390      2.846      7.744
REMARK  3 active torsions:
REMARK  status: ('A' for Active; 'I' for Inactive)
REMARK    1  A    between atoms: O1_2  and  C2_3 
REMARK    2  A    between atoms: N1_11  and  C10_12 
REMARK    3  A    between atoms: C10_12  and  C11_13 
ROOT
HETATM    1  C2  UNL     1      13.200  -3.712  11.360  1.00  0.00     0.120 C 
HETATM    2  C3  UNL     1      13.646  -2.929  10.179  1.00  0.00     0.034 C 
HETATM    3  C4  UNL     1      15.111  -3.237   9.951  1.00  0.00     0.033 C 
HETATM    4  C5  UNL     1      15.151  -4.604   9.288  1.00  0.00     0.034 C 
HETATM    5  C6  UNL     1      14.270  -5.585  10.033  1.00  0.00     0.033 C 
HETATM    6  C7  UNL     1      13.834  -5.054  11.373  1.00  0.00     0.034 C 
HETATM    7  C8  UNL     1      16.569  -5.095   9.188  1.00  0.00     0.051 C 
HETATM    8  C9  UNL     1      16.679  -6.233   8.181  1.00  0.00     0.128 C 
HETATM    9  N1  UNL     1      16.125  -5.878   6.920  1.00  0.00    -0.355 N 
HETATM   10  C18 UNL     1      14.994  -4.971   6.901  1.00  0.00     0.186 C 
HETATM   11  N2  UNL     1      14.313  -4.670   5.689  1.00  0.00    -0.064 NA
HETATM   12  N3  UNL     1      14.615  -4.446   7.968  1.00  0.00    -0.355 N 
ATOM     13  H3  UNL     1      13.815  -3.818   7.890  1.00  0.00     0.163 HD
ENDROOT
BRANCH   9  14
HETATM   14  C10 UNL     1      16.591  -6.322   5.665  1.00  0.00     0.130 C 
BRANCH  14  15
HETATM   15  C11 UNL     1      17.585  -5.516   4.942  1.00  0.00     0.004 C 
HETATM   16  C12 UNL     1      18.927  -5.498   5.567  1.00  0.00     0.006 C 
HETATM   17  C13 UNL     1      19.985  -4.902   4.640  1.00  0.00     0.000 C 
HETATM   18  C14 UNL     1      20.543  -5.876   3.663  1.00  0.00     0.000 C 
HETATM   19  C15 UNL     1      19.924  -7.228   3.707  1.00  0.00     0.000 C 
HETATM   20  C16 UNL     1      18.460  -7.248   3.404  1.00  0.00     0.000 C 
HETATM   21  C17 UNL     1      17.764  -5.942   3.493  1.00  0.00     0.006 C 
ENDBRANCH  14  15
ENDBRANCH   9  14
BRANCH   1  22
HETATM   22  O1  UNL     1      11.820  -3.746  11.515  1.00  0.00    -0.391 OA
HETATM   23  C1  UNL     1      11.180  -2.582  11.167  1.00  0.00     0.202 C 
ENDBRANCH   1  22
TORSDOF 3
ENDMDL
