MODEL 1
REMARK VINA RESULT: -6.751957662      0.000      0.000
REMARK  7 active torsions:
REMARK  status: ('A' for Active; 'I' for Inactive)
REMARK    1  A    between atoms: C2_2  and  C5_5 
REMARK    2  A    between atoms: C5_5  and  C6_6 
REMARK    3  A    between atoms: C6_6  and  N1_8 
REMARK    4  A    between atoms: N1_8  and  C7_10 
REMARK    5  A    between atoms: C10_13  and  O1_14 
REMARK    6  A    between atoms: O1_14  and  C11_15 
REMARK    7  A    between atoms: C11_15  and  C12_17 
ROOT
HETATM    1  C7  UNL     1      15.568  -4.827   8.262  1.00  0.00     0.082 C 
HETATM    2  C8  UNL     1      16.451  -5.939   8.767  1.00  0.00     0.028 C 
HETATM    3  C9  UNL     1      17.710  -6.112   7.999  1.00  0.00     0.034 C 
HETATM    4  C10 UNL     1      17.531  -5.758   6.561  1.00  0.00     0.132 C 
HETATM    5  C16 UNL     1      16.095  -6.050   6.184  1.00  0.00     0.034 C 
HETATM    6  C17 UNL     1      15.274  -4.911   6.809  1.00  0.00     0.028 C 
ENDROOT
BRANCH   1   7
HETATM    7  N1  UNL     1      14.309  -4.781   8.994  1.00  0.00    -0.380 N 
ATOM      8  H1  UNL     1      13.448  -5.059   8.523  1.00  0.00     0.160 HD
BRANCH   7   9
HETATM    9  C6  UNL     1      14.256  -4.359  10.343  1.00  0.00     0.074 C 
HETATM   10  S1  UNL     1      13.413  -5.247  11.437  1.00  0.00    -0.066 SA
BRANCH   9  11
HETATM   11  C5  UNL     1      14.939  -3.136  10.780  1.00  0.00     0.077 C 
BRANCH  11  12
HETATM   12  C2  UNL     1      14.200  -1.859  10.545  1.00  0.00    -0.045 C 
HETATM   13  C1  UNL     1      12.800  -1.889  11.145  1.00  0.00     0.015 C 
HETATM   14  C3  UNL     1      14.956  -0.780  11.347  1.00  0.00     0.015 C 
HETATM   15  C4  UNL     1      14.192  -1.384   9.117  1.00  0.00     0.015 C 
ENDBRANCH  11  12
ENDBRANCH   9  11
ENDBRANCH   7   9
ENDBRANCH   1   7
BRANCH   4  16
HETATM   16  O1  UNL     1      18.428  -6.435   5.706  1.00  0.00    -0.315 OA
BRANCH  16  17
HETATM   17  C11 UNL     1      19.457  -5.785   5.041  1.00  0.00     0.267 C 
HETATM   18  O2  UNL     1      19.710  -4.611   5.393  1.00  0.00    -0.264 OA
BRANCH  17  19
HETATM   19  C12 UNL     1      20.249  -6.403   3.958  1.00  0.00     0.037 C 
HETATM   20  C13 UNL     1      20.853  -5.349   3.043  1.00  0.00     0.025 C 
HETATM   21  C14 UNL     1      19.340  -7.313   3.166  1.00  0.00     0.025 C 
HETATM   22  C15 UNL     1      21.349  -7.284   4.537  1.00  0.00     0.025 C 
ENDBRANCH  17  19
ENDBRANCH  16  17
ENDBRANCH   4  16
TORSDOF 7
ENDMDL
MODEL 2
REMARK VINA RESULT: -6.569068462      1.019      1.438
REMARK  7 active torsions:
REMARK  status: ('A' for Active; 'I' for Inactive)
REMARK    1  A    between atoms: C2_2  and  C5_5 
REMARK    2  A    between atoms: C5_5  and  C6_6 
REMARK    3  A    between atoms: C6_6  and  N1_8 
REMARK    4  A    between atoms: N1_8  and  C7_10 
REMARK    5  A    between atoms: C10_13  and  O1_14 
REMARK    6  A    between atoms: O1_14  and  C11_15 
REMARK    7  A    between atoms: C11_15  and  C12_17 
ROOT
HETATM    1  C7  UNL     1      15.345  -4.889   8.737  1.00  0.00     0.082 C 
HETATM    2  C8  UNL     1      16.264  -6.022   9.116  1.00  0.00     0.028 C 
HETATM    3  C9  UNL     1      17.525  -6.071   8.335  1.00  0.00     0.034 C 
HETATM    4  C10 UNL     1      17.332  -5.565   6.945  1.00  0.00     0.132 C 
HETATM    5  C16 UNL     1      15.904  -5.858   6.536  1.00  0.00     0.034 C 
HETATM    6  C17 UNL     1      15.050  -4.821   7.282  1.00  0.00     0.028 C 
ENDROOT
BRANCH   1   7
HETATM    7  N1  UNL     1      14.087  -4.963   9.468  1.00  0.00    -0.380 N 
ATOM      8  H1  UNL     1      13.291  -5.440   9.044  1.00  0.00     0.160 HD
BRANCH   7   9
HETATM    9  C6  UNL     1      13.946  -4.387  10.752  1.00  0.00     0.074 C 
HETATM   10  S1  UNL     1      12.948  -5.091  11.850  1.00  0.00    -0.066 SA
BRANCH   9  11
HETATM   11  C5  UNL     1      14.676  -3.168  11.118  1.00  0.00     0.077 C 
BRANCH  11  12
HETATM   12  C2  UNL     1      14.011  -1.879  10.756  1.00  0.00    -0.045 C 
HETATM   13  C1  UNL     1      12.616  -1.766  11.359  1.00  0.00     0.015 C 
HETATM   14  C3  UNL     1      14.834  -0.772  11.445  1.00  0.00     0.015 C 
HETATM   15  C4  UNL     1      14.021  -1.551   9.288  1.00  0.00     0.015 C 
ENDBRANCH  11  12
ENDBRANCH   9  11
ENDBRANCH   7   9
ENDBRANCH   1   7
BRANCH   4  16
HETATM   16  O1  UNL     1      18.248  -6.116   6.021  1.00  0.00    -0.315 OA
BRANCH  16  17
HETATM   17  C11 UNL     1      18.225  -5.798   4.672  1.00  0.00     0.267 C 
HETATM   18  O2  UNL     1      18.296  -4.585   4.371  1.00  0.00    -0.264 OA
BRANCH  17  19
HETATM   19  C12 UNL     1      18.121  -6.806   3.597  1.00  0.00     0.037 C 
HETATM   20  C13 UNL     1      19.448  -7.517   3.375  1.00  0.00     0.025 C 
HETATM   21  C14 UNL     1      17.694  -6.105   2.330  1.00  0.00     0.025 C 
HETATM   22  C15 UNL     1      17.033  -7.823   3.920  1.00  0.00     0.025 C 
ENDBRANCH  17  19
ENDBRANCH  16  17
ENDBRANCH   4  16
TORSDOF 7
ENDMDL
MODEL 3
REMARK VINA RESULT: -6.505407154      3.151      8.024
REMARK  7 active torsions:
REMARK  status: ('A' for Active; 'I' for Inactive)
REMARK    1  A    between atoms: C2_2  and  C5_5 
REMARK    2  A    between atoms: C5_5  and  C6_6 
REMARK    3  A    between atoms: C6_6  and  N1_8 
REMARK    4  A    between atoms: N1_8  and  C7_10 
REMARK    5  A    between atoms: C10_13  and  O1_14 
REMARK    6  A    between atoms: O1_14  and  C11_15 
REMARK    7  A    between atoms: C11_15  and  C12_17 
ROOT
HETATM    1  C7  UNL     1      16.095  -5.323   6.366  1.00  0.00     0.082 C 
HETATM    2  C8  UNL     1      17.110  -5.512   7.465  1.00  0.00     0.028 C 
HETATM    3  C9  UNL     1      16.561  -5.348   8.835  1.00  0.00     0.034 C 
HETATM    4  C10 UNL     1      15.452  -4.352   8.868  1.00  0.00     0.132 C 
HETATM    5  C16 UNL     1      15.705  -3.335   7.777  1.00  0.00     0.034 C 
HETATM    6  C17 UNL     1      15.338  -4.049   6.466  1.00  0.00     0.028 C 
ENDROOT
BRANCH   1   7
HETATM    7  N1  UNL     1      16.721  -5.395   5.052  1.00  0.00    -0.380 N 
ATOM      8  H1  UNL     1      17.124  -4.551   4.645  1.00  0.00     0.160 HD
BRANCH   7   9
HETATM    9  C6  UNL     1      16.782  -6.611   4.331  1.00  0.00     0.074 C 
HETATM   10  S1  UNL     1      15.470  -7.115   3.483  1.00  0.00    -0.066 SA
BRANCH   9  11
HETATM   11  C5  UNL     1      17.999  -7.429   4.332  1.00  0.00     0.077 C 
BRANCH  11  12
HETATM   12  C2  UNL     1      19.234  -6.759   3.821  1.00  0.00    -0.045 C 
HETATM   13  C1  UNL     1      19.951  -5.973   4.911  1.00  0.00     0.015 C 
HETATM   14  C3  UNL     1      20.205  -7.895   3.443  1.00  0.00     0.015 C 
HETATM   15  C4  UNL     1      19.042  -5.945   2.570  1.00  0.00     0.015 C 
ENDBRANCH  11  12
ENDBRANCH   9  11
ENDBRANCH   7   9
ENDBRANCH   1   7
BRANCH   4  16
HETATM   16  O1  UNL     1      15.307  -3.723  10.125  1.00  0.00    -0.315 OA
BRANCH  16  17
HETATM   17  C11 UNL     1      14.077  -3.306  10.611  1.00  0.00     0.267 C 
HETATM   18  O2  UNL     1      13.265  -4.198  10.945  1.00  0.00    -0.264 OA
BRANCH  17  19
HETATM   19  C12 UNL     1      13.692  -1.887  10.747  1.00  0.00     0.037 C 
HETATM   20  C13 UNL     1      14.777  -1.083  11.449  1.00  0.00     0.025 C 
HETATM   21  C14 UNL     1      12.407  -1.820  11.539  1.00  0.00     0.025 C 
HETATM   22  C15 UNL     1      13.394  -1.280   9.382  1.00  0.00     0.025 C 
ENDBRANCH  17  19
ENDBRANCH  16  17
ENDBRANCH   4  16
TORSDOF 7
ENDMDL
MODEL 4
REMARK VINA RESULT: -6.486050824      3.085      8.057
REMARK  7 active torsions:
REMARK  status: ('A' for Active; 'I' for Inactive)
REMARK    1  A    between atoms: C2_2  and  C5_5 
REMARK    2  A    between atoms: C5_5  and  C6_6 
REMARK    3  A    between atoms: C6_6  and  N1_8 
REMARK    4  A    between atoms: N1_8  and  C7_10 
REMARK    5  A    between atoms: C10_13  and  O1_14 
REMARK    6  A    between atoms: O1_14  and  C11_15 
REMARK    7  A    between atoms: C11_15  and  C12_17 
ROOT
HETATM    1  C7  UNL     1      16.579  -5.689   6.412  1.00  0.00     0.082 C 
HETATM    2  C8  UNL     1      15.130  -5.553   6.804  1.00  0.00     0.028 C 
HETATM    3  C9  UNL     1      14.875  -4.529   7.848  1.00  0.00     0.034 C 
HETATM    4  C10 UNL     1      16.023  -4.406   8.792  1.00  0.00     0.132 C 
HETATM    5  C16 UNL     1      16.703  -5.756   8.877  1.00  0.00     0.034 C 
HETATM    6  C17 UNL     1      17.492  -5.894   7.566  1.00  0.00     0.028 C 
ENDROOT
BRANCH   1   7
HETATM    7  N1  UNL     1      16.769  -6.778   5.464  1.00  0.00    -0.380 N 
ATOM      8  H1  UNL     1      16.536  -7.731   5.745  1.00  0.00     0.160 HD
BRANCH   7   9
HETATM    9  C6  UNL     1      17.270  -6.543   4.162  1.00  0.00     0.074 C 
HETATM   10  S1  UNL     1      16.679  -5.290   3.281  1.00  0.00    -0.066 SA
BRANCH   9  11
HETATM   11  C5  UNL     1      18.308  -7.404   3.584  1.00  0.00     0.077 C 
BRANCH  11  12
HETATM   12  C2  UNL     1      19.693  -6.841   3.584  1.00  0.00    -0.045 C 
HETATM   13  C1  UNL     1      20.014  -6.110   4.882  1.00  0.00     0.015 C 
HETATM   14  C3  UNL     1      20.642  -8.057   3.564  1.00  0.00     0.015 C 
HETATM   15  C4  UNL     1      20.044  -6.022   2.372  1.00  0.00     0.015 C 
ENDBRANCH  11  12
ENDBRANCH   9  11
ENDBRANCH   7   9
ENDBRANCH   1   7
BRANCH   4  16
HETATM   16  O1  UNL     1      15.643  -3.948  10.073  1.00  0.00    -0.315 OA
BRANCH  16  17
HETATM   17  C11 UNL     1      14.354  -3.527  10.360  1.00  0.00     0.267 C 
HETATM   18  O2  UNL     1      13.485  -4.416  10.511  1.00  0.00    -0.264 OA
BRANCH  17  19
HETATM   19  C12 UNL     1      13.968  -2.107  10.493  1.00  0.00     0.037 C 
HETATM   20  C13 UNL     1      15.000  -1.326  11.294  1.00  0.00     0.025 C 
HETATM   21  C14 UNL     1      12.626  -2.043  11.181  1.00  0.00     0.025 C 
HETATM   22  C15 UNL     1      13.785  -1.473   9.120  1.00  0.00     0.025 C 
ENDBRANCH  17  19
ENDBRANCH  16  17
ENDBRANCH   4  16
TORSDOF 7
ENDMDL
MODEL 5
REMARK VINA RESULT: -6.480164595      3.107      7.909
REMARK  7 active torsions:
REMARK  status: ('A' for Active; 'I' for Inactive)
REMARK    1  A    between atoms: C2_2  and  C5_5 
REMARK    2  A    between atoms: C5_5  and  C6_6 
REMARK    3  A    between atoms: C6_6  and  N1_8 
REMARK    4  A    between atoms: N1_8  and  C7_10 
REMARK    5  A    between atoms: C10_13  and  O1_14 
REMARK    6  A    between atoms: O1_14  and  C11_15 
REMARK    7  A    between atoms: C11_15  and  C12_17 
ROOT
HETATM    1  C7  UNL     1      16.535  -5.587   6.749  1.00  0.00     0.082 C 
HETATM    2  C8  UNL     1      15.088  -5.227   6.977  1.00  0.00     0.028 C 
HETATM    3  C9  UNL     1      14.877  -4.183   8.010  1.00  0.00     0.034 C 
HETATM    4  C10 UNL     1      15.912  -4.251   9.082  1.00  0.00     0.132 C 
HETATM    5  C16 UNL     1      16.358  -5.692   9.209  1.00  0.00     0.034 C 
HETATM    6  C17 UNL     1      17.264  -5.943   7.993  1.00  0.00     0.028 C 
ENDROOT
BRANCH   1   7
HETATM    7  N1  UNL     1      16.661  -6.686   5.800  1.00  0.00    -0.380 N 
ATOM      8  H1  UNL     1      16.695  -7.644   6.148  1.00  0.00     0.160 HD
BRANCH   7   9
HETATM    9  C6  UNL     1      16.738  -6.452   4.407  1.00  0.00     0.074 C 
HETATM   10  S1  UNL     1      15.737  -7.267   3.393  1.00  0.00    -0.066 SA
BRANCH   9  11
HETATM   11  C5  UNL     1      17.701  -5.493   3.854  1.00  0.00     0.077 C 
BRANCH  11  12
HETATM   12  C2  UNL     1      19.134  -5.919   3.887  1.00  0.00    -0.045 C 
HETATM   13  C1  UNL     1      19.305  -7.381   3.495  1.00  0.00     0.015 C 
HETATM   14  C3  UNL     1      19.837  -5.120   2.771  1.00  0.00     0.015 C 
HETATM   15  C4  UNL     1      19.865  -5.586   5.159  1.00  0.00     0.015 C 
ENDBRANCH  11  12
ENDBRANCH   9  11
ENDBRANCH   7   9
ENDBRANCH   1   7
BRANCH   4  16
HETATM   16  O1  UNL     1      15.462  -3.748  10.323  1.00  0.00    -0.315 OA
BRANCH  16  17
HETATM   17  C11 UNL     1      14.147  -3.365  10.537  1.00  0.00     0.267 C 
HETATM   18  O2  UNL     1      13.296  -4.279  10.635  1.00  0.00    -0.264 OA
BRANCH  17  19
HETATM   19  C12 UNL     1      13.714  -1.958  10.652  1.00  0.00     0.037 C 
HETATM   20  C13 UNL     1      14.704  -1.139  11.466  1.00  0.00     0.025 C 
HETATM   21  C14 UNL     1      12.357  -1.933  11.315  1.00  0.00     0.025 C 
HETATM   22  C15 UNL     1      13.535  -1.339   9.272  1.00  0.00     0.025 C 
ENDBRANCH  17  19
ENDBRANCH  16  17
ENDBRANCH   4  16
TORSDOF 7
ENDMDL
