MODEL 1
REMARK VINA RESULT: -7.286009020      0.000      0.000
REMARK  4 active torsions:
REMARK  status: ('A' for Active; 'I' for Inactive)
REMARK    1  A    between atoms: C2_2  and  C3_3 
REMARK    2  A    between atoms: C3_3  and  C4_4 
REMARK    3  A    between atoms: C4_4  and  N1_5 
REMARK    4  A    between atoms: C10_14  and  C11_15 
ROOT
HETATM    1  C4  UNL     1      17.577  -6.207   4.840  1.00  0.00     0.136 C 
HETATM    2  C5  UNL     1      18.117  -5.840   6.178  1.00  0.00     0.041 C 
HETATM    3  C6  UNL     1      17.102  -5.861   7.294  1.00  0.00     0.028 C 
HETATM    4  C7  UNL     1      16.010  -4.856   7.174  1.00  0.00     0.064 C 
HETATM    5  C8  UNL     1      16.479  -3.434   7.358  1.00  0.00     0.026 C 
HETATM    6  C9  UNL     1      15.346  -2.617   7.988  1.00  0.00     0.007 C 
HETATM    7  C10 UNL     1      15.331  -3.008   9.462  1.00  0.00    -0.007 C 
HETATM    8  C15 UNL     1      15.241  -4.490   9.538  1.00  0.00     0.007 C 
HETATM    9  C16 UNL     1      14.970  -5.157   8.223  1.00  0.00     0.026 C 
HETATM   10  S1  UNL     1      15.277  -4.935   5.533  1.00  0.00     0.155 S 
HETATM   11  O1  UNL     1      14.567  -3.655   5.202  1.00  0.00    -0.227 OA
HETATM   12  O2  UNL     1      14.290  -6.059   5.448  1.00  0.00    -0.227 OA
HETATM   13  C17 UNL     1      16.610  -5.122   4.399  1.00  0.00     0.179 C 
ENDROOT
BRANCH   1  14
HETATM   14  C3  UNL     1      18.690  -6.193   3.821  1.00  0.00     0.039 C 
BRANCH  14  15
HETATM   15  C2  UNL     1      19.987  -6.616   4.446  1.00  0.00    -0.002 C 
HETATM   16  C1  UNL     1      20.565  -7.836   3.706  1.00  0.00     0.005 C 
ENDBRANCH  14  15
ENDBRANCH   1  14
BRANCH   1  17
HETATM   17  N1  UNL     1      16.962  -7.516   4.782  1.00  0.00    -0.070 N 
ATOM     18  H13 UNL     1      16.850  -7.864   3.829  1.00  0.00     0.275 HD
ATOM     19  H12 UNL     1      17.572  -8.261   5.120  1.00  0.00     0.275 HD
ATOM     20  H11 UNL     1      16.081  -7.457   5.292  1.00  0.00     0.275 HD
ENDBRANCH   1  17
BRANCH   7  21
HETATM   21  C11 UNL     1      14.274  -2.277  10.228  1.00  0.00    -0.048 C 
HETATM   22  C12 UNL     1      13.479  -1.449   9.220  1.00  0.00     0.015 C 
HETATM   23  C13 UNL     1      13.324  -3.138  10.969  1.00  0.00     0.015 C 
HETATM   24  C14 UNL     1      14.954  -1.298  11.150  1.00  0.00     0.015 C 
ENDBRANCH   7  21
TORSDOF 4
ENDMDL
MODEL 2
REMARK VINA RESULT: -7.213779766      0.378      1.029
REMARK  4 active torsions:
REMARK  status: ('A' for Active; 'I' for Inactive)
REMARK    1  A    between atoms: C2_2  and  C3_3 
REMARK    2  A    between atoms: C3_3  and  C4_4 
REMARK    3  A    between atoms: C4_4  and  N1_5 
REMARK    4  A    between atoms: C10_14  and  C11_15 
ROOT
HETATM    1  C4  UNL     1      17.557  -6.048   4.879  1.00  0.00     0.136 C 
HETATM    2  C5  UNL     1      18.098  -5.712   6.225  1.00  0.00     0.041 C 
HETATM    3  C6  UNL     1      17.075  -5.716   7.334  1.00  0.00     0.028 C 
HETATM    4  C7  UNL     1      16.013  -4.678   7.217  1.00  0.00     0.064 C 
HETATM    5  C8  UNL     1      16.521  -3.273   7.421  1.00  0.00     0.026 C 
HETATM    6  C9  UNL     1      15.409  -2.431   8.053  1.00  0.00     0.007 C 
HETATM    7  C10 UNL     1      15.372  -2.837   9.521  1.00  0.00    -0.007 C 
HETATM    8  C15 UNL     1      15.238  -4.317   9.580  1.00  0.00     0.007 C 
HETATM    9  C16 UNL     1      14.957  -4.961   8.256  1.00  0.00     0.026 C 
HETATM   10  S1  UNL     1      15.290  -4.718   5.571  1.00  0.00     0.155 S 
HETATM   11  O1  UNL     1      14.620  -3.413   5.250  1.00  0.00    -0.227 OA
HETATM   12  O2  UNL     1      14.271  -5.811   5.466  1.00  0.00    -0.227 OA
HETATM   13  C17 UNL     1      16.625  -4.931   4.444  1.00  0.00     0.179 C 
ENDROOT
BRANCH   1  14
HETATM   14  C3  UNL     1      18.678  -6.055   3.868  1.00  0.00     0.039 C 
BRANCH  14  15
HETATM   15  C2  UNL     1      18.958  -7.452   3.396  1.00  0.00    -0.002 C 
HETATM   16  C1  UNL     1      20.424  -7.827   3.675  1.00  0.00     0.005 C 
ENDBRANCH  14  15
ENDBRANCH   1  14
BRANCH   1  17
HETATM   17  N1  UNL     1      16.905  -7.338   4.801  1.00  0.00    -0.070 N 
ATOM     18  H13 UNL     1      16.426  -7.492   3.914  1.00  0.00     0.275 HD
ATOM     19  H12 UNL     1      17.562  -8.115   4.730  1.00  0.00     0.275 HD
ATOM     20  H11 UNL     1      16.285  -7.411   5.608  1.00  0.00     0.275 HD
ENDBRANCH   1  17
BRANCH   7  21
HETATM   21  C11 UNL     1      14.330  -2.084  10.289  1.00  0.00    -0.048 C 
HETATM   22  C12 UNL     1      13.519  -3.113  11.075  1.00  0.00     0.015 C 
HETATM   23  C13 UNL     1      14.855  -1.083  11.246  1.00  0.00     0.015 C 
HETATM   24  C14 UNL     1      13.385  -1.451   9.302  1.00  0.00     0.015 C 
ENDBRANCH   7  21
TORSDOF 4
ENDMDL
MODEL 3
REMARK VINA RESULT: -6.919160857      2.437      6.854
REMARK  4 active torsions:
REMARK  status: ('A' for Active; 'I' for Inactive)
REMARK    1  A    between atoms: C2_2  and  C3_3 
REMARK    2  A    between atoms: C3_3  and  C4_4 
REMARK    3  A    between atoms: C4_4  and  N1_5 
REMARK    4  A    between atoms: C10_14  and  C11_15 
ROOT
HETATM    1  C4  UNL     1      14.327  -2.912  10.278  1.00  0.00     0.136 C 
HETATM    2  C5  UNL     1      14.626  -4.364  10.142  1.00  0.00     0.041 C 
HETATM    3  C6  UNL     1      15.827  -4.681   9.286  1.00  0.00     0.028 C 
HETATM    4  C7  UNL     1      15.695  -4.311   7.850  1.00  0.00     0.064 C 
HETATM    5  C8  UNL     1      14.689  -5.151   7.102  1.00  0.00     0.026 C 
HETATM    6  C9  UNL     1      15.143  -5.287   5.645  1.00  0.00     0.007 C 
HETATM    7  C10 UNL     1      16.274  -6.309   5.663  1.00  0.00    -0.007 C 
HETATM    8  C15 UNL     1      17.279  -5.858   6.662  1.00  0.00     0.007 C 
HETATM    9  C16 UNL     1      17.041  -4.475   7.191  1.00  0.00     0.026 C 
HETATM   10  S1  UNL     1      15.136  -2.607   7.701  1.00  0.00     0.155 S 
HETATM   11  O1  UNL     1      14.512  -2.365   6.357  1.00  0.00    -0.227 OA
HETATM   12  O2  UNL     1      16.282  -1.657   7.869  1.00  0.00    -0.227 OA
HETATM   13  C17 UNL     1      13.890  -2.383   8.923  1.00  0.00     0.179 C 
ENDROOT
BRANCH   1  14
HETATM   14  C3  UNL     1      13.138  -2.720  11.188  1.00  0.00     0.039 C 
BRANCH  14  15
HETATM   15  C2  UNL     1      12.527  -4.043  11.548  1.00  0.00    -0.002 C 
HETATM   16  C1  UNL     1      11.212  -3.833  12.319  1.00  0.00     0.005 C 
ENDBRANCH  14  15
ENDBRANCH   1  14
BRANCH   1  17
HETATM   17  N1  UNL     1      15.413  -2.125  10.825  1.00  0.00    -0.070 N 
ATOM     18  H13 UNL     1      15.647  -1.314  10.253  1.00  0.00     0.275 HD
ATOM     19  H12 UNL     1      15.153  -1.617  11.670  1.00  0.00     0.275 HD
ATOM     20  H11 UNL     1      16.201  -2.757  10.964  1.00  0.00     0.275 HD
ENDBRANCH   1  17
BRANCH   7  21
HETATM   21  C11 UNL     1      16.824  -6.565   4.294  1.00  0.00    -0.048 C 
HETATM   22  C12 UNL     1      16.505  -5.336   3.444  1.00  0.00     0.015 C 
HETATM   23  C13 UNL     1      18.286  -6.799   4.237  1.00  0.00     0.015 C 
HETATM   24  C14 UNL     1      16.064  -7.717   3.691  1.00  0.00     0.015 C 
ENDBRANCH   7  21
TORSDOF 4
ENDMDL
MODEL 4
REMARK VINA RESULT: -6.321205115      2.206      3.107
REMARK  4 active torsions:
REMARK  status: ('A' for Active; 'I' for Inactive)
REMARK    1  A    between atoms: C2_2  and  C3_3 
REMARK    2  A    between atoms: C3_3  and  C4_4 
REMARK    3  A    between atoms: C4_4  and  N1_5 
REMARK    4  A    between atoms: C10_14  and  C11_15 
ROOT
HETATM    1  C4  UNL     1      16.363  -6.339   4.226  1.00  0.00     0.136 C 
HETATM    2  C5  UNL     1      15.070  -5.642   4.468  1.00  0.00     0.041 C 
HETATM    3  C6  UNL     1      15.193  -4.312   5.170  1.00  0.00     0.028 C 
HETATM    4  C7  UNL     1      15.713  -4.379   6.563  1.00  0.00     0.064 C 
HETATM    5  C8  UNL     1      14.755  -5.027   7.532  1.00  0.00     0.026 C 
HETATM    6  C9  UNL     1      14.945  -4.393   8.914  1.00  0.00     0.007 C 
HETATM    7  C10 UNL     1      14.255  -3.036   8.839  1.00  0.00    -0.007 C 
HETATM    8  C15 UNL     1      14.806  -2.310   7.664  1.00  0.00     0.007 C 
HETATM    9  C16 UNL     1      15.993  -2.974   7.034  1.00  0.00     0.026 C 
HETATM   10  S1  UNL     1      17.220  -5.361   6.613  1.00  0.00     0.155 S 
HETATM   11  O1  UNL     1      17.478  -5.873   8.000  1.00  0.00    -0.227 OA
HETATM   12  O2  UNL     1      18.399  -4.544   6.183  1.00  0.00    -0.227 OA
HETATM   13  C17 UNL     1      16.945  -6.749   5.567  1.00  0.00     0.179 C 
ENDROOT
BRANCH   1  14
HETATM   14  C3  UNL     1      16.114  -7.629   3.483  1.00  0.00     0.039 C 
BRANCH  14  15
HETATM   15  C2  UNL     1      15.090  -7.430   2.404  1.00  0.00    -0.002 C 
HETATM   16  C1  UNL     1      15.163  -8.576   1.379  1.00  0.00     0.005 C 
ENDBRANCH  14  15
ENDBRANCH   1  14
BRANCH   1  17
HETATM   17  N1  UNL     1      17.318  -5.577   3.449  1.00  0.00    -0.070 N 
ATOM     18  H13 UNL     1      17.601  -6.046   2.589  1.00  0.00     0.275 HD
ATOM     19  H12 UNL     1      16.911  -4.747   3.016  1.00  0.00     0.275 HD
ATOM     20  H11 UNL     1      18.103  -5.363   4.064  1.00  0.00     0.275 HD
ENDBRANCH   1  17
BRANCH   7  21
HETATM   21  C11 UNL     1      14.341  -2.287  10.133  1.00  0.00    -0.048 C 
HETATM   22  C12 UNL     1      14.581  -3.319  11.234  1.00  0.00     0.015 C 
HETATM   23  C13 UNL     1      15.422  -1.277  10.205  1.00  0.00     0.015 C 
HETATM   24  C14 UNL     1      12.996  -1.668  10.408  1.00  0.00     0.015 C 
ENDBRANCH   7  21
TORSDOF 4
ENDMDL
MODEL 5
REMARK VINA RESULT: -6.314941388      2.236      6.879
REMARK  4 active torsions:
REMARK  status: ('A' for Active; 'I' for Inactive)
REMARK    1  A    between atoms: C2_2  and  C3_3 
REMARK    2  A    between atoms: C3_3  and  C4_4 
REMARK    3  A    between atoms: C4_4  and  N1_5 
REMARK    4  A    between atoms: C10_14  and  C11_15 
ROOT
HETATM    1  C4  UNL     1      15.320  -5.126   9.041  1.00  0.00     0.136 C 
HETATM    2  C5  UNL     1      16.414  -6.122   8.875  1.00  0.00     0.041 C 
HETATM    3  C6  UNL     1      17.552  -5.667   7.995  1.00  0.00     0.028 C 
HETATM    4  C7  UNL     1      17.194  -5.440   6.568  1.00  0.00     0.064 C 
HETATM    5  C8  UNL     1      16.860  -6.707   5.822  1.00  0.00     0.026 C 
HETATM    6  C9  UNL     1      17.274  -6.543   4.356  1.00  0.00     0.007 C 
HETATM    7  C10 UNL     1      18.789  -6.703   4.339  1.00  0.00    -0.007 C 
HETATM    8  C15 UNL     1      19.358  -5.751   5.330  1.00  0.00     0.007 C 
HETATM    9  C16 UNL     1      18.364  -4.776   5.886  1.00  0.00     0.026 C 
HETATM   10  S1  UNL     1      15.736  -4.392   6.457  1.00  0.00     0.155 S 
HETATM   11  O1  UNL     1      15.059  -4.557   5.128  1.00  0.00    -0.227 OA
HETATM   12  O2  UNL     1      16.106  -2.950   6.623  1.00  0.00    -0.227 OA
HETATM   13  C17 UNL     1      14.625  -4.950   7.702  1.00  0.00     0.179 C 
ENDROOT
BRANCH   1  14
HETATM   14  C3  UNL     1      14.268  -5.676   9.973  1.00  0.00     0.039 C 
BRANCH  14  15
HETATM   15  C2  UNL     1      13.881  -4.651  11.000  1.00  0.00    -0.002 C 
HETATM   16  C1  UNL     1      12.507  -4.990  11.603  1.00  0.00     0.005 C 
ENDBRANCH  14  15
ENDBRANCH   1  14
BRANCH   1  17
HETATM   17  N1  UNL     1      15.747  -3.853   9.584  1.00  0.00    -0.070 N 
ATOM     18  H13 UNL     1      15.063  -3.438  10.216  1.00  0.00     0.275 HD
ATOM     19  H12 UNL     1      16.509  -3.940  10.257  1.00  0.00     0.275 HD
ATOM     20  H11 UNL     1      15.978  -3.252   8.793  1.00  0.00     0.275 HD
ENDBRANCH   1  17
BRANCH   7  21
HETATM   21  C11 UNL     1      19.354  -6.580   2.958  1.00  0.00    -0.048 C 
HETATM   22  C12 UNL     1      18.296  -7.111   1.991  1.00  0.00     0.015 C 
HETATM   23  C13 UNL     1      19.707  -5.202   2.543  1.00  0.00     0.015 C 
HETATM   24  C14 UNL     1      20.539  -7.503   2.850  1.00  0.00     0.015 C 
ENDBRANCH   7  21
TORSDOF 4
ENDMDL
