MODEL 1
REMARK VINA RESULT: -6.351377009      0.000      0.000
REMARK  3 active torsions:
REMARK  status: ('A' for Active; 'I' for Inactive)
REMARK    1  A    between atoms: C2_2  and  C3_3 
REMARK    2  A    between atoms: C9_10  and  O2_11 
REMARK    3  A    between atoms: C12_15  and  O3_16 
ROOT
HETATM    1  C3  UNL     1      -0.096  -0.626  -7.772  1.00  0.00     0.062 C 
HETATM    2  C4  UNL     1       0.802  -0.651  -6.519  1.00  0.00     0.046 C 
HETATM    3  O1  UNL     1       0.362  -1.730  -8.493  1.00  0.00    -0.368 OA
HETATM    4  C5  UNL     1       0.158  -1.440  -9.797  1.00  0.00     0.074 C 
HETATM    5  C6  UNL     1      -1.191  -1.944 -10.223  1.00  0.00     0.044 C 
HETATM    6  C7  UNL     1      -0.577  -2.034 -11.605  1.00  0.00    -0.006 C 
HETATM    7  C8  UNL     1      -0.720  -0.672 -12.196  1.00  0.00     0.043 C 
HETATM    8  C9  UNL     1      -0.286   0.453 -11.252  1.00  0.00     0.069 C 
HETATM    9  C10 UNL     1      -1.468   1.389 -11.149  1.00  0.00     0.042 C 
HETATM   10  C11 UNL     1      -0.922   2.731 -10.744  1.00  0.00     0.045 C 
HETATM   11  C12 UNL     1      -0.179   2.730  -9.452  1.00  0.00     0.076 C 
HETATM   12  C13 UNL     1       1.283   2.765  -9.500  1.00  0.00     0.007 C 
HETATM   13  C14 UNL     1       2.169   1.796 -10.051  1.00  0.00    -0.027 C 
HETATM   14  C15 UNL     1       1.869   0.359 -10.286  1.00  0.00     0.043 C 
HETATM   15  C16 UNL     1       0.382   0.023 -10.045  1.00  0.00     0.032 C 
HETATM   16  C17 UNL     1       0.152   0.533  -8.675  1.00  0.00     0.038 C 
HETATM   17  C18 UNL     1      -0.796   1.680  -8.550  1.00  0.00     0.050 C 
HETATM   18  C19 UNL     1       0.739  -2.252 -10.871  1.00  0.00     0.044 C 
ENDROOT
BRANCH   1  19
HETATM   19  C2  UNL     1      -1.481  -0.747  -7.249  1.00  0.00     0.033 C 
HETATM   20  C1  UNL     1      -1.615  -1.902  -6.281  1.00  0.00     0.008 C 
ENDBRANCH   1  19
BRANCH   8  21
HETATM   21  O2  UNL     1       0.547   1.253 -12.105  1.00  0.00    -0.389 OA
ATOM     22  H2  UNL     1       1.313   1.391 -11.561  1.00  0.00     0.210 HD
ENDBRANCH   8  21
BRANCH  11  23
HETATM   23  O3  UNL     1      -0.593   3.946  -8.825  1.00  0.00    -0.386 OA
ATOM     24  H3  UNL     1       0.103   4.557  -9.040  1.00  0.00     0.211 HD
ENDBRANCH  11  23
TORSDOF 3
ENDMDL
MODEL 2
REMARK VINA RESULT: -6.130619546      1.557      4.039
REMARK  3 active torsions:
REMARK  status: ('A' for Active; 'I' for Inactive)
REMARK    1  A    between atoms: C2_2  and  C3_3 
REMARK    2  A    between atoms: C9_10  and  O2_11 
REMARK    3  A    between atoms: C12_15  and  O3_16 
ROOT
HETATM    1  C3  UNL     1       0.924  -0.240  -7.751  1.00  0.00     0.062 C 
HETATM    2  C4  UNL     1       0.395  -1.255  -6.717  1.00  0.00     0.046 C 
HETATM    3  O1  UNL     1       0.059   0.843  -7.580  1.00  0.00    -0.368 OA
HETATM    4  C5  UNL     1      -0.018   1.457  -8.781  1.00  0.00     0.074 C 
HETATM    5  C6  UNL     1       1.028   2.533  -8.867  1.00  0.00     0.044 C 
HETATM    6  C7  UNL     1       0.077   3.199  -9.840  1.00  0.00    -0.006 C 
HETATM    7  C8  UNL     1       0.367   2.584 -11.168  1.00  0.00     0.043 C 
HETATM    8  C9  UNL     1       0.455   1.056 -11.129  1.00  0.00     0.069 C 
HETATM    9  C10 UNL     1       1.804   0.701 -11.711  1.00  0.00     0.042 C 
HETATM   10  C11 UNL     1       1.697  -0.711 -12.219  1.00  0.00     0.045 C 
HETATM   11  C12 UNL     1       1.329  -1.714 -11.179  1.00  0.00     0.076 C 
HETATM   12  C13 UNL     1      -0.049  -2.203 -11.154  1.00  0.00     0.007 C 
HETATM   13  C14 UNL     1      -1.242  -1.463 -10.913  1.00  0.00    -0.027 C 
HETATM   14  C15 UNL     1      -1.345  -0.163 -10.201  1.00  0.00     0.043 C 
HETATM   15  C16 UNL     1       0.039   0.445  -9.887  1.00  0.00     0.032 C 
HETATM   16  C17 UNL     1       0.721  -0.654  -9.168  1.00  0.00     0.038 C 
HETATM   17  C18 UNL     1       1.903  -1.256  -9.853  1.00  0.00     0.050 C 
HETATM   18  C19 UNL     1      -1.022   2.488  -9.060  1.00  0.00     0.044 C 
ENDROOT
BRANCH   1  19
HETATM   19  C2  UNL     1       2.332   0.010  -7.351  1.00  0.00     0.033 C 
HETATM   20  C1  UNL     1       2.422   0.604  -5.961  1.00  0.00     0.008 C 
ENDBRANCH   1  19
BRANCH   8  21
HETATM   21  O2  UNL     1      -0.365   0.682 -12.247  1.00  0.00    -0.389 OA
ATOM     22  H2  UNL     1       0.273   0.619 -12.948  1.00  0.00     0.210 HD
ENDBRANCH   8  21
BRANCH  11  23
HETATM   23  O3  UNL     1       2.154  -2.839 -11.491  1.00  0.00    -0.386 OA
ATOM     24  H3  UNL     1       1.797  -3.156 -12.314  1.00  0.00     0.211 HD
ENDBRANCH  11  23
TORSDOF 3
ENDMDL
MODEL 3
REMARK VINA RESULT: -6.035922596      1.436      4.037
REMARK  3 active torsions:
REMARK  status: ('A' for Active; 'I' for Inactive)
REMARK    1  A    between atoms: C2_2  and  C3_3 
REMARK    2  A    between atoms: C9_10  and  O2_11 
REMARK    3  A    between atoms: C12_15  and  O3_16 
ROOT
HETATM    1  C3  UNL     1      -0.601  -1.041 -10.602  1.00  0.00     0.062 C 
HETATM    2  C4  UNL     1      -1.497  -0.701 -11.809  1.00  0.00     0.046 C 
HETATM    3  O1  UNL     1      -1.523  -1.126  -9.557  1.00  0.00    -0.368 OA
HETATM    4  C5  UNL     1      -0.859  -0.764  -8.437  1.00  0.00     0.074 C 
HETATM    5  C6  UNL     1      -0.270  -1.982  -7.782  1.00  0.00     0.044 C 
HETATM    6  C7  UNL     1      -0.382  -1.185  -6.498  1.00  0.00    -0.006 C 
HETATM    7  C8  UNL     1       0.854  -0.353  -6.433  1.00  0.00     0.043 C 
HETATM    8  C9  UNL     1       1.171   0.374  -7.743  1.00  0.00     0.069 C 
HETATM    9  C10 UNL     1       2.581  -0.030  -8.112  1.00  0.00     0.042 C 
HETATM   10  C11 UNL     1       3.120   1.054  -9.005  1.00  0.00     0.045 C 
HETATM   11  C12 UNL     1       2.330   1.278 -10.249  1.00  0.00     0.076 C 
HETATM   12  C13 UNL     1       1.443   2.439 -10.299  1.00  0.00     0.007 C 
HETATM   13  C14 UNL     1       0.307   2.717  -9.486  1.00  0.00    -0.027 C 
HETATM   14  C15 UNL     1      -0.500   1.723  -8.730  1.00  0.00     0.043 C 
HETATM   15  C16 UNL     1       0.135   0.316  -8.749  1.00  0.00     0.032 C 
HETATM   16  C17 UNL     1       0.316   0.061 -10.195  1.00  0.00     0.038 C 
HETATM   17  C18 UNL     1       1.727  -0.047 -10.673  1.00  0.00     0.050 C 
HETATM   18  C19 UNL     1      -1.557  -0.491  -7.177  1.00  0.00     0.044 C 
ENDROOT
BRANCH   1  19
HETATM   19  C2  UNL     1       0.057  -2.321 -10.966  1.00  0.00     0.033 C 
HETATM   20  C1  UNL     1      -0.236  -2.714 -12.398  1.00  0.00     0.008 C 
ENDBRANCH   1  19
BRANCH   8  21
HETATM   21  O2  UNL     1       1.443   1.708  -7.286  1.00  0.00    -0.389 OA
ATOM     22  H2  UNL     1       1.968   1.548  -6.511  1.00  0.00     0.210 HD
ENDBRANCH   8  21
BRANCH  11  23
HETATM   23  O3  UNL     1       3.330   1.487 -11.249  1.00  0.00    -0.386 OA
ATOM     24  H3  UNL     1       3.217   0.748 -11.836  1.00  0.00     0.211 HD
ENDBRANCH  11  23
TORSDOF 3
ENDMDL
MODEL 4
REMARK VINA RESULT: -6.005837051      1.327      3.982
REMARK  3 active torsions:
REMARK  status: ('A' for Active; 'I' for Inactive)
REMARK    1  A    between atoms: C2_2  and  C3_3 
REMARK    2  A    between atoms: C9_10  and  O2_11 
REMARK    3  A    between atoms: C12_15  and  O3_16 
ROOT
HETATM    1  C3  UNL     1      -0.339  -0.222  -7.952  1.00  0.00     0.062 C 
HETATM    2  C4  UNL     1      -1.530  -0.789  -7.155  1.00  0.00     0.046 C 
HETATM    3  O1  UNL     1      -0.552   1.155  -7.875  1.00  0.00    -0.368 OA
HETATM    4  C5  UNL     1      -0.027   1.683  -9.003  1.00  0.00     0.074 C 
HETATM    5  C6  UNL     1       1.404   2.070  -8.761  1.00  0.00     0.044 C 
HETATM    6  C7  UNL     1       1.175   3.096  -9.853  1.00  0.00    -0.006 C 
HETATM    7  C8  UNL     1       1.417   2.375 -11.136  1.00  0.00     0.043 C 
HETATM    8  C9  UNL     1       0.711   1.019 -11.218  1.00  0.00     0.069 C 
HETATM    9  C10 UNL     1       1.791   0.005 -11.524  1.00  0.00     0.042 C 
HETATM   10  C11 UNL     1       1.110  -1.170 -12.169  1.00  0.00     0.045 C 
HETATM   11  C12 UNL     1       0.056  -1.810 -11.330  1.00  0.00     0.076 C 
HETATM   12  C13 UNL     1      -1.342  -1.525 -11.650  1.00  0.00     0.007 C 
HETATM   13  C14 UNL     1      -2.019  -0.273 -11.607  1.00  0.00    -0.027 C 
HETATM   14  C15 UNL     1      -1.616   0.920 -10.818  1.00  0.00     0.043 C 
HETATM   15  C16 UNL     1      -0.232   0.747 -10.157  1.00  0.00     0.032 C 
HETATM   16  C17 UNL     1      -0.385  -0.521  -9.410  1.00  0.00     0.038 C 
HETATM   17  C18 UNL     1       0.456  -1.665  -9.875  1.00  0.00     0.050 C 
HETATM   18  C19 UNL     1      -0.278   3.072  -9.398  1.00  0.00     0.044 C 
ENDROOT
BRANCH   1  19
HETATM   19  C2  UNL     1       0.866  -0.712  -7.235  1.00  0.00     0.033 C 
HETATM   20  C1  UNL     1       0.928  -0.183  -5.817  1.00  0.00     0.008 C 
ENDBRANCH   1  19
BRANCH   8  21
HETATM   21  O2  UNL     1       0.101   1.078 -12.517  1.00  0.00    -0.389 OA
ATOM     22  H2  UNL     1       0.848   1.246 -13.079  1.00  0.00     0.210 HD
ENDBRANCH   8  21
BRANCH  11  23
HETATM   23  O3  UNL     1       0.249  -3.208 -11.557  1.00  0.00    -0.386 OA
ATOM     24  H3  UNL     1      -0.333  -3.618 -10.928  1.00  0.00     0.211 HD
ENDBRANCH  11  23
TORSDOF 3
ENDMDL
MODEL 5
REMARK VINA RESULT: -5.921678781      1.989      4.296
REMARK  3 active torsions:
REMARK  status: ('A' for Active; 'I' for Inactive)
REMARK    1  A    between atoms: C2_2  and  C3_3 
REMARK    2  A    between atoms: C9_10  and  O2_11 
REMARK    3  A    between atoms: C12_15  and  O3_16 
ROOT
HETATM    1  C3  UNL     1       0.831  -1.866 -13.069  1.00  0.00     0.062 C 
HETATM    2  C4  UNL     1       2.027  -2.269 -13.954  1.00  0.00     0.046 C 
HETATM    3  O1  UNL     1       0.051  -1.106 -13.944  1.00  0.00    -0.368 OA
HETATM    4  C5  UNL     1      -0.604  -0.205 -13.180  1.00  0.00     0.074 C 
HETATM    5  C6  UNL     1      -1.934  -0.767 -12.763  1.00  0.00     0.044 C 
HETATM    6  C7  UNL     1      -2.376   0.681 -12.688  1.00  0.00    -0.006 C 
HETATM    7  C8  UNL     1      -1.968   1.154 -11.333  1.00  0.00     0.043 C 
HETATM    8  C9  UNL     1      -0.528   0.787 -10.965  1.00  0.00     0.069 C 
HETATM    9  C10 UNL     1      -0.612   0.035  -9.656  1.00  0.00     0.042 C 
HETATM   10  C11 UNL     1       0.731   0.172  -8.992  1.00  0.00     0.045 C 
HETATM   11  C12 UNL     1       1.871  -0.357  -9.793  1.00  0.00     0.076 C 
HETATM   12  C13 UNL     1       2.729   0.604 -10.485  1.00  0.00     0.007 C 
HETATM   13  C14 UNL     1       2.376   1.512 -11.523  1.00  0.00    -0.027 C 
HETATM   14  C15 UNL     1       1.214   1.392 -12.443  1.00  0.00     0.043 C 
HETATM   15  C16 UNL     1       0.266   0.242 -12.042  1.00  0.00     0.032 C 
HETATM   16  C17 UNL     1       1.178  -0.921 -11.971  1.00  0.00     0.038 C 
HETATM   17  C18 UNL     1       1.370  -1.525 -10.619  1.00  0.00     0.050 C 
HETATM   18  C19 UNL     1      -1.328   0.927 -13.767  1.00  0.00     0.044 C 
ENDROOT
BRANCH   1  19
HETATM   19  C2  UNL     1       0.224  -3.151 -12.641  1.00  0.00     0.033 C 
HETATM   20  C1  UNL     1      -0.347  -3.919 -13.815  1.00  0.00     0.008 C 
ENDBRANCH   1  19
BRANCH   8  21
HETATM   21  O2  UNL     1      -0.022   2.034 -10.463  1.00  0.00    -0.389 OA
ATOM     22  H2  UNL     1       0.917   1.910 -10.538  1.00  0.00     0.210 HD
ENDBRANCH   8  21
BRANCH  11  23
HETATM   23  O3  UNL     1       2.692  -1.007  -8.820  1.00  0.00    -0.386 OA
ATOM     24  H3  UNL     1       2.796  -0.351  -8.140  1.00  0.00     0.211 HD
ENDBRANCH  11  23
TORSDOF 3
ENDMDL
