MODEL 1
REMARK VINA RESULT: -6.839268279      0.000      0.000
REMARK  3 active torsions:
REMARK  status: ('A' for Active; 'I' for Inactive)
REMARK    1  A    between atoms: C9_9  and  O1_10 
REMARK    2  A    between atoms: C18_20  and  O2_21 
REMARK    3  A    between atoms: C18_20  and  C19_23 
ROOT
HETATM    1  C1  UNL     1       1.004   1.029 -10.749  1.00  0.00     0.019 C 
HETATM    2  C2  UNL     1       0.120  -0.099 -10.396  1.00  0.00    -0.002 C 
HETATM    3  C3  UNL     1       0.804  -1.361 -10.004  1.00  0.00     0.013 C 
HETATM    4  C4  UNL     1       1.572  -1.202  -8.754  1.00  0.00     0.006 C 
HETATM    5  C5  UNL     1       1.196  -0.110  -7.845  1.00  0.00    -0.006 C 
HETATM    6  C6  UNL     1       1.542  -0.556  -6.414  1.00  0.00    -0.006 C 
HETATM    7  C7  UNL     1       1.661   0.668  -5.592  1.00  0.00     0.008 C 
HETATM    8  C8  UNL     1       1.446   0.500  -4.129  1.00  0.00     0.032 C 
HETATM    9  C9  UNL     1       1.543  -0.957  -3.696  1.00  0.00     0.118 C 
HETATM   10  C10 UNL     1       0.458  -1.688  -4.450  1.00  0.00     0.036 C 
HETATM   11  C11 UNL     1       0.631  -1.611  -5.934  1.00  0.00    -0.008 C 
HETATM   12  C12 UNL     1      -0.763  -1.545  -6.546  1.00  0.00     0.005 C 
HETATM   13  C13 UNL     1      -1.127  -0.121  -6.873  1.00  0.00     0.006 C 
HETATM   14  C14 UNL     1      -0.189   0.432  -7.959  1.00  0.00    -0.005 C 
HETATM   15  C15 UNL     1      -0.846   0.215  -9.259  1.00  0.00     0.002 C 
HETATM   16  C16 UNL     1      -1.639   1.326  -9.823  1.00  0.00     0.009 C 
HETATM   17  C17 UNL     1      -1.722   0.990 -11.319  1.00  0.00     0.046 C 
HETATM   18  C18 UNL     1      -0.912  -0.289 -11.494  1.00  0.00     0.118 C 
ENDROOT
BRANCH  18  19
HETATM   19  O2  UNL     1      -1.794  -1.334 -11.148  1.00  0.00    -0.382 OA
ATOM     20  H2  UNL     1      -2.529  -1.349 -11.750  1.00  0.00     0.211 HD
ENDBRANCH  18  19
BRANCH  18  21
HETATM   21  C19 UNL     1      -0.348  -0.452 -12.826  1.00  0.00     0.269 C 
HETATM   22  O3  UNL     1      -0.622  -1.439 -13.478  1.00  0.00    -0.304 OA
ENDBRANCH  18  21
BRANCH   9  23
HETATM   23  O1  UNL     1       1.300  -1.082  -2.352  1.00  0.00    -0.396 OA
ATOM     24  H1  UNL     1       1.702  -1.871  -2.009  1.00  0.00     0.210 HD
ENDBRANCH   9  23
TORSDOF 3
ENDMDL
MODEL 2
REMARK VINA RESULT: -6.550847413      1.646      3.110
REMARK  3 active torsions:
REMARK  status: ('A' for Active; 'I' for Inactive)
REMARK    1  A    between atoms: C9_9  and  O1_10 
REMARK    2  A    between atoms: C18_20  and  O2_21 
REMARK    3  A    between atoms: C18_20  and  C19_23 
ROOT
HETATM    1  C1  UNL     1      -2.070  -0.531 -12.214  1.00  0.00     0.019 C 
HETATM    2  C2  UNL     1      -0.811   0.163 -11.881  1.00  0.00    -0.002 C 
HETATM    3  C3  UNL     1      -0.945   1.375 -11.027  1.00  0.00     0.013 C 
HETATM    4  C4  UNL     1      -1.449   1.042  -9.680  1.00  0.00     0.006 C 
HETATM    5  C5  UNL     1      -1.277  -0.336  -9.197  1.00  0.00    -0.006 C 
HETATM    6  C6  UNL     1      -1.155  -0.280  -7.665  1.00  0.00    -0.006 C 
HETATM    7  C7  UNL     1      -1.500  -1.623  -7.150  1.00  0.00     0.008 C 
HETATM    8  C8  UNL     1      -0.947  -1.976  -5.815  1.00  0.00     0.032 C 
HETATM    9  C9  UNL     1      -0.467  -0.752  -5.047  1.00  0.00     0.118 C 
HETATM   10  C10 UNL     1       0.619  -0.131  -5.892  1.00  0.00     0.036 C 
HETATM   11  C11 UNL     1       0.130   0.302  -7.239  1.00  0.00    -0.008 C 
HETATM   12  C12 UNL     1       1.268   0.069  -8.225  1.00  0.00     0.005 C 
HETATM   13  C13 UNL     1       1.067  -1.227  -8.964  1.00  0.00     0.006 C 
HETATM   14  C14 UNL     1      -0.202  -1.155  -9.829  1.00  0.00    -0.005 C 
HETATM   15  C15 UNL     1       0.209  -0.725 -11.177  1.00  0.00     0.002 C 
HETATM   16  C16 UNL     1       0.458  -1.773 -12.187  1.00  0.00     0.009 C 
HETATM   17  C17 UNL     1       0.339  -1.025 -13.523  1.00  0.00     0.046 C 
HETATM   18  C18 UNL     1      -0.022   0.410 -13.155  1.00  0.00     0.118 C 
ENDROOT
BRANCH  18  19
HETATM   19  O2  UNL     1       1.206   1.031 -12.847  1.00  0.00    -0.382 OA
ATOM     20  H2  UNL     1       1.074   1.963 -12.720  1.00  0.00     0.211 HD
ENDBRANCH  18  19
BRANCH  18  21
HETATM   21  C19 UNL     1      -0.761   1.116 -14.191  1.00  0.00     0.269 C 
HETATM   22  O3  UNL     1      -0.407   1.025 -15.349  1.00  0.00    -0.304 OA
ENDBRANCH  18  21
BRANCH   9  23
HETATM   23  O1  UNL     1       0.074  -1.115  -3.840  1.00  0.00    -0.396 OA
ATOM     24  H1  UNL     1       0.630  -1.878  -3.936  1.00  0.00     0.210 HD
ENDBRANCH   9  23
TORSDOF 3
ENDMDL
MODEL 3
REMARK VINA RESULT: -6.361924653      3.749      6.373
REMARK  3 active torsions:
REMARK  status: ('A' for Active; 'I' for Inactive)
REMARK    1  A    between atoms: C9_9  and  O1_10 
REMARK    2  A    between atoms: C18_20  and  O2_21 
REMARK    3  A    between atoms: C18_20  and  C19_23 
ROOT
HETATM    1  C1  UNL     1       3.123   3.353  -5.675  1.00  0.00     0.019 C 
HETATM    2  C2  UNL     1       3.894   2.702  -6.751  1.00  0.00    -0.002 C 
HETATM    3  C3  UNL     1       4.179   1.253  -6.560  1.00  0.00     0.013 C 
HETATM    4  C4  UNL     1       2.942   0.447  -6.570  1.00  0.00     0.006 C 
HETATM    5  C5  UNL     1       1.754   1.010  -7.226  1.00  0.00    -0.006 C 
HETATM    6  C6  UNL     1       0.920  -0.164  -7.766  1.00  0.00    -0.006 C 
HETATM    7  C7  UNL     1      -0.463   0.329  -7.945  1.00  0.00     0.008 C 
HETATM    8  C8  UNL     1      -1.299  -0.407  -8.932  1.00  0.00     0.032 C 
HETATM    9  C9  UNL     1      -0.718  -1.771  -9.278  1.00  0.00     0.118 C 
HETATM   10  C10 UNL     1       0.643  -1.503  -9.874  1.00  0.00     0.036 C 
HETATM   11  C11 UNL     1       1.567  -0.809  -8.922  1.00  0.00    -0.008 C 
HETATM   12  C12 UNL     1       2.435   0.133  -9.746  1.00  0.00     0.005 C 
HETATM   13  C13 UNL     1       1.893   1.537  -9.685  1.00  0.00     0.006 C 
HETATM   14  C14 UNL     1       1.974   2.075  -8.247  1.00  0.00    -0.005 C 
HETATM   15  C15 UNL     1       3.242   2.814  -8.125  1.00  0.00     0.002 C 
HETATM   16  C16 UNL     1       3.210   4.275  -8.335  1.00  0.00     0.009 C 
HETATM   17  C17 UNL     1       4.491   4.769  -7.646  1.00  0.00     0.046 C 
HETATM   18  C18 UNL     1       5.136   3.524  -7.047  1.00  0.00     0.118 C 
ENDROOT
BRANCH  18  19
HETATM   19  O2  UNL     1       5.860   2.939  -8.106  1.00  0.00    -0.382 OA
ATOM     20  H2  UNL     1       5.658   2.012  -8.163  1.00  0.00     0.211 HD
ENDBRANCH  18  19
BRANCH  18  21
HETATM   21  C19 UNL     1       5.968   3.794  -5.883  1.00  0.00     0.269 C 
HETATM   22  O3  UNL     1       6.705   4.760  -5.882  1.00  0.00    -0.304 OA
ENDBRANCH  18  21
BRANCH   9  23
HETATM   23  O1  UNL     1      -1.488  -2.405 -10.218  1.00  0.00    -0.396 OA
ATOM     24  H1  UNL     1      -1.048  -3.178 -10.550  1.00  0.00     0.210 HD
ENDBRANCH   9  23
TORSDOF 3
ENDMDL
MODEL 4
REMARK VINA RESULT: -6.351576439      2.334      6.466
REMARK  3 active torsions:
REMARK  status: ('A' for Active; 'I' for Inactive)
REMARK    1  A    between atoms: C9_9  and  O1_10 
REMARK    2  A    between atoms: C18_20  and  O2_21 
REMARK    3  A    between atoms: C18_20  and  C19_23 
ROOT
HETATM    1  C1  UNL     1       3.682  -0.466  -6.993  1.00  0.00     0.019 C 
HETATM    2  C2  UNL     1       2.979   0.829  -6.924  1.00  0.00    -0.002 C 
HETATM    3  C3  UNL     1       3.125   1.712  -8.114  1.00  0.00     0.013 C 
HETATM    4  C4  UNL     1       2.506   1.117  -9.315  1.00  0.00     0.006 C 
HETATM    5  C5  UNL     1       1.466   0.095  -9.124  1.00  0.00    -0.006 C 
HETATM    6  C6  UNL     1       0.506   0.180 -10.323  1.00  0.00    -0.006 C 
HETATM    7  C7  UNL     1      -0.196  -1.119 -10.413  1.00  0.00     0.008 C 
HETATM    8  C8  UNL     1      -1.514  -1.107 -11.102  1.00  0.00     0.032 C 
HETATM    9  C9  UNL     1      -1.715   0.148 -11.940  1.00  0.00     0.118 C 
HETATM   10  C10 UNL     1      -1.642   1.308 -10.976  1.00  0.00     0.036 C 
HETATM   11  C11 UNL     1      -0.322   1.398 -10.276  1.00  0.00    -0.008 C 
HETATM   12  C12 UNL     1      -0.597   1.901  -8.864  1.00  0.00     0.005 C 
HETATM   13  C13 UNL     1      -0.630   0.752  -7.893  1.00  0.00     0.006 C 
HETATM   14  C14 UNL     1       0.751   0.080  -7.815  1.00  0.00    -0.005 C 
HETATM   15  C15 UNL     1       1.477   0.698  -6.693  1.00  0.00     0.002 C 
HETATM   16  C16 UNL     1       1.423   0.019  -5.382  1.00  0.00     0.009 C 
HETATM   17  C17 UNL     1       2.640   0.582  -4.632  1.00  0.00     0.046 C 
HETATM   18  C18 UNL     1       3.326   1.520  -5.617  1.00  0.00     0.118 C 
ENDROOT
BRANCH  18  19
HETATM   19  O2  UNL     1       2.624   2.739  -5.516  1.00  0.00    -0.382 OA
ATOM     20  H2  UNL     1       1.810   2.605  -5.046  1.00  0.00     0.211 HD
ENDBRANCH  18  19
BRANCH  18  21
HETATM   21  C19 UNL     1       4.755   1.677  -5.383  1.00  0.00     0.269 C 
HETATM   22  O3  UNL     1       5.256   2.782  -5.440  1.00  0.00    -0.304 OA
ENDBRANCH  18  21
BRANCH   9  23
HETATM   23  O1  UNL     1      -2.954   0.148 -12.529  1.00  0.00    -0.396 OA
ATOM     24  H1  UNL     1      -3.564   0.678 -12.030  1.00  0.00     0.210 HD
ENDBRANCH   9  23
TORSDOF 3
ENDMDL
MODEL 5
REMARK VINA RESULT: -6.341941020      3.179      6.523
REMARK  3 active torsions:
REMARK  status: ('A' for Active; 'I' for Inactive)
REMARK    1  A    between atoms: C9_9  and  O1_10 
REMARK    2  A    between atoms: C18_20  and  O2_21 
REMARK    3  A    between atoms: C18_20  and  C19_23 
ROOT
HETATM    1  C1  UNL     1       4.795   2.885  -8.054  1.00  0.00     0.019 C 
HETATM    2  C2  UNL     1       3.552   2.815  -7.261  1.00  0.00    -0.002 C 
HETATM    3  C3  UNL     1       2.323   3.317  -7.934  1.00  0.00     0.013 C 
HETATM    4  C4  UNL     1       1.961   2.488  -9.101  1.00  0.00     0.006 C 
HETATM    5  C5  UNL     1       2.469   1.109  -9.155  1.00  0.00    -0.006 C 
HETATM    6  C6  UNL     1       1.449   0.268  -9.940  1.00  0.00    -0.006 C 
HETATM    7  C7  UNL     1       2.160  -0.930 -10.437  1.00  0.00     0.008 C 
HETATM    8  C8  UNL     1       1.317  -2.119 -10.732  1.00  0.00     0.032 C 
HETATM    9  C9  UNL     1      -0.158  -1.763 -10.856  1.00  0.00     0.118 C 
HETATM   10  C10 UNL     1      -0.560  -1.183  -9.522  1.00  0.00     0.036 C 
HETATM   11  C11 UNL     1       0.209   0.053  -9.172  1.00  0.00    -0.008 C 
HETATM   12  C12 UNL     1       0.416   0.040  -7.663  1.00  0.00     0.005 C 
HETATM   13  C13 UNL     1       1.787  -0.478  -7.323  1.00  0.00     0.006 C 
HETATM   14  C14 UNL     1       2.866   0.474  -7.865  1.00  0.00    -0.005 C 
HETATM   15  C15 UNL     1       3.211   1.408  -6.781  1.00  0.00     0.002 C 
HETATM   16  C16 UNL     1       4.375   1.079  -5.933  1.00  0.00     0.009 C 
HETATM   17  C17 UNL     1       4.760   2.428  -5.306  1.00  0.00     0.046 C 
HETATM   18  C18 UNL     1       3.790   3.444  -5.899  1.00  0.00     0.118 C 
ENDROOT
BRANCH  18  19
HETATM   19  O2  UNL     1       2.625   3.343  -5.112  1.00  0.00    -0.382 OA
ATOM     20  H2  UNL     1       2.607   4.041  -4.469  1.00  0.00     0.211 HD
ENDBRANCH  18  19
BRANCH  18  21
HETATM   21  C19 UNL     1       4.316   4.801  -5.949  1.00  0.00     0.269 C 
HETATM   22  O3  UNL     1       4.146   5.545  -5.005  1.00  0.00    -0.304 OA
ENDBRANCH  18  21
BRANCH   9  23
HETATM   23  O1  UNL     1      -0.912  -2.885 -11.088  1.00  0.00    -0.396 OA
ATOM     24  H1  UNL     1      -1.757  -2.654 -11.455  1.00  0.00     0.210 HD
ENDBRANCH   9  23
TORSDOF 3
ENDMDL
