MODEL 1
REMARK VINA RESULT: -7.658093172      0.000      0.000
REMARK  3 active torsions:
REMARK  status: ('A' for Active; 'I' for Inactive)
REMARK    1  A    between atoms: C2_2  and  C3_3 
REMARK    2  A    between atoms: C11_12  and  O2_13 
REMARK    3  A    between atoms: C16_19  and  O3_20 
ROOT
HETATM    1  C3  UNL     1       0.757  -0.242  -4.706  1.00  0.00     0.061 C 
HETATM    2  C4  UNL     1       1.193   0.883  -3.770  1.00  0.00     0.046 C 
HETATM    3  O1  UNL     1      -0.409  -0.713  -4.159  1.00  0.00    -0.375 OA
HETATM    4  C5  UNL     1      -1.504  -0.700  -4.975  1.00  0.00     0.118 C 
HETATM    5  C6  UNL     1      -2.682  -1.310  -4.296  1.00  0.00     0.039 C 
HETATM    6  C7  UNL     1      -1.117  -1.431  -6.243  1.00  0.00     0.037 C 
HETATM    7  C8  UNL     1      -0.295  -0.409  -7.009  1.00  0.00     0.002 C 
HETATM    8  C9  UNL     1       0.262  -1.092  -8.209  1.00  0.00     0.027 C 
HETATM    9  C10 UNL     1      -0.755  -1.118  -9.347  1.00  0.00     0.040 C 
HETATM   10  C11 UNL     1      -0.307  -1.939 -10.506  1.00  0.00     0.127 C 
HETATM   11  C12 UNL     1       1.102  -1.619 -10.952  1.00  0.00    -0.012 A 
HETATM   12  C13 UNL     1       1.346  -0.894 -12.216  1.00  0.00     0.013 A 
HETATM   13  C14 UNL     1       1.553  -2.378 -12.161  1.00  0.00     0.013 A 
HETATM   14  C15 UNL     1       2.054  -1.473  -9.815  1.00  0.00     0.050 C 
HETATM   15  C16 UNL     1       1.517  -0.525  -8.765  1.00  0.00     0.063 C 
HETATM   16  C17 UNL     1       2.510  -0.483  -7.611  1.00  0.00     0.038 C 
HETATM   17  C18 UNL     1       2.004   0.565  -6.681  1.00  0.00     0.011 C 
HETATM   18  C19 UNL     1       0.636   0.285  -6.109  1.00  0.00     0.024 C 
ENDROOT
BRANCH   1  19
HETATM   19  C2  UNL     1       1.807  -1.318  -4.547  1.00  0.00     0.033 C 
HETATM   20  C1  UNL     1       1.812  -1.862  -3.112  1.00  0.00     0.008 C 
ENDBRANCH   1  19
BRANCH  15  21
HETATM   21  O3  UNL     1       1.298   0.714  -9.320  1.00  0.00    -0.389 OA
ATOM     22  H3  UNL     1       2.095   1.232  -9.327  1.00  0.00     0.210 HD
ENDBRANCH  15  21
BRANCH  10  23
HETATM   23  O2  UNL     1      -1.144  -1.624 -11.591  1.00  0.00    -0.395 OA
ATOM     24  H2  UNL     1      -0.699  -1.904 -12.383  1.00  0.00     0.210 HD
ENDBRANCH  10  23
TORSDOF 3
ENDMDL
MODEL 2
REMARK VINA RESULT: -7.552700742      2.019      3.538
REMARK  3 active torsions:
REMARK  status: ('A' for Active; 'I' for Inactive)
REMARK    1  A    between atoms: C2_2  and  C3_3 
REMARK    2  A    between atoms: C11_12  and  O2_13 
REMARK    3  A    between atoms: C16_19  and  O3_20 
ROOT
HETATM    1  C3  UNL     1       1.750  -0.293  -4.338  1.00  0.00     0.061 C 
HETATM    2  C4  UNL     1       1.917  -1.400  -3.300  1.00  0.00     0.046 C 
HETATM    3  O1  UNL     1       2.889   0.462  -4.225  1.00  0.00    -0.375 OA
HETATM    4  C5  UNL     1       3.627   0.611  -5.365  1.00  0.00     0.118 C 
HETATM    5  C6  UNL     1       4.789   1.515  -5.133  1.00  0.00     0.039 C 
HETATM    6  C7  UNL     1       2.687   1.131  -6.432  1.00  0.00     0.037 C 
HETATM    7  C8  UNL     1       1.917  -0.105  -6.863  1.00  0.00     0.002 C 
HETATM    8  C9  UNL     1       0.854   0.337  -7.808  1.00  0.00     0.027 C 
HETATM    9  C10 UNL     1       1.405   0.481  -9.224  1.00  0.00     0.040 C 
HETATM   10  C11 UNL     1       0.425   1.085 -10.169  1.00  0.00     0.127 C 
HETATM   11  C12 UNL     1      -0.939   0.434 -10.107  1.00  0.00    -0.012 A 
HETATM   12  C13 UNL     1      -1.411  -0.433 -11.206  1.00  0.00     0.013 A 
HETATM   13  C14 UNL     1      -1.924   0.972 -11.096  1.00  0.00     0.013 A 
HETATM   14  C15 UNL     1      -1.403   0.188  -8.712  1.00  0.00     0.050 C 
HETATM   15  C16 UNL     1      -0.348  -0.530  -7.899  1.00  0.00     0.063 C 
HETATM   16  C17 UNL     1      -0.867  -0.683  -6.476  1.00  0.00     0.038 C 
HETATM   17  C18 UNL     1       0.143  -1.515  -5.764  1.00  0.00     0.011 C 
HETATM   18  C19 UNL     1       1.520  -0.901  -5.694  1.00  0.00     0.024 C 
ENDROOT
BRANCH   1  19
HETATM   19  C2  UNL     1       0.594   0.544  -3.841  1.00  0.00     0.033 C 
HETATM   20  C1  UNL     1       0.187   0.118  -2.424  1.00  0.00     0.008 C 
ENDBRANCH   1  19
BRANCH  15  21
HETATM   21  O3  UNL     1      -0.045  -1.738  -8.484  1.00  0.00    -0.389 OA
ATOM     22  H3  UNL     1      -0.285  -2.462  -7.918  1.00  0.00     0.210 HD
ENDBRANCH  15  21
BRANCH  10  23
HETATM   23  O2  UNL     1       0.907   0.863 -11.471  1.00  0.00    -0.395 OA
ATOM     24  H2  UNL     1       0.416   1.430 -12.055  1.00  0.00     0.210 HD
ENDBRANCH  10  23
TORSDOF 3
ENDMDL
MODEL 3
REMARK VINA RESULT: -7.159047873      1.798      6.390
REMARK  3 active torsions:
REMARK  status: ('A' for Active; 'I' for Inactive)
REMARK    1  A    between atoms: C2_2  and  C3_3 
REMARK    2  A    between atoms: C11_12  and  O2_13 
REMARK    3  A    between atoms: C16_19  and  O3_20 
ROOT
HETATM    1  C3  UNL     1      -0.045  -0.989 -11.301  1.00  0.00     0.061 C 
HETATM    2  C4  UNL     1      -1.334  -0.915 -12.114  1.00  0.00     0.046 C 
HETATM    3  O1  UNL     1       0.941  -0.623 -12.181  1.00  0.00    -0.375 OA
HETATM    4  C5  UNL     1       1.717   0.438 -11.807  1.00  0.00     0.118 C 
HETATM    5  C6  UNL     1       2.797   0.684 -12.804  1.00  0.00     0.039 C 
HETATM    6  C7  UNL     1       2.255   0.124 -10.427  1.00  0.00     0.037 C 
HETATM    7  C8  UNL     1       1.079   0.414  -9.510  1.00  0.00     0.002 C 
HETATM    8  C9  UNL     1       1.467  -0.014  -8.138  1.00  0.00     0.027 C 
HETATM    9  C10 UNL     1       2.277   1.071  -7.433  1.00  0.00     0.040 C 
HETATM   10  C11 UNL     1       2.832   0.623  -6.126  1.00  0.00     0.127 C 
HETATM   11  C12 UNL     1       1.804  -0.044  -5.241  1.00  0.00    -0.012 A 
HETATM   12  C13 UNL     1       1.286   0.641  -4.038  1.00  0.00     0.013 A 
HETATM   13  C14 UNL     1       2.315  -0.441  -3.891  1.00  0.00     0.013 A 
HETATM   14  C15 UNL     1       0.938  -1.009  -5.978  1.00  0.00     0.050 C 
HETATM   15  C16 UNL     1       0.354  -0.383  -7.225  1.00  0.00     0.063 C 
HETATM   16  C17 UNL     1      -0.456  -1.446  -7.955  1.00  0.00     0.038 C 
HETATM   17  C18 UNL     1      -1.119  -0.741  -9.088  1.00  0.00     0.011 C 
HETATM   18  C19 UNL     1      -0.165  -0.120 -10.080  1.00  0.00     0.024 C 
ENDROOT
BRANCH   1  19
HETATM   19  C2  UNL     1       0.141  -2.457 -10.988  1.00  0.00     0.033 C 
HETATM   20  C1  UNL     1       0.945  -3.148 -12.097  1.00  0.00     0.008 C 
ENDBRANCH   1  19
BRANCH  15  21
HETATM   21  O3  UNL     1      -0.398   0.719  -6.890  1.00  0.00    -0.389 OA
ATOM     22  H3  UNL     1      -0.431   0.837  -5.948  1.00  0.00     0.210 HD
ENDBRANCH  15  21
BRANCH  10  23
HETATM   23  O2  UNL     1       3.259   1.771  -5.436  1.00  0.00    -0.395 OA
ATOM     24  H2  UNL     1       2.698   1.869  -4.675  1.00  0.00     0.210 HD
ENDBRANCH  10  23
TORSDOF 3
ENDMDL
MODEL 4
REMARK VINA RESULT: -7.010066633      1.602      6.329
REMARK  3 active torsions:
REMARK  status: ('A' for Active; 'I' for Inactive)
REMARK    1  A    between atoms: C2_2  and  C3_3 
REMARK    2  A    between atoms: C11_12  and  O2_13 
REMARK    3  A    between atoms: C16_19  and  O3_20 
ROOT
HETATM    1  C3  UNL     1       0.104  -0.862 -11.069  1.00  0.00     0.061 C 
HETATM    2  C4  UNL     1      -1.004  -0.743 -12.112  1.00  0.00     0.046 C 
HETATM    3  O1  UNL     1       1.185  -0.241 -11.641  1.00  0.00    -0.375 OA
HETATM    4  C5  UNL     1       1.732   0.789 -10.929  1.00  0.00     0.118 C 
HETATM    5  C6  UNL     1       2.943   1.324 -11.613  1.00  0.00     0.039 C 
HETATM    6  C7  UNL     1       2.030   0.257  -9.544  1.00  0.00     0.037 C 
HETATM    7  C8  UNL     1       0.673   0.253  -8.862  1.00  0.00     0.002 C 
HETATM    8  C9  UNL     1       0.842  -0.403  -7.536  1.00  0.00     0.027 C 
HETATM    9  C10 UNL     1       1.355   0.589  -6.495  1.00  0.00     0.040 C 
HETATM   10  C11 UNL     1       1.701  -0.058  -5.199  1.00  0.00     0.127 C 
HETATM   11  C12 UNL     1       0.616  -0.977  -4.685  1.00  0.00    -0.012 A 
HETATM   12  C13 UNL     1      -0.207  -0.594  -3.518  1.00  0.00     0.013 A 
HETATM   13  C14 UNL     1       0.905  -1.586  -3.349  1.00  0.00     0.013 A 
HETATM   14  C15 UNL     1       0.040  -1.850  -5.747  1.00  0.00     0.050 C 
HETATM   15  C16 UNL     1      -0.369  -1.044  -6.960  1.00  0.00     0.063 C 
HETATM   16  C17 UNL     1      -0.881  -2.008  -8.022  1.00  0.00     0.038 C 
HETATM   17  C18 UNL     1      -1.398  -1.155  -9.128  1.00  0.00     0.011 C 
HETATM   18  C19 UNL     1      -0.359  -0.266  -9.768  1.00  0.00     0.024 C 
ENDROOT
BRANCH   1  19
HETATM   19  C2  UNL     1       0.413  -2.339 -10.987  1.00  0.00     0.033 C 
HETATM   20  C1  UNL     1       1.469  -2.730 -12.029  1.00  0.00     0.008 C 
ENDBRANCH   1  19
BRANCH  15  21
HETATM   21  O3  UNL     1      -1.307  -0.102  -6.605  1.00  0.00    -0.389 OA
ATOM     22  H3  UNL     1      -1.912   0.064  -7.318  1.00  0.00     0.210 HD
ENDBRANCH  15  21
BRANCH  10  23
HETATM   23  O2  UNL     1       1.836   0.963  -4.243  1.00  0.00    -0.395 OA
ATOM     24  H2  UNL     1       2.757   1.196  -4.205  1.00  0.00     0.210 HD
ENDBRANCH  10  23
TORSDOF 3
ENDMDL
MODEL 5
REMARK VINA RESULT: -6.900669097      2.675      4.839
REMARK  3 active torsions:
REMARK  status: ('A' for Active; 'I' for Inactive)
REMARK    1  A    between atoms: C2_2  and  C3_3 
REMARK    2  A    between atoms: C11_12  and  O2_13 
REMARK    3  A    between atoms: C16_19  and  O3_20 
ROOT
HETATM    1  C3  UNL     1       0.371  -1.130  -5.121  1.00  0.00     0.061 C 
HETATM    2  C4  UNL     1      -0.747  -1.175  -4.083  1.00  0.00     0.046 C 
HETATM    3  O1  UNL     1      -0.141  -1.790  -6.209  1.00  0.00    -0.375 OA
HETATM    4  C5  UNL     1      -0.162  -1.090  -7.382  1.00  0.00     0.118 C 
HETATM    5  C6  UNL     1      -0.662  -1.939  -8.499  1.00  0.00     0.039 C 
HETATM    6  C7  UNL     1       1.245  -0.583  -7.617  1.00  0.00     0.037 C 
HETATM    7  C8  UNL     1       1.356   0.610  -6.683  1.00  0.00     0.002 C 
HETATM    8  C9  UNL     1       2.766   1.085  -6.732  1.00  0.00     0.027 C 
HETATM    9  C10 UNL     1       2.994   2.007  -7.927  1.00  0.00     0.040 C 
HETATM   10  C11 UNL     1       4.426   2.369  -8.116  1.00  0.00     0.127 C 
HETATM   11  C12 UNL     1       5.091   2.843  -6.843  1.00  0.00    -0.012 A 
HETATM   12  C13 UNL     1       5.438   4.268  -6.659  1.00  0.00     0.013 A 
HETATM   13  C14 UNL     1       6.511   3.283  -7.017  1.00  0.00     0.013 A 
HETATM   14  C15 UNL     1       4.754   2.001  -5.660  1.00  0.00     0.050 C 
HETATM   15  C16 UNL     1       3.259   1.808  -5.531  1.00  0.00     0.063 C 
HETATM   16  C17 UNL     1       3.000   0.885  -4.347  1.00  0.00     0.038 C 
HETATM   17  C18 UNL     1       1.520   0.847  -4.181  1.00  0.00     0.011 C 
HETATM   18  C19 UNL     1       0.773   0.297  -5.372  1.00  0.00     0.024 C 
ENDROOT
BRANCH   1  19
HETATM   19  C2  UNL     1       1.479  -1.983  -4.547  1.00  0.00     0.033 C 
HETATM   20  C1  UNL     1       1.270  -2.200  -3.042  1.00  0.00     0.008 C 
ENDBRANCH   1  19
BRANCH  15  21
HETATM   21  O3  UNL     1       2.637   3.027  -5.397  1.00  0.00    -0.389 OA
ATOM     22  H3  UNL     1       1.972   3.148  -6.064  1.00  0.00     0.210 HD
ENDBRANCH  15  21
BRANCH  10  23
HETATM   23  O2  UNL     1       4.470   3.453  -9.009  1.00  0.00    -0.395 OA
ATOM     24  H2  UNL     1       5.250   3.350  -9.542  1.00  0.00     0.210 HD
ENDBRANCH  10  23
TORSDOF 3
ENDMDL
