MODEL 1
REMARK VINA RESULT: -5.973682574      0.000      0.000
REMARK  4 active torsions:
REMARK  status: ('A' for Active; 'I' for Inactive)
REMARK    1  A    between atoms: C2_2  and  C3_3 
REMARK    2  A    between atoms: C3_3  and  C4_4 
REMARK    3  A    between atoms: C11_11  and  O1_12 
REMARK    4  A    between atoms: C14_16  and  O2_17 
ROOT
HETATM    1  C4  UNL     1      -0.210  -0.890 -11.741  1.00  0.00    -0.003 C 
HETATM    2  C5  UNL     1      -0.101  -2.190 -10.984  1.00  0.00     0.013 C 
HETATM    3  C6  UNL     1      -0.789  -2.228  -9.672  1.00  0.00     0.008 C 
HETATM    4  C7  UNL     1      -0.254  -1.377  -8.614  1.00  0.00     0.021 C 
HETATM    5  C8  UNL     1      -1.292  -0.329  -8.153  1.00  0.00     0.009 C 
HETATM    6  C9  UNL     1      -0.770   1.016  -8.677  1.00  0.00     0.019 C 
HETATM    7  C10 UNL     1       0.331   0.593  -9.695  1.00  0.00     0.049 C 
HETATM    8  C11 UNL     1       1.495   1.500  -9.644  1.00  0.00     0.132 C 
HETATM    9  C12 UNL     1       2.689   0.721  -9.065  1.00  0.00     0.036 C 
HETATM   10  C13 UNL     1       2.207  -0.752  -9.174  1.00  0.00     0.042 C 
HETATM   11  C14 UNL     1       0.854  -0.511  -8.831  1.00  0.00     0.074 C 
HETATM   12  C15 UNL     1      -0.367   0.313 -10.935  1.00  0.00     0.082 C 
HETATM   13  C16 UNL     1      -0.415   1.548 -11.808  1.00  0.00     0.042 C 
HETATM   14  C17 UNL     1      -1.718   1.418 -12.613  1.00  0.00     0.035 C 
HETATM   15  C18 UNL     1      -2.296   0.184 -11.967  1.00  0.00     0.123 C 
HETATM   16  C19 UNL     1      -1.506  -0.971 -12.532  1.00  0.00     0.044 C 
HETATM   17  O3  UNL     1      -1.784   0.250 -10.699  1.00  0.00    -0.373 OA
ENDROOT
BRANCH   1  18
HETATM   18  C3  UNL     1       0.896  -0.885 -12.785  1.00  0.00     0.039 C 
BRANCH  18  19
HETATM   19  C2  UNL     1       1.365  -2.292 -13.037  1.00  0.00    -0.036 C 
HETATM   20  C1  UNL     1       1.471  -2.787 -14.254  1.00  0.00     0.007 C 
ENDBRANCH  18  19
ENDBRANCH   1  18
BRANCH   8  21
HETATM   21  O1  UNL     1       1.943   2.125 -10.744  1.00  0.00    -0.395 OA
ATOM     22  H1  UNL     1       2.722   2.668 -10.722  1.00  0.00     0.210 HD
ENDBRANCH   8  21
BRANCH  11  23
HETATM   23  O2  UNL     1       1.006   0.113  -7.529  1.00  0.00    -0.388 OA
ATOM     24  H2  UNL     1       1.943   0.263  -7.492  1.00  0.00     0.210 HD
ENDBRANCH  11  23
TORSDOF 4
ENDMDL
MODEL 2
REMARK VINA RESULT: -5.916946348      1.484      4.544
REMARK  4 active torsions:
REMARK  status: ('A' for Active; 'I' for Inactive)
REMARK    1  A    between atoms: C2_2  and  C3_3 
REMARK    2  A    between atoms: C3_3  and  C4_4 
REMARK    3  A    between atoms: C11_11  and  O1_12 
REMARK    4  A    between atoms: C14_16  and  O2_17 
ROOT
HETATM    1  C4  UNL     1       0.715  -0.012  -9.706  1.00  0.00    -0.003 C 
HETATM    2  C5  UNL     1       1.115   1.228 -10.466  1.00  0.00     0.013 C 
HETATM    3  C6  UNL     1       0.053   1.840 -11.301  1.00  0.00     0.008 C 
HETATM    4  C7  UNL     1      -0.407   1.078 -12.457  1.00  0.00     0.021 C 
HETATM    5  C8  UNL     1      -1.906   0.724 -12.341  1.00  0.00     0.009 C 
HETATM    6  C9  UNL     1      -1.947  -0.788 -12.082  1.00  0.00     0.019 C 
HETATM    7  C10 UNL     1      -0.470  -1.121 -11.717  1.00  0.00     0.049 C 
HETATM    8  C11 UNL     1      -0.051  -2.420 -12.280  1.00  0.00     0.132 C 
HETATM    9  C12 UNL     1       0.994  -2.155 -13.379  1.00  0.00     0.036 C 
HETATM   10  C13 UNL     1       1.397  -0.681 -13.103  1.00  0.00     0.042 C 
HETATM   11  C14 UNL     1       0.104  -0.215 -12.760  1.00  0.00     0.074 C 
HETATM   12  C15 UNL     1      -0.336  -0.822 -10.304  1.00  0.00     0.082 C 
HETATM   13  C16 UNL     1      -0.609  -2.056  -9.472  1.00  0.00     0.042 C 
HETATM   14  C17 UNL     1      -1.195  -1.528  -8.152  1.00  0.00     0.035 C 
HETATM   15  C18 UNL     1      -1.303  -0.062  -8.489  1.00  0.00     0.123 C 
HETATM   16  C19 UNL     1       0.105   0.474  -8.401  1.00  0.00     0.044 C 
HETATM   17  O3  UNL     1      -1.484  -0.086  -9.847  1.00  0.00    -0.373 OA
ENDROOT
BRANCH   1  18
HETATM   18  C3  UNL     1       1.998  -0.726  -9.306  1.00  0.00     0.039 C 
BRANCH  18  19
HETATM   19  C2  UNL     1       2.385  -0.333  -7.907  1.00  0.00    -0.036 C 
HETATM   20  C1  UNL     1       3.451   0.400  -7.655  1.00  0.00     0.007 C 
ENDBRANCH  18  19
ENDBRANCH   1  18
BRANCH   8  21
HETATM   21  O1  UNL     1       0.450  -3.391 -11.502  1.00  0.00    -0.395 OA
ATOM     22  H1  UNL     1       1.377  -3.595 -11.500  1.00  0.00     0.210 HD
ENDBRANCH   8  21
BRANCH  11  23
HETATM   23  O2  UNL     1      -0.640  -0.557 -13.960  1.00  0.00    -0.388 OA
ATOM     24  H2  UNL     1       0.027  -0.975 -14.491  1.00  0.00     0.210 HD
ENDBRANCH  11  23
TORSDOF 4
ENDMDL
MODEL 3
REMARK VINA RESULT: -5.876973415      1.491      3.147
REMARK  4 active torsions:
REMARK  status: ('A' for Active; 'I' for Inactive)
REMARK    1  A    between atoms: C2_2  and  C3_3 
REMARK    2  A    between atoms: C3_3  and  C4_4 
REMARK    3  A    between atoms: C11_11  and  O1_12 
REMARK    4  A    between atoms: C14_16  and  O2_17 
ROOT
HETATM    1  C4  UNL     1      -1.067  -0.455 -10.583  1.00  0.00    -0.003 C 
HETATM    2  C5  UNL     1      -1.683   0.380  -9.489  1.00  0.00     0.013 C 
HETATM    3  C6  UNL     1      -1.276   1.805  -9.461  1.00  0.00     0.008 C 
HETATM    4  C7  UNL     1       0.114   2.094  -9.124  1.00  0.00     0.021 C 
HETATM    5  C8  UNL     1       0.842   2.805 -10.286  1.00  0.00     0.009 C 
HETATM    6  C9  UNL     1       1.820   1.765 -10.850  1.00  0.00     0.019 C 
HETATM    7  C10 UNL     1       1.329   0.436 -10.203  1.00  0.00     0.049 C 
HETATM    8  C11 UNL     1       2.461  -0.435  -9.827  1.00  0.00     0.132 C 
HETATM    9  C12 UNL     1       2.526  -0.506  -8.291  1.00  0.00     0.036 C 
HETATM   10  C13 UNL     1       1.138   0.055  -7.876  1.00  0.00     0.042 C 
HETATM   11  C14 UNL     1       1.059   1.060  -8.870  1.00  0.00     0.074 C 
HETATM   12  C15 UNL     1       0.249  -0.037 -11.047  1.00  0.00     0.082 C 
HETATM   13  C16 UNL     1       0.776  -0.981 -12.106  1.00  0.00     0.042 C 
HETATM   14  C17 UNL     1      -0.164  -0.797 -13.309  1.00  0.00     0.035 C 
HETATM   15  C18 UNL     1      -1.011   0.342 -12.800  1.00  0.00     0.123 C 
HETATM   16  C19 UNL     1      -1.957  -0.277 -11.802  1.00  0.00     0.044 C 
HETATM   17  O3  UNL     1      -0.147   0.998 -11.964  1.00  0.00    -0.373 OA
ENDROOT
BRANCH   1  18
HETATM   18  C3  UNL     1      -1.228  -1.913 -10.179  1.00  0.00     0.039 C 
BRANCH  18  19
HETATM   19  C2  UNL     1      -1.104  -2.045  -8.686  1.00  0.00    -0.036 C 
HETATM   20  C1  UNL     1      -1.468  -3.139  -8.048  1.00  0.00     0.007 C 
ENDBRANCH  18  19
ENDBRANCH   1  18
BRANCH   8  21
HETATM   21  O1  UNL     1       2.550  -1.698 -10.272  1.00  0.00    -0.395 OA
ATOM     22  H1  UNL     1       3.310  -2.000 -10.755  1.00  0.00     0.210 HD
ENDBRANCH   8  21
BRANCH  11  23
HETATM   23  O2  UNL     1       2.266   1.819  -8.594  1.00  0.00    -0.388 OA
ATOM     24  H2  UNL     1       2.918   1.132  -8.530  1.00  0.00     0.210 HD
ENDBRANCH  11  23
TORSDOF 4
ENDMDL
MODEL 4
REMARK VINA RESULT: -5.867724599      1.356      4.625
REMARK  4 active torsions:
REMARK  status: ('A' for Active; 'I' for Inactive)
REMARK    1  A    between atoms: C2_2  and  C3_3 
REMARK    2  A    between atoms: C3_3  and  C4_4 
REMARK    3  A    between atoms: C11_11  and  O1_12 
REMARK    4  A    between atoms: C14_16  and  O2_17 
ROOT
HETATM    1  C4  UNL     1      -0.086  -0.715  -9.568  1.00  0.00    -0.003 C 
HETATM    2  C5  UNL     1      -0.586  -2.058 -10.038  1.00  0.00     0.013 C 
HETATM    3  C6  UNL     1       0.102  -2.620 -11.225  1.00  0.00     0.008 C 
HETATM    4  C7  UNL     1      -0.082  -1.923 -12.494  1.00  0.00     0.021 C 
HETATM    5  C8  UNL     1       1.259  -1.390 -13.046  1.00  0.00     0.009 C 
HETATM    6  C9  UNL     1       1.188   0.134 -12.883  1.00  0.00     0.019 C 
HETATM    7  C10 UNL     1      -0.029   0.329 -11.931  1.00  0.00     0.049 C 
HETATM    8  C11 UNL     1      -0.828   1.513 -12.306  1.00  0.00     0.132 C 
HETATM    9  C12 UNL     1      -2.189   1.029 -12.839  1.00  0.00     0.036 C 
HETATM   10  C13 UNL     1      -2.222  -0.450 -12.364  1.00  0.00     0.042 C 
HETATM   11  C14 UNL     1      -0.853  -0.731 -12.594  1.00  0.00     0.074 C 
HETATM   12  C15 UNL     1       0.488   0.150 -10.588  1.00  0.00     0.082 C 
HETATM   13  C16 UNL     1       0.906   1.480  -9.999  1.00  0.00     0.042 C 
HETATM   14  C17 UNL     1       2.062   1.148  -9.041  1.00  0.00     0.035 C 
HETATM   15  C18 UNL     1       2.226  -0.321  -9.339  1.00  0.00     0.123 C 
HETATM   16  C19 UNL     1       1.080  -1.004  -8.636  1.00  0.00     0.044 C 
HETATM   17  O3  UNL     1       1.814  -0.404 -10.643  1.00  0.00    -0.373 OA
ENDROOT
BRANCH   1  18
HETATM   18  C3  UNL     1      -1.169  -0.119  -8.682  1.00  0.00     0.039 C 
BRANCH  18  19
HETATM   19  C2  UNL     1      -0.897  -0.463  -7.243  1.00  0.00    -0.036 C 
HETATM   20  C1  UNL     1      -1.810  -1.016  -6.471  1.00  0.00     0.007 C 
ENDBRANCH  18  19
ENDBRANCH   1  18
BRANCH   8  21
HETATM   21  O1  UNL     1      -1.089   2.489 -11.424  1.00  0.00    -0.395 OA
ATOM     22  H1  UNL     1      -1.926   2.938 -11.414  1.00  0.00     0.210 HD
ENDBRANCH   8  21
BRANCH  11  23
HETATM   23  O2  UNL     1      -0.740  -0.420 -14.008  1.00  0.00    -0.388 OA
ATOM     24  H2  UNL     1      -1.571   0.008 -14.181  1.00  0.00     0.210 HD
ENDBRANCH  11  23
TORSDOF 4
ENDMDL
MODEL 5
REMARK VINA RESULT: -5.858021477      1.810      3.379
REMARK  4 active torsions:
REMARK  status: ('A' for Active; 'I' for Inactive)
REMARK    1  A    between atoms: C2_2  and  C3_3 
REMARK    2  A    between atoms: C3_3  and  C4_4 
REMARK    3  A    between atoms: C11_11  and  O1_12 
REMARK    4  A    between atoms: C14_16  and  O2_17 
ROOT
HETATM    1  C4  UNL     1       0.535   1.186 -11.823  1.00  0.00    -0.003 C 
HETATM    2  C5  UNL     1       1.867   0.537 -11.543  1.00  0.00     0.013 C 
HETATM    3  C6  UNL     1       1.873  -0.945 -11.540  1.00  0.00     0.008 C 
HETATM    4  C7  UNL     1       1.138  -1.612 -10.470  1.00  0.00     0.021 C 
HETATM    5  C8  UNL     1      -0.012  -2.479 -11.029  1.00  0.00     0.009 C 
HETATM    6  C9  UNL     1      -1.302  -1.742 -10.643  1.00  0.00     0.019 C 
HETATM    7  C10 UNL     1      -0.785  -0.339 -10.207  1.00  0.00     0.049 C 
HETATM    8  C11 UNL     1      -1.538   0.180  -9.047  1.00  0.00     0.132 C 
HETATM    9  C12 UNL     1      -0.594   0.207  -7.832  1.00  0.00     0.036 C 
HETATM   10  C13 UNL     1       0.802   0.046  -8.494  1.00  0.00     0.042 C 
HETATM   11  C14 UNL     1       0.409  -0.883  -9.489  1.00  0.00     0.074 C 
HETATM   12  C15 UNL     1      -0.645   0.427 -11.431  1.00  0.00     0.082 C 
HETATM   13  C16 UNL     1      -1.910   1.204 -11.720  1.00  0.00     0.042 C 
HETATM   14  C17 UNL     1      -1.976   1.306 -13.252  1.00  0.00     0.035 C 
HETATM   15  C18 UNL     1      -0.798   0.438 -13.617  1.00  0.00     0.123 C 
HETATM   16  C19 UNL     1       0.422   1.279 -13.336  1.00  0.00     0.044 C 
HETATM   17  O3  UNL     1      -0.749  -0.444 -12.570  1.00  0.00    -0.373 OA
ENDROOT
BRANCH   1  18
HETATM   18  C3  UNL     1       0.626   2.625 -11.339  1.00  0.00     0.039 C 
BRANCH  18  19
HETATM   19  C2  UNL     1       1.830   2.790 -10.453  1.00  0.00    -0.036 C 
HETATM   20  C1  UNL     1       1.797   3.520  -9.357  1.00  0.00     0.007 C 
ENDBRANCH  18  19
ENDBRANCH   1  18
BRANCH   8  21
HETATM   21  O1  UNL     1      -2.146   1.376  -9.085  1.00  0.00    -0.395 OA
ATOM     22  H1  UNL     1      -1.807   2.087  -9.614  1.00  0.00     0.210 HD
ENDBRANCH   8  21
BRANCH  11  23
HETATM   23  O2  UNL     1      -0.139  -1.950  -8.670  1.00  0.00    -0.388 OA
ATOM     24  H2  UNL     1      -0.412  -1.479  -7.892  1.00  0.00     0.210 HD
ENDBRANCH  11  23
TORSDOF 4
ENDMDL
