MODEL 1
REMARK VINA RESULT: -8.548834455      0.000      0.000
REMARK  4 active torsions:
REMARK  status: ('A' for Active; 'I' for Inactive)
REMARK    1  A    between atoms: C1_2  and  C2_4 
REMARK    2  A    between atoms: N2_7  and  C5_8 
REMARK    3  A    between atoms: C13_16  and  C14_17 
REMARK       I    between atoms: C14_17  and  N3_19 
REMARK    4  A    between atoms: N3_19  and  C15_21 
ROOT
HETATM    1  C5  UNL     1      13.386  -0.726   8.370  1.00  0.00     0.208 C 
HETATM    2  C6  UNL     1      12.957   0.136   9.564  1.00  0.00     0.017 C 
HETATM    3  C7  UNL     1      11.845  -0.467  10.366  1.00  0.00     0.007 C 
HETATM    4  C8  UNL     1      11.685  -1.928  10.295  1.00  0.00     0.001 C 
HETATM    5  C9  UNL     1      12.926  -2.738  10.294  1.00  0.00     0.005 C 
HETATM    6  C10 UNL     1      14.210  -1.998  10.241  1.00  0.00     0.001 C 
HETATM    7  C11 UNL     1      14.353  -0.891  11.256  1.00  0.00     0.006 C 
HETATM    8  C12 UNL     1      14.128   0.385  10.520  1.00  0.00     0.007 C 
HETATM    9  C13 UNL     1      14.550  -1.510   8.814  1.00  0.00     0.113 C 
ENDROOT
BRANCH   9  10
HETATM   10  C14 UNL     1      14.932  -2.710   8.085  1.00  0.00     0.226 C 
HETATM   11  O2  UNL     1      15.774  -3.515   8.525  1.00  0.00    -0.273 OA
HETATM   12  N3  UNL     1      14.426  -3.111   6.835  1.00  0.00    -0.325 N 
ATOM     13  H3  UNL     1      13.727  -2.515   6.392  1.00  0.00     0.165 HD
BRANCH  12  14
HETATM   14  C15 UNL     1      14.827  -4.304   6.141  1.00  0.00     0.379 C 
HETATM   15  N4  UNL     1      16.235  -4.296   5.795  1.00  0.00    -0.045 N 
HETATM   16  C16 UNL     1      16.627  -5.651   5.447  1.00  0.00     0.237 C 
ATOM     17  H42 UNL     1      16.456  -3.623   5.060  1.00  0.00     0.280 HD
ATOM     18  H41 UNL     1      16.819  -3.894   6.529  1.00  0.00     0.280 HD
HETATM   19  C17 UNL     1      16.566  -5.899   3.967  1.00  0.00     0.047 C 
HETATM   20  C18 UNL     1      15.172  -6.369   3.574  1.00  0.00     0.124 C 
HETATM   21  N5  UNL     1      14.286  -5.237   3.723  1.00  0.00    -0.358 N 
HETATM   22  C19 UNL     1      14.054  -4.474   4.872  1.00  0.00     0.268 C 
ATOM     23  H5  UNL     1      13.766  -4.961   2.890  1.00  0.00     0.162 HD
HETATM   24  O3  UNL     1      12.992  -3.799   4.833  1.00  0.00    -0.269 OA
ENDBRANCH  12  14
ENDBRANCH   9  10
BRANCH   1  25
HETATM   25  N2  UNL     1      13.450  -0.031   7.141  1.00  0.00    -0.060 N 
HETATM   26  C4  UNL     1      13.034  -0.819   5.988  1.00  0.00     0.239 C 
HETATM   27  C3  UNL     1      12.896   0.205   4.850  1.00  0.00     0.048 C 
HETATM   28  C2  UNL     1      12.948   1.509   5.575  1.00  0.00     0.066 C 
HETATM   29  C21 UNL     1      14.343   1.898   6.026  1.00  0.00     0.048 C 
HETATM   30  C22 UNL     1      12.471   1.049   6.972  1.00  0.00     0.256 C 
HETATM   31  C20 UNL     1      14.676   0.613   6.800  1.00  0.00     0.239 C 
BRANCH  28  32
HETATM   32  C1  UNL     1      12.165   2.583   5.034  1.00  0.00     0.241 C 
HETATM   33  N1  UNL     1      10.744   2.536   5.047  1.00  0.00    -0.061 NA
HETATM   34  O1  UNL     1      12.721   3.596   4.533  1.00  0.00    -0.276 OA
ENDBRANCH  28  32
ENDBRANCH   1  25
TORSDOF 4
ENDMDL
MODEL 2
REMARK VINA RESULT: -8.340770459      2.158      5.553
REMARK  4 active torsions:
REMARK  status: ('A' for Active; 'I' for Inactive)
REMARK    1  A    between atoms: C1_2  and  C2_4 
REMARK    2  A    between atoms: N2_7  and  C5_8 
REMARK    3  A    between atoms: C13_16  and  C14_17 
REMARK       I    between atoms: C14_17  and  N3_19 
REMARK    4  A    between atoms: N3_19  and  C15_21 
ROOT
HETATM    1  C5  UNL     1      14.253  -1.816   8.806  1.00  0.00     0.208 C 
HETATM    2  C6  UNL     1      13.682  -2.158  10.188  1.00  0.00     0.017 C 
HETATM    3  C7  UNL     1      14.236  -1.309  11.290  1.00  0.00     0.007 C 
HETATM    4  C8  UNL     1      14.770   0.010  10.915  1.00  0.00     0.001 C 
HETATM    5  C9  UNL     1      14.009   0.774   9.899  1.00  0.00     0.005 C 
HETATM    6  C10 UNL     1      12.855   0.089   9.269  1.00  0.00     0.001 C 
HETATM    7  C11 UNL     1      11.881  -0.541  10.233  1.00  0.00     0.006 C 
HETATM    8  C12 UNL     1      12.159  -2.005  10.214  1.00  0.00     0.007 C 
HETATM    9  C13 UNL     1      13.290  -0.905   8.167  1.00  0.00     0.113 C 
ENDROOT
BRANCH   9  10
HETATM   10  C14 UNL     1      13.715  -0.072   7.052  1.00  0.00     0.226 C 
HETATM   11  O2  UNL     1      14.650   0.744   7.151  1.00  0.00    -0.273 OA
HETATM   12  N3  UNL     1      13.152  -0.071   5.763  1.00  0.00    -0.325 N 
ATOM     13  H3  UNL     1      12.377  -0.709   5.582  1.00  0.00     0.165 HD
BRANCH  12  14
HETATM   14  C15 UNL     1      13.596   0.768   4.683  1.00  0.00     0.379 C 
HETATM   15  N4  UNL     1      12.500   1.466   4.038  1.00  0.00    -0.045 N 
HETATM   16  C16 UNL     1      13.056   2.542   3.237  1.00  0.00     0.237 C 
ATOM     17  H42 UNL     1      11.901   0.842   3.497  1.00  0.00     0.280 HD
ATOM     18  H41 UNL     1      11.797   1.792   4.701  1.00  0.00     0.280 HD
HETATM   19  C17 UNL     1      13.255   2.140   1.803  1.00  0.00     0.047 C 
HETATM   20  C18 UNL     1      14.631   1.511   1.625  1.00  0.00     0.124 C 
HETATM   21  N5  UNL     1      14.599   0.229   2.293  1.00  0.00    -0.358 N 
HETATM   22  C19 UNL     1      14.297  -0.034   3.633  1.00  0.00     0.268 C 
ATOM     23  H5  UNL     1      14.824  -0.583   1.717  1.00  0.00     0.162 HD
HETATM   24  O3  UNL     1      14.691  -1.160   4.036  1.00  0.00    -0.269 OA
ENDBRANCH  12  14
ENDBRANCH   9  10
BRANCH   1  25
HETATM   25  N2  UNL     1      14.737  -2.929   8.082  1.00  0.00    -0.060 N 
HETATM   26  C4  UNL     1      13.772  -3.501   7.152  1.00  0.00     0.239 C 
HETATM   27  C3  UNL     1      14.596  -4.468   6.286  1.00  0.00     0.048 C 
HETATM   28  C2  UNL     1      16.001  -4.093   6.625  1.00  0.00     0.066 C 
HETATM   29  C21 UNL     1      16.455  -4.602   7.980  1.00  0.00     0.048 C 
HETATM   30  C22 UNL     1      15.777  -2.635   7.090  1.00  0.00     0.256 C 
HETATM   31  C20 UNL     1      15.314  -4.006   8.818  1.00  0.00     0.239 C 
BRANCH  28  32
HETATM   32  C1  UNL     1      16.974  -4.212   5.577  1.00  0.00     0.241 C 
HETATM   33  N1  UNL     1      17.521  -3.059   4.949  1.00  0.00    -0.061 NA
HETATM   34  O1  UNL     1      17.367  -5.343   5.188  1.00  0.00    -0.276 OA
ENDBRANCH  28  32
ENDBRANCH   1  25
TORSDOF 4
ENDMDL
MODEL 3
REMARK VINA RESULT: -8.074807405      3.450      8.529
REMARK  4 active torsions:
REMARK  status: ('A' for Active; 'I' for Inactive)
REMARK    1  A    between atoms: C1_2  and  C2_4 
REMARK    2  A    between atoms: N2_7  and  C5_8 
REMARK    3  A    between atoms: C13_16  and  C14_17 
REMARK       I    between atoms: C14_17  and  N3_19 
REMARK    4  A    between atoms: N3_19  and  C15_21 
ROOT
HETATM    1  C5  UNL     1      17.739  -5.249   2.472  1.00  0.00     0.208 C 
HETATM    2  C6  UNL     1      19.161  -5.597   2.016  1.00  0.00     0.017 C 
HETATM    3  C7  UNL     1      20.108  -4.438   2.073  1.00  0.00     0.007 C 
HETATM    4  C8  UNL     1      19.778  -3.350   3.007  1.00  0.00     0.001 C 
HETATM    5  C9  UNL     1      19.238  -3.745   4.329  1.00  0.00     0.005 C 
HETATM    6  C10 UNL     1      18.968  -5.187   4.541  1.00  0.00     0.001 C 
HETATM    7  C11 UNL     1      20.107  -6.110   4.186  1.00  0.00     0.006 C 
HETATM    8  C12 UNL     1      19.759  -6.719   2.870  1.00  0.00     0.007 C 
HETATM    9  C13 UNL     1      17.643  -5.640   3.887  1.00  0.00     0.113 C 
ENDROOT
BRANCH   9  10
HETATM   10  C14 UNL     1      16.595  -5.073   4.723  1.00  0.00     0.226 C 
HETATM   11  O2  UNL     1      15.572  -4.550   4.243  1.00  0.00    -0.273 OA
HETATM   12  N3  UNL     1      16.593  -5.036   6.130  1.00  0.00    -0.325 N 
ATOM     13  H3  UNL     1      17.391  -5.442   6.617  1.00  0.00     0.165 HD
BRANCH  12  14
HETATM   14  C15 UNL     1      15.541  -4.466   6.925  1.00  0.00     0.379 C 
HETATM   15  N4  UNL     1      15.301  -3.071   6.609  1.00  0.00    -0.045 N 
HETATM   16  C16 UNL     1      14.016  -2.691   7.169  1.00  0.00     0.237 C 
ATOM     17  H42 UNL     1      16.059  -2.462   6.917  1.00  0.00     0.280 HD
ATOM     18  H41 UNL     1      15.367  -2.878   5.609  1.00  0.00     0.280 HD
HETATM   19  C17 UNL     1      14.150  -2.056   8.523  1.00  0.00     0.047 C 
HETATM   20  C18 UNL     1      14.128  -3.127   9.606  1.00  0.00     0.124 C 
HETATM   21  N5  UNL     1      15.367  -3.864   9.498  1.00  0.00    -0.358 N 
HETATM   22  C19 UNL     1      15.866  -4.546   8.383  1.00  0.00     0.268 C 
ATOM     23  H5  UNL     1      15.948  -3.891  10.336  1.00  0.00     0.162 HD
HETATM   24  O3  UNL     1      16.760  -5.389   8.656  1.00  0.00    -0.269 OA
ENDBRANCH  12  14
ENDBRANCH   9  10
BRANCH   1  25
HETATM   25  N2  UNL     1      16.723  -5.648   1.573  1.00  0.00    -0.060 N 
HETATM   26  C4  UNL     1      17.217  -6.118   0.285  1.00  0.00     0.239 C 
HETATM   27  C3  UNL     1      15.994  -6.765  -0.384  1.00  0.00     0.048 C 
HETATM   28  C2  UNL     1      15.019  -6.864   0.743  1.00  0.00     0.066 C 
HETATM   29  C21 UNL     1      14.372  -5.541   1.104  1.00  0.00     0.048 C 
HETATM   30  C22 UNL     1      16.001  -6.872   1.937  1.00  0.00     0.256 C 
HETATM   31  C20 UNL     1      15.661  -4.732   1.316  1.00  0.00     0.239 C 
BRANCH  28  32
HETATM   32  C1  UNL     1      14.129  -7.990   0.733  1.00  0.00     0.241 C 
HETATM   33  N1  UNL     1      12.720  -7.813   0.656  1.00  0.00    -0.061 NA
HETATM   34  O1  UNL     1      14.577  -9.165   0.791  1.00  0.00    -0.276 OA
ENDBRANCH  28  32
ENDBRANCH   1  25
TORSDOF 4
ENDMDL
MODEL 4
REMARK VINA RESULT: -7.909104841      3.167      8.507
REMARK  4 active torsions:
REMARK  status: ('A' for Active; 'I' for Inactive)
REMARK    1  A    between atoms: C1_2  and  C2_4 
REMARK    2  A    between atoms: N2_7  and  C5_8 
REMARK    3  A    between atoms: C13_16  and  C14_17 
REMARK       I    between atoms: C14_17  and  N3_19 
REMARK    4  A    between atoms: N3_19  and  C15_21 
ROOT
HETATM    1  C5  UNL     1      17.540  -5.068   2.776  1.00  0.00     0.208 C 
HETATM    2  C6  UNL     1      18.956  -5.424   2.307  1.00  0.00     0.017 C 
HETATM    3  C7  UNL     1      19.858  -4.235   2.174  1.00  0.00     0.007 C 
HETATM    4  C8  UNL     1      19.521  -3.047   2.975  1.00  0.00     0.001 C 
HETATM    5  C9  UNL     1      19.049  -3.286   4.359  1.00  0.00     0.005 C 
HETATM    6  C10 UNL     1      18.846  -4.697   4.765  1.00  0.00     0.001 C 
HETATM    7  C11 UNL     1      20.006  -5.618   4.481  1.00  0.00     0.006 C 
HETATM    8  C12 UNL     1      19.632  -6.404   3.271  1.00  0.00     0.007 C 
HETATM    9  C13 UNL     1      17.515  -5.276   4.233  1.00  0.00     0.113 C 
ENDROOT
BRANCH   9  10
HETATM   10  C14 UNL     1      16.479  -4.642   5.034  1.00  0.00     0.226 C 
HETATM   11  O2  UNL     1      15.561  -3.971   4.525  1.00  0.00    -0.273 OA
HETATM   12  N3  UNL     1      16.374  -4.695   6.436  1.00  0.00    -0.325 N 
ATOM     13  H3  UNL     1      17.081  -5.224   6.946  1.00  0.00     0.165 HD
BRANCH  12  14
HETATM   14  C15 UNL     1      15.337  -4.055   7.198  1.00  0.00     0.379 C 
HETATM   15  N4  UNL     1      15.273  -2.627   6.955  1.00  0.00    -0.045 N 
HETATM   16  C16 UNL     1      14.000  -2.136   7.455  1.00  0.00     0.237 C 
ATOM     17  H42 UNL     1      16.069  -2.125   7.348  1.00  0.00     0.280 HD
ATOM     18  H41 UNL     1      15.429  -2.387   5.975  1.00  0.00     0.280 HD
HETATM   19  C17 UNL     1      14.108  -1.595   8.852  1.00  0.00     0.047 C 
HETATM   20  C18 UNL     1      13.894  -2.715   9.862  1.00  0.00     0.124 C 
HETATM   21  N5  UNL     1      15.050  -3.579   9.787  1.00  0.00    -0.358 N 
HETATM   22  C19 UNL     1      15.549  -4.250   8.666  1.00  0.00     0.268 C 
ATOM     23  H5  UNL     1      15.565  -3.717  10.657  1.00  0.00     0.162 HD
HETATM   24  O3  UNL     1      16.325  -5.203   8.942  1.00  0.00    -0.269 OA
ENDBRANCH  12  14
ENDBRANCH   9  10
BRANCH   1  25
HETATM   25  N2  UNL     1      16.507  -5.615   1.982  1.00  0.00    -0.060 N 
HETATM   26  C4  UNL     1      15.691  -4.621   1.296  1.00  0.00     0.239 C 
HETATM   27  C3  UNL     1      14.862  -5.431   0.287  1.00  0.00     0.048 C 
HETATM   28  C2  UNL     1      15.538  -6.763   0.303  1.00  0.00     0.066 C 
HETATM   29  C21 UNL     1      15.220  -7.591   1.533  1.00  0.00     0.048 C 
HETATM   30  C22 UNL     1      16.945  -6.335   0.781  1.00  0.00     0.256 C 
HETATM   31  C20 UNL     1      15.620  -6.552   2.591  1.00  0.00     0.239 C 
BRANCH  28  32
HETATM   32  C1  UNL     1      15.556  -7.495  -0.931  1.00  0.00     0.241 C 
HETATM   33  N1  UNL     1      14.460  -8.315  -1.315  1.00  0.00    -0.061 NA
HETATM   34  O1  UNL     1      16.546  -7.427  -1.706  1.00  0.00    -0.276 OA
ENDBRANCH  28  32
ENDBRANCH   1  25
TORSDOF 4
ENDMDL
MODEL 5
REMARK VINA RESULT: -7.900050761      2.563      6.926
REMARK  4 active torsions:
REMARK  status: ('A' for Active; 'I' for Inactive)
REMARK    1  A    between atoms: C1_2  and  C2_4 
REMARK    2  A    between atoms: N2_7  and  C5_8 
REMARK    3  A    between atoms: C13_16  and  C14_17 
REMARK       I    between atoms: C14_17  and  N3_19 
REMARK    4  A    between atoms: N3_19  and  C15_21 
ROOT
HETATM    1  C5  UNL     1      15.507  -4.126   5.075  1.00  0.00     0.208 C 
HETATM    2  C6  UNL     1      16.357  -5.370   4.790  1.00  0.00     0.017 C 
HETATM    3  C7  UNL     1      15.666  -6.381   3.928  1.00  0.00     0.007 C 
HETATM    4  C8  UNL     1      14.591  -5.890   3.051  1.00  0.00     0.001 C 
HETATM    5  C9  UNL     1      14.819  -4.589   2.379  1.00  0.00     0.005 C 
HETATM    6  C10 UNL     1      16.050  -3.850   2.746  1.00  0.00     0.001 C 
HETATM    7  C11 UNL     1      17.323  -4.658   2.686  1.00  0.00     0.006 C 
HETATM    8  C12 UNL     1      17.671  -4.998   4.095  1.00  0.00     0.007 C 
HETATM    9  C13 UNL     1      15.910  -3.106   4.094  1.00  0.00     0.113 C 
ENDROOT
BRANCH   9  10
HETATM   10  C14 UNL     1      15.028  -1.983   3.816  1.00  0.00     0.226 C 
HETATM   11  O2  UNL     1      15.461  -0.841   3.574  1.00  0.00    -0.273 OA
HETATM   12  N3  UNL     1      13.622  -2.028   3.784  1.00  0.00    -0.325 N 
ATOM     13  H3  UNL     1      13.170  -2.923   3.969  1.00  0.00     0.165 HD
BRANCH  12  14
HETATM   14  C15 UNL     1      12.779  -0.897   3.507  1.00  0.00     0.379 C 
HETATM   15  N4  UNL     1      12.445  -0.149   4.704  1.00  0.00    -0.045 N 
HETATM   16  C16 UNL     1      11.924   1.146   4.301  1.00  0.00     0.237 C 
ATOM     17  H42 UNL     1      11.808  -0.655   5.318  1.00  0.00     0.280 HD
ATOM     18  H41 UNL     1      13.230  -0.073   5.352  1.00  0.00     0.280 HD
HETATM   19  C17 UNL     1      10.424   1.159   4.230  1.00  0.00     0.047 C 
HETATM   20  C18 UNL     1       9.964   0.720   2.846  1.00  0.00     0.124 C 
HETATM   21  N5  UNL     1      10.256  -0.691   2.731  1.00  0.00    -0.358 N 
HETATM   22  C19 UNL     1      11.494  -1.326   2.874  1.00  0.00     0.268 C 
ATOM     23  H5  UNL     1       9.463  -1.298   2.520  1.00  0.00     0.162 HD
HETATM   24  O3  UNL     1      11.538  -2.481   2.373  1.00  0.00    -0.269 OA
ENDBRANCH  12  14
ENDBRANCH   9  10
BRANCH   1  25
HETATM   25  N2  UNL     1      15.425  -3.776   6.442  1.00  0.00    -0.060 N 
HETATM   26  C4  UNL     1      15.251  -2.349   6.683  1.00  0.00     0.239 C 
HETATM   27  C3  UNL     1      14.889  -2.250   8.173  1.00  0.00     0.048 C 
HETATM   28  C2  UNL     1      14.592  -3.669   8.532  1.00  0.00     0.066 C 
HETATM   29  C21 UNL     1      15.831  -4.529   8.685  1.00  0.00     0.048 C 
HETATM   30  C22 UNL     1      14.210  -4.216   7.137  1.00  0.00     0.256 C 
HETATM   31  C20 UNL     1      16.457  -4.234   7.313  1.00  0.00     0.239 C 
BRANCH  28  32
HETATM   32  C1  UNL     1      13.578  -3.887   9.524  1.00  0.00     0.241 C 
HETATM   33  N1  UNL     1      12.964  -2.798  10.201  1.00  0.00    -0.061 NA
HETATM   34  O1  UNL     1      13.207  -5.054   9.819  1.00  0.00    -0.276 OA
ENDBRANCH  28  32
ENDBRANCH   1  25
TORSDOF 4
ENDMDL
