MODEL 1
REMARK VINA RESULT: -7.848124086      0.000      0.000
REMARK  4 active torsions:
REMARK  status: ('A' for Active; 'I' for Inactive)
REMARK       I    between atoms: C1_2  and  N2_4 
REMARK       I    between atoms: C2_6  and  N3_7 
REMARK       I    between atoms: C2_6  and  N4_19 
REMARK    1  A    between atoms: N3_7  and  C3_9 
REMARK    2  A    between atoms: C15_22  and  N5_23 
REMARK    3  A    between atoms: C15_22  and  C20_30 
REMARK       I    between atoms: N5_23  and  C16_25 
REMARK    4  A    between atoms: C16_25  and  C17_27 
ROOT
HETATM    1  N1  UNL     1      14.658  -0.369   9.870  1.00  0.00    -0.039 NA
HETATM    2  C1  UNL     1      13.642  -0.618   8.916  1.00  0.00     0.346 C 
HETATM    3  O1  UNL     1      12.564  -1.181   9.311  1.00  0.00    -0.250 OA
HETATM    4  N2  UNL     1      13.739  -0.290   7.571  1.00  0.00    -0.144 N 
ATOM      5  H2  UNL     1      13.469   0.664   7.331  1.00  0.00     0.188 HD
HETATM    6  C2  UNL     1      14.121  -1.015   6.592  1.00  0.00     0.680 C 
HETATM    7  N3  UNL     1      14.171  -0.536   5.246  1.00  0.00    -0.217 N 
ATOM      8  H3  UNL     1      14.743  -1.042   4.571  1.00  0.00     0.178 HD
HETATM    9  N4  UNL     1      14.504  -2.353   6.881  1.00  0.00    -0.215 N 
HETATM   10  C13 UNL     1      13.628  -3.500   6.934  1.00  0.00     0.144 C 
HETATM   11  C14 UNL     1      14.562  -4.653   6.680  1.00  0.00     0.063 C 
HETATM   12  C15 UNL     1      15.865  -4.210   7.225  1.00  0.00     0.129 C 
HETATM   13  C21 UNL     1      15.866  -2.720   7.152  1.00  0.00     0.182 C 
ENDROOT
BRANCH   7  14
HETATM   14  C3  UNL     1      13.452   0.625   4.802  1.00  0.00     0.048 C 
HETATM   15  C4  UNL     1      12.014   0.254   4.474  1.00  0.00     0.036 C 
HETATM   16  C5  UNL     1      11.269   1.429   3.924  1.00  0.00    -0.012 C 
HETATM   17  C6  UNL     1      11.844   1.911   2.609  1.00  0.00     0.009 C 
HETATM   18  C10 UNL     1      11.337   2.543   4.939  1.00  0.00     0.009 C 
HETATM   19  C7  UNL     1      13.308   2.218   2.861  1.00  0.00    -0.012 C 
HETATM   20  C8  UNL     1      13.327   3.418   3.812  1.00  0.00     0.009 C 
HETATM   21  C12 UNL     1      14.053   1.077   3.461  1.00  0.00     0.036 C 
HETATM   22  C9  UNL     1      12.767   2.948   5.114  1.00  0.00    -0.012 C 
HETATM   23  C11 UNL     1      13.553   1.806   5.718  1.00  0.00     0.036 C 
ENDBRANCH   7  14
BRANCH  12  24
HETATM   24  N5  UNL     1      16.997  -4.792   6.513  1.00  0.00    -0.342 N 
HETATM   25  C16 UNL     1      17.188  -4.723   5.128  1.00  0.00     0.222 C 
HETATM   26  O2  UNL     1      16.388  -4.139   4.332  1.00  0.00    -0.273 OA
ATOM     27  H5  UNL     1      17.700  -5.286   7.064  1.00  0.00     0.163 HD
BRANCH  25  28
HETATM   28  C17 UNL     1      18.377  -5.352   4.514  1.00  0.00     0.078 A 
HETATM   29  C18 UNL     1      18.824  -4.835   3.189  1.00  0.00     0.015 A 
HETATM   30  C19 UNL     1      19.642  -4.528   4.421  1.00  0.00     0.015 A 
ENDBRANCH  25  28
ENDBRANCH  12  24
BRANCH  12  31
HETATM   31  C20 UNL     1      15.950  -4.589   8.667  1.00  0.00     0.261 C 
HETATM   32  N6  UNL     1      16.607  -5.743   9.149  1.00  0.00    -0.060 NA
HETATM   33  O3  UNL     1      15.401  -3.833   9.515  1.00  0.00    -0.274 OA
ENDBRANCH  12  31
TORSDOF 4
ENDMDL
MODEL 2
REMARK VINA RESULT: -7.727043559      2.237      7.027
REMARK  4 active torsions:
REMARK  status: ('A' for Active; 'I' for Inactive)
REMARK       I    between atoms: C1_2  and  N2_4 
REMARK       I    between atoms: C2_6  and  N3_7 
REMARK       I    between atoms: C2_6  and  N4_19 
REMARK    1  A    between atoms: N3_7  and  C3_9 
REMARK    2  A    between atoms: C15_22  and  N5_23 
REMARK    3  A    between atoms: C15_22  and  C20_30 
REMARK       I    between atoms: N5_23  and  C16_25 
REMARK    4  A    between atoms: C16_25  and  C17_27 
ROOT
HETATM    1  N1  UNL     1      14.022  -4.610   8.746  1.00  0.00    -0.039 NA
HETATM    2  C1  UNL     1      15.148  -4.307   7.942  1.00  0.00     0.346 C 
HETATM    3  O1  UNL     1      16.259  -4.061   8.524  1.00  0.00    -0.250 OA
HETATM    4  N2  UNL     1      15.123  -4.258   6.555  1.00  0.00    -0.144 N 
ATOM      5  H2  UNL     1      15.263  -5.152   6.082  1.00  0.00     0.188 HD
HETATM    6  C2  UNL     1      14.950  -3.252   5.788  1.00  0.00     0.680 C 
HETATM    7  N3  UNL     1      14.950  -3.355   4.363  1.00  0.00    -0.217 N 
ATOM      8  H3  UNL     1      14.528  -2.601   3.821  1.00  0.00     0.178 HD
HETATM    9  N4  UNL     1      14.755  -1.987   6.407  1.00  0.00    -0.215 N 
HETATM   10  C13 UNL     1      15.791  -1.062   6.805  1.00  0.00     0.144 C 
HETATM   11  C14 UNL     1      15.075   0.262   6.825  1.00  0.00     0.063 C 
HETATM   12  C15 UNL     1      13.675  -0.071   7.170  1.00  0.00     0.129 C 
HETATM   13  C21 UNL     1      13.449  -1.469   6.701  1.00  0.00     0.182 C 
ENDROOT
BRANCH   7  14
HETATM   14  C3  UNL     1      15.517  -4.471   3.659  1.00  0.00     0.048 C 
HETATM   15  C4  UNL     1      17.034  -4.374   3.663  1.00  0.00     0.036 C 
HETATM   16  C5  UNL     1      17.645  -5.478   2.858  1.00  0.00    -0.012 C 
HETATM   17  C6  UNL     1      17.265  -5.402   1.395  1.00  0.00     0.009 C 
HETATM   18  C10 UNL     1      17.173  -6.791   3.432  1.00  0.00     0.009 C 
HETATM   19  C7  UNL     1      15.748  -5.412   1.338  1.00  0.00    -0.012 C 
HETATM   20  C8  UNL     1      15.320  -6.798   1.830  1.00  0.00     0.009 C 
HETATM   21  C12 UNL     1      15.123  -4.354   2.178  1.00  0.00     0.036 C 
HETATM   22  C9  UNL     1      15.687  -6.877   3.275  1.00  0.00    -0.012 C 
HETATM   23  C11 UNL     1      15.019  -5.809   4.114  1.00  0.00     0.036 C 
ENDBRANCH   7  14
BRANCH  12  24
HETATM   24  N5  UNL     1      12.717   0.861   6.586  1.00  0.00    -0.342 N 
HETATM   25  C16 UNL     1      12.321   0.862   5.243  1.00  0.00     0.222 C 
HETATM   26  O2  UNL     1      12.758   0.041   4.377  1.00  0.00    -0.273 OA
ATOM     27  H5  UNL     1      12.307   1.564   7.200  1.00  0.00     0.163 HD
BRANCH  25  28
HETATM   28  C17 UNL     1      11.341   1.858   4.763  1.00  0.00     0.078 A 
HETATM   29  C18 UNL     1      10.686   1.602   3.447  1.00  0.00     0.015 A 
HETATM   30  C19 UNL     1       9.885   1.451   4.719  1.00  0.00     0.015 A 
ENDBRANCH  25  28
ENDBRANCH  12  24
BRANCH  12  31
HETATM   31  C20 UNL     1      13.519  -0.065   8.654  1.00  0.00     0.261 C 
HETATM   32  N6  UNL     1      14.533   0.322   9.559  1.00  0.00    -0.060 NA
HETATM   33  O3  UNL     1      12.411  -0.426   9.139  1.00  0.00    -0.274 OA
ENDBRANCH  12  31
TORSDOF 4
ENDMDL
MODEL 3
REMARK VINA RESULT: -7.531874563      2.868      7.628
REMARK  4 active torsions:
REMARK  status: ('A' for Active; 'I' for Inactive)
REMARK       I    between atoms: C1_2  and  N2_4 
REMARK       I    between atoms: C2_6  and  N3_7 
REMARK       I    between atoms: C2_6  and  N4_19 
REMARK    1  A    between atoms: N3_7  and  C3_9 
REMARK    2  A    between atoms: C15_22  and  N5_23 
REMARK    3  A    between atoms: C15_22  and  C20_30 
REMARK       I    between atoms: N5_23  and  C16_25 
REMARK    4  A    between atoms: C16_25  and  C17_27 
ROOT
HETATM    1  N1  UNL     1      13.051  -0.117   7.953  1.00  0.00    -0.039 NA
HETATM    2  C1  UNL     1      14.162  -0.204   7.078  1.00  0.00     0.346 C 
HETATM    3  O1  UNL     1      15.082   0.678   7.179  1.00  0.00    -0.250 OA
HETATM    4  N2  UNL     1      14.317  -1.188   6.113  1.00  0.00    -0.144 N 
ATOM      5  H2  UNL     1      14.744  -2.057   6.436  1.00  0.00     0.188 HD
HETATM    6  C2  UNL     1      14.000  -1.159   4.876  1.00  0.00     0.680 C 
HETATM    7  N3  UNL     1      14.222  -2.260   3.993  1.00  0.00    -0.217 N 
ATOM      8  H3  UNL     1      13.700  -2.295   3.118  1.00  0.00     0.178 HD
HETATM    9  N4  UNL     1      13.405   0.034   4.383  1.00  0.00    -0.215 N 
HETATM   10  C13 UNL     1      14.105   1.189   3.871  1.00  0.00     0.144 C 
HETATM   11  C14 UNL     1      13.079   1.842   2.984  1.00  0.00     0.063 C 
HETATM   12  C15 UNL     1      11.776   1.501   3.599  1.00  0.00     0.129 C 
HETATM   13  C21 UNL     1      11.982   0.218   4.331  1.00  0.00     0.182 C 
ENDROOT
BRANCH   7  14
HETATM   14  C3  UNL     1      15.147  -3.321   4.282  1.00  0.00     0.048 C 
HETATM   15  C4  UNL     1      16.452  -2.745   4.807  1.00  0.00     0.036 C 
HETATM   16  C5  UNL     1      17.464  -3.826   5.031  1.00  0.00    -0.012 C 
HETATM   17  C6  UNL     1      17.849  -4.528   3.746  1.00  0.00     0.009 C 
HETATM   18  C10 UNL     1      16.873  -4.827   5.993  1.00  0.00     0.009 C 
HETATM   19  C7  UNL     1      16.563  -5.054   3.135  1.00  0.00    -0.012 C 
HETATM   20  C8  UNL     1      16.057  -6.137   4.091  1.00  0.00     0.009 C 
HETATM   21  C12 UNL     1      15.525  -4.001   2.957  1.00  0.00     0.036 C 
HETATM   22  C9  UNL     1      15.669  -5.450   5.359  1.00  0.00    -0.012 C 
HETATM   23  C11 UNL     1      14.595  -4.403   5.159  1.00  0.00     0.036 C 
ENDBRANCH   7  14
BRANCH  12  24
HETATM   24  N5  UNL     1      10.702   1.403   2.617  1.00  0.00    -0.342 N 
HETATM   25  C16 UNL     1      10.611   0.413   1.631  1.00  0.00     0.222 C 
HETATM   26  O2  UNL     1      11.462  -0.518   1.483  1.00  0.00    -0.273 OA
ATOM     27  H5  UNL     1       9.965   2.107   2.650  1.00  0.00     0.163 HD
BRANCH  25  28
HETATM   28  C17 UNL     1       9.473   0.414   0.687  1.00  0.00     0.078 A 
HETATM   29  C18 UNL     1       9.083  -0.890   0.077  1.00  0.00     0.015 A 
HETATM   30  C19 UNL     1       8.193  -0.263   1.124  1.00  0.00     0.015 A 
ENDBRANCH  25  28
ENDBRANCH  12  24
BRANCH  12  31
HETATM   31  C20 UNL     1      11.421   2.542   4.608  1.00  0.00     0.261 C 
HETATM   32  N6  UNL     1      12.256   3.626   4.960  1.00  0.00    -0.060 NA
HETATM   33  O3  UNL     1      10.303   2.455   5.186  1.00  0.00    -0.274 OA
ENDBRANCH  12  31
TORSDOF 4
ENDMDL
MODEL 4
REMARK VINA RESULT: -7.502623890      0.959      1.052
REMARK  4 active torsions:
REMARK  status: ('A' for Active; 'I' for Inactive)
REMARK       I    between atoms: C1_2  and  N2_4 
REMARK       I    between atoms: C2_6  and  N3_7 
REMARK       I    between atoms: C2_6  and  N4_19 
REMARK    1  A    between atoms: N3_7  and  C3_9 
REMARK    2  A    between atoms: C15_22  and  N5_23 
REMARK    3  A    between atoms: C15_22  and  C20_30 
REMARK       I    between atoms: N5_23  and  C16_25 
REMARK    4  A    between atoms: C16_25  and  C17_27 
ROOT
HETATM    1  N1  UNL     1      14.712  -1.090   9.600  1.00  0.00    -0.039 NA
HETATM    2  C1  UNL     1      13.749  -1.303   8.584  1.00  0.00     0.346 C 
HETATM    3  O1  UNL     1      12.729  -2.022   8.857  1.00  0.00    -0.250 OA
HETATM    4  N2  UNL     1      13.842  -0.779   7.302  1.00  0.00    -0.144 N 
ATOM      5  H2  UNL     1      13.477   0.167   7.187  1.00  0.00     0.188 HD
HETATM    6  C2  UNL     1      14.320  -1.316   6.246  1.00  0.00     0.680 C 
HETATM    7  N3  UNL     1      14.349  -0.649   4.983  1.00  0.00    -0.217 N 
ATOM      8  H3  UNL     1      14.986  -0.993   4.265  1.00  0.00     0.178 HD
HETATM    9  N4  UNL     1      14.836  -2.635   6.362  1.00  0.00    -0.215 N 
HETATM   10  C13 UNL     1      14.086  -3.861   6.222  1.00  0.00     0.144 C 
HETATM   11  C14 UNL     1      15.142  -4.865   5.846  1.00  0.00     0.063 C 
HETATM   12  C15 UNL     1      16.378  -4.374   6.495  1.00  0.00     0.129 C 
HETATM   13  C21 UNL     1      16.223  -2.897   6.629  1.00  0.00     0.182 C 
ENDROOT
BRANCH   7  14
HETATM   14  C3  UNL     1      13.521   0.485   4.677  1.00  0.00     0.048 C 
HETATM   15  C4  UNL     1      12.120   0.023   4.312  1.00  0.00     0.036 C 
HETATM   16  C5  UNL     1      11.263   1.180   3.902  1.00  0.00    -0.012 C 
HETATM   17  C6  UNL     1      11.776   1.861   2.651  1.00  0.00     0.009 C 
HETATM   18  C10 UNL     1      11.241   2.171   5.040  1.00  0.00     0.009 C 
HETATM   19  C7  UNL     1      13.209   2.271   2.935  1.00  0.00    -0.012 C 
HETATM   20  C8  UNL     1      13.129   3.350   4.019  1.00  0.00     0.009 C 
HETATM   21  C12 UNL     1      14.062   1.142   3.397  1.00  0.00     0.036 C 
HETATM   22  C9  UNL     1      12.630   2.683   5.258  1.00  0.00    -0.012 C 
HETATM   23  C11 UNL     1      13.525   1.556   5.724  1.00  0.00     0.036 C 
ENDBRANCH   7  14
BRANCH  12  24
HETATM   24  N5  UNL     1      17.581  -4.731   5.751  1.00  0.00    -0.342 N 
HETATM   25  C16 UNL     1      17.883  -4.281   4.461  1.00  0.00     0.222 C 
HETATM   26  O2  UNL     1      17.134  -3.505   3.789  1.00  0.00    -0.273 OA
ATOM     27  H5  UNL     1      18.250  -5.354   6.204  1.00  0.00     0.163 HD
BRANCH  25  28
HETATM   28  C17 UNL     1      19.136  -4.711   3.803  1.00  0.00     0.078 A 
HETATM   29  C18 UNL     1      19.962  -5.738   4.499  1.00  0.00     0.015 A 
HETATM   30  C19 UNL     1      19.198  -6.118   3.253  1.00  0.00     0.015 A 
ENDBRANCH  25  28
ENDBRANCH  12  24
BRANCH  12  31
HETATM   31  C20 UNL     1      16.470  -4.943   7.872  1.00  0.00     0.261 C 
HETATM   32  N6  UNL     1      16.005  -4.289   9.035  1.00  0.00    -0.060 NA
HETATM   33  O3  UNL     1      16.994  -6.082   8.013  1.00  0.00    -0.274 OA
ENDBRANCH  12  31
TORSDOF 4
ENDMDL
MODEL 5
REMARK VINA RESULT: -7.476992097      2.720      7.841
REMARK  4 active torsions:
REMARK  status: ('A' for Active; 'I' for Inactive)
REMARK       I    between atoms: C1_2  and  N2_4 
REMARK       I    between atoms: C2_6  and  N3_7 
REMARK       I    between atoms: C2_6  and  N4_19 
REMARK    1  A    between atoms: N3_7  and  C3_9 
REMARK    2  A    between atoms: C15_22  and  N5_23 
REMARK    3  A    between atoms: C15_22  and  C20_30 
REMARK       I    between atoms: N5_23  and  C16_25 
REMARK    4  A    between atoms: C16_25  and  C17_27 
ROOT
HETATM    1  N1  UNL     1      15.629  -0.607   2.069  1.00  0.00    -0.039 NA
HETATM    2  C1  UNL     1      15.625  -2.009   2.270  1.00  0.00     0.346 C 
HETATM    3  O1  UNL     1      14.637  -2.682   1.819  1.00  0.00    -0.250 OA
HETATM    4  N2  UNL     1      16.630  -2.703   2.928  1.00  0.00    -0.144 N 
ATOM      5  H2  UNL     1      17.425  -2.979   2.350  1.00  0.00     0.188 HD
HETATM    6  C2  UNL     1      16.699  -3.046   4.156  1.00  0.00     0.680 C 
HETATM    7  N3  UNL     1      17.808  -3.767   4.698  1.00  0.00    -0.217 N 
ATOM      8  H3  UNL     1      17.948  -3.758   5.708  1.00  0.00     0.178 HD
HETATM    9  N4  UNL     1      15.611  -2.685   4.997  1.00  0.00    -0.215 N 
HETATM   10  C13 UNL     1      14.408  -3.454   5.213  1.00  0.00     0.144 C 
HETATM   11  C14 UNL     1      13.926  -2.961   6.551  1.00  0.00     0.063 C 
HETATM   12  C15 UNL     1      14.390  -1.557   6.626  1.00  0.00     0.129 C 
HETATM   13  C21 UNL     1      15.602  -1.470   5.761  1.00  0.00     0.182 C 
ENDROOT
BRANCH   7  14
HETATM   14  C3  UNL     1      18.736  -4.503   3.885  1.00  0.00     0.048 C 
HETATM   15  C4  UNL     1      18.004  -5.593   3.117  1.00  0.00     0.036 C 
HETATM   16  C5  UNL     1      18.962  -6.432   2.331  1.00  0.00    -0.012 C 
HETATM   17  C6  UNL     1      19.933  -7.181   3.219  1.00  0.00     0.009 C 
HETATM   18  C10 UNL     1      19.730  -5.521   1.405  1.00  0.00     0.009 C 
HETATM   19  C7  UNL     1      20.635  -6.141   4.071  1.00  0.00    -0.012 C 
HETATM   20  C8  UNL     1      21.481  -5.308   3.104  1.00  0.00     0.009 C 
HETATM   21  C12 UNL     1      19.694  -5.261   4.818  1.00  0.00     0.036 C 
HETATM   22  C9  UNL     1      20.529  -4.561   2.229  1.00  0.00    -0.012 C 
HETATM   23  C11 UNL     1      19.601  -3.654   3.005  1.00  0.00     0.036 C 
ENDBRANCH   7  14
BRANCH  12  24
HETATM   24  N5  UNL     1      14.663  -1.130   7.993  1.00  0.00    -0.342 N 
HETATM   25  C16 UNL     1      14.043  -1.656   9.132  1.00  0.00     0.222 C 
HETATM   26  O2  UNL     1      13.163  -2.572   9.099  1.00  0.00    -0.273 OA
ATOM     27  H5  UNL     1      15.357  -0.395   8.129  1.00  0.00     0.163 HD
BRANCH  25  28
HETATM   28  C17 UNL     1      14.401  -1.144  10.472  1.00  0.00     0.078 A 
HETATM   29  C18 UNL     1      14.663   0.318  10.603  1.00  0.00     0.015 A 
HETATM   30  C19 UNL     1      13.397  -0.266  11.184  1.00  0.00     0.015 A 
ENDBRANCH  25  28
ENDBRANCH  12  24
BRANCH  12  31
HETATM   31  C20 UNL     1      13.350  -0.664   6.034  1.00  0.00     0.261 C 
HETATM   32  N6  UNL     1      12.950  -0.697   4.680  1.00  0.00    -0.060 NA
HETATM   33  O3  UNL     1      12.788   0.177   6.788  1.00  0.00    -0.274 OA
ENDBRANCH  12  31
TORSDOF 4
ENDMDL
