MODEL 1
REMARK VINA RESULT: -7.821150489      0.000      0.000
REMARK  6 active torsions:
REMARK  status: ('A' for Active; 'I' for Inactive)
REMARK    1  A    between atoms: C2_2  and  N1_3 
REMARK    2  A    between atoms: N1_3  and  C4_5 
REMARK    3  A    between atoms: C4_5  and  C5_6 
REMARK    4  A    between atoms: C17_20  and  C18_21 
REMARK    5  A    between atoms: C19_22  and  C20_23 
REMARK    6  A    between atoms: C21_24  and  C22_25 
ROOT
HETATM    1  C5  UNL     1      11.681   0.628   3.921  1.00  0.00     0.215 C 
HETATM    2  C6  UNL     1      11.927   1.092   5.312  1.00  0.00     0.045 C 
HETATM    3  C7  UNL     1      13.354   1.015   5.781  1.00  0.00    -0.023 C 
HETATM    4  C8  UNL     1      14.095   2.259   5.390  1.00  0.00     0.017 C 
HETATM    5  C9  UNL     1      13.262   0.902   7.311  1.00  0.00     0.017 C 
HETATM    6  C10 UNL     1      14.084  -0.205   5.199  1.00  0.00     0.119 C 
HETATM    7  N2  UNL     1      15.019  -0.639   6.149  1.00  0.00    -0.394 N 
ATOM      8  H2  UNL     1      15.189   0.070   6.861  1.00  0.00     0.159 HD
HETATM    9  C11 UNL     1      15.710  -1.687   6.355  1.00  0.00     0.068 C 
HETATM   10  C12 UNL     1      16.007  -3.016   5.842  1.00  0.00     0.016 A 
HETATM   11  C13 UNL     1      17.250  -3.214   4.968  1.00  0.00     0.023 C 
HETATM   12  C14 UNL     1      15.808  -4.100   6.938  1.00  0.00    -0.014 A 
HETATM   13  C15 UNL     1      16.865  -5.155   6.982  1.00  0.00     0.018 C 
HETATM   14  C16 UNL     1      15.140  -3.722   8.218  1.00  0.00     0.018 C 
HETATM   15  C17 UNL     1      14.960  -4.009   5.723  1.00  0.00     0.044 A 
HETATM   16  C23 UNL     1      13.599  -3.413   5.717  1.00  0.00     0.027 C 
HETATM   17  C24 UNL     1      13.497  -2.539   4.471  1.00  0.00     0.037 C 
HETATM   18  C25 UNL     1      12.998  -1.164   4.830  1.00  0.00     0.209 C 
HETATM   19  N5  UNL     1      12.335  -0.632   3.655  1.00  0.00    -0.063 N 
ATOM     20  H51 UNL     1      12.982  -0.554   2.870  1.00  0.00     0.278 HD
ATOM     21  H52 UNL     1      11.683  -1.310   3.260  1.00  0.00     0.278 HD
ENDROOT
BRANCH  15  22
HETATM   22  C18 UNL     1      15.138  -5.071   4.698  1.00  0.00    -0.090 C 
HETATM   23  C19 UNL     1      15.266  -5.923   3.852  1.00  0.00    -0.078 C 
BRANCH  23  24
HETATM   24  C20 UNL     1      15.398  -6.929   2.827  1.00  0.00     0.068 C 
HETATM   25  C21 UNL     1      14.632  -6.900   1.755  1.00  0.00     0.053 C 
BRANCH  25  26
HETATM   26  C22 UNL     1      14.758  -7.906   0.721  1.00  0.00     0.110 C 
HETATM   27  N3  UNL     1      14.262  -9.095   0.883  1.00  0.00    -0.388 N 
ATOM     28  H32 UNL     1      13.782  -9.295   1.761  1.00  0.00     0.157 HD
ATOM     29  H31 UNL     1      14.350  -9.804   0.154  1.00  0.00     0.157 HD
HETATM   30  N4  UNL     1      15.421  -7.630  -0.494  1.00  0.00    -0.083 NA
ENDBRANCH  25  26
ENDBRANCH  23  24
ENDBRANCH  15  22
BRANCH   1  31
HETATM   31  C4  UNL     1      10.158   0.476   3.792  1.00  0.00     0.304 C 
BRANCH  31  32
HETATM   32  N1  UNL     1       9.601   1.239   2.727  1.00  0.00     0.085 N 
HETATM   33  C3  UNL     1      10.137   0.783   1.472  1.00  0.00     0.309 C 
BRANCH  32  34
HETATM   34  C2  UNL     1       8.158   1.237   2.725  1.00  0.00     0.267 C 
HETATM   35  C1  UNL     1       7.574  -0.133   3.021  1.00  0.00     0.037 C 
ENDBRANCH  32  34
ENDBRANCH  31  32
ENDBRANCH   1  31
TORSDOF 6
ENDMDL
MODEL 2
REMARK VINA RESULT: -7.705189924      0.556      1.033
REMARK  6 active torsions:
REMARK  status: ('A' for Active; 'I' for Inactive)
REMARK    1  A    between atoms: C2_2  and  N1_3 
REMARK    2  A    between atoms: N1_3  and  C4_5 
REMARK    3  A    between atoms: C4_5  and  C5_6 
REMARK    4  A    between atoms: C17_20  and  C18_21 
REMARK    5  A    between atoms: C19_22  and  C20_23 
REMARK    6  A    between atoms: C21_24  and  C22_25 
ROOT
HETATM    1  C5  UNL     1      11.652   0.694   3.791  1.00  0.00     0.215 C 
HETATM    2  C6  UNL     1      11.866   1.164   5.186  1.00  0.00     0.045 C 
HETATM    3  C7  UNL     1      13.280   1.084   5.690  1.00  0.00    -0.023 C 
HETATM    4  C8  UNL     1      14.036   2.322   5.310  1.00  0.00     0.017 C 
HETATM    5  C9  UNL     1      13.150   0.978   7.218  1.00  0.00     0.017 C 
HETATM    6  C10 UNL     1      14.020  -0.142   5.132  1.00  0.00     0.119 C 
HETATM    7  N2  UNL     1      14.929  -0.576   6.106  1.00  0.00    -0.394 N 
ATOM      8  H2  UNL     1      15.085   0.137   6.819  1.00  0.00     0.159 HD
HETATM    9  C11 UNL     1      15.611  -1.625   6.335  1.00  0.00     0.068 C 
HETATM   10  C12 UNL     1      15.915  -2.958   5.836  1.00  0.00     0.016 A 
HETATM   11  C13 UNL     1      17.178  -3.165   4.994  1.00  0.00     0.023 C 
HETATM   12  C14 UNL     1      15.685  -4.036   6.932  1.00  0.00    -0.014 A 
HETATM   13  C15 UNL     1      16.736  -5.095   7.008  1.00  0.00     0.018 C 
HETATM   14  C16 UNL     1      14.987  -3.648   8.194  1.00  0.00     0.018 C 
HETATM   15  C17 UNL     1      14.867  -3.947   5.697  1.00  0.00     0.044 A 
HETATM   16  C23 UNL     1      13.509  -3.346   5.654  1.00  0.00     0.027 C 
HETATM   17  C24 UNL     1      13.441  -2.477   4.402  1.00  0.00     0.037 C 
HETATM   18  C25 UNL     1      12.939  -1.099   4.741  1.00  0.00     0.209 C 
HETATM   19  N5  UNL     1      12.307  -0.571   3.547  1.00  0.00    -0.063 N 
ATOM     20  H51 UNL     1      12.974  -0.499   2.778  1.00  0.00     0.278 HD
ATOM     21  H52 UNL     1      11.663  -1.248   3.141  1.00  0.00     0.278 HD
ENDROOT
BRANCH  15  22
HETATM   22  C18 UNL     1      15.066  -5.015   4.682  1.00  0.00    -0.090 C 
HETATM   23  C19 UNL     1      15.212  -5.871   3.843  1.00  0.00    -0.078 C 
BRANCH  23  24
HETATM   24  C20 UNL     1      15.368  -6.880   2.825  1.00  0.00     0.068 C 
HETATM   25  C21 UNL     1      14.589  -6.889   1.762  1.00  0.00     0.053 C 
BRANCH  25  26
HETATM   26  C22 UNL     1      14.739  -7.899   0.735  1.00  0.00     0.110 C 
HETATM   27  N3  UNL     1      14.243  -9.088   0.891  1.00  0.00    -0.388 N 
ATOM     28  H32 UNL     1      13.745  -9.286   1.759  1.00  0.00     0.157 HD
ATOM     29  H31 UNL     1      14.348  -9.799   0.167  1.00  0.00     0.157 HD
HETATM   30  N4  UNL     1      15.427  -7.626  -0.468  1.00  0.00    -0.083 NA
ENDBRANCH  25  26
ENDBRANCH  23  24
ENDBRANCH  15  22
BRANCH   1  31
HETATM   31  C4  UNL     1      10.132   0.547   3.625  1.00  0.00     0.304 C 
BRANCH  31  32
HETATM   32  N1  UNL     1       9.758  -0.218   2.485  1.00  0.00     0.085 N 
HETATM   33  C3  UNL     1       8.538  -0.931   2.760  1.00  0.00     0.309 C 
BRANCH  32  34
HETATM   34  C2  UNL     1       9.656   0.573   1.283  1.00  0.00     0.267 C 
HETATM   35  C1  UNL     1      10.687   0.186   0.238  1.00  0.00     0.037 C 
ENDBRANCH  32  34
ENDBRANCH  31  32
ENDBRANCH   1  31
TORSDOF 6
ENDMDL
MODEL 3
REMARK VINA RESULT: -7.169405362      0.962      1.181
REMARK  6 active torsions:
REMARK  status: ('A' for Active; 'I' for Inactive)
REMARK    1  A    between atoms: C2_2  and  N1_3 
REMARK    2  A    between atoms: N1_3  and  C4_5 
REMARK    3  A    between atoms: C4_5  and  C5_6 
REMARK    4  A    between atoms: C17_20  and  C18_21 
REMARK    5  A    between atoms: C19_22  and  C20_23 
REMARK    6  A    between atoms: C21_24  and  C22_25 
ROOT
HETATM    1  C5  UNL     1      11.741   0.901   2.650  1.00  0.00     0.215 C 
HETATM    2  C6  UNL     1      11.784   1.417   4.045  1.00  0.00     0.045 C 
HETATM    3  C7  UNL     1      13.113   1.304   4.739  1.00  0.00    -0.023 C 
HETATM    4  C8  UNL     1      13.964   2.499   4.425  1.00  0.00     0.017 C 
HETATM    5  C9  UNL     1      12.774   1.263   6.238  1.00  0.00     0.017 C 
HETATM    6  C10 UNL     1      13.870   0.031   4.329  1.00  0.00     0.119 C 
HETATM    7  N2  UNL     1      14.620  -0.397   5.431  1.00  0.00    -0.394 N 
ATOM      8  H2  UNL     1      14.708   0.336   6.134  1.00  0.00     0.159 HD
HETATM    9  C11 UNL     1      15.221  -1.461   5.786  1.00  0.00     0.068 C 
HETATM   10  C12 UNL     1      15.534  -2.822   5.377  1.00  0.00     0.016 A 
HETATM   11  C13 UNL     1      16.890  -3.108   4.722  1.00  0.00     0.023 C 
HETATM   12  C14 UNL     1      15.113  -3.848   6.467  1.00  0.00    -0.014 A 
HETATM   13  C15 UNL     1      16.100  -4.941   6.721  1.00  0.00     0.018 C 
HETATM   14  C16 UNL     1      14.269  -3.387   7.609  1.00  0.00     0.018 C 
HETATM   15  C17 UNL     1      14.474  -3.777   5.130  1.00  0.00     0.044 A 
HETATM   16  C23 UNL     1      13.161  -3.129   4.883  1.00  0.00     0.027 C 
HETATM   17  C24 UNL     1      13.298  -2.308   3.605  1.00  0.00     0.037 C 
HETATM   18  C25 UNL     1      12.813  -0.899   3.826  1.00  0.00     0.209 C 
HETATM   19  N5  UNL     1      12.370  -0.395   2.540  1.00  0.00    -0.063 N 
ATOM     20  H51 UNL     1      13.136  -0.378   1.868  1.00  0.00     0.278 HD
ATOM     21  H52 UNL     1      11.758  -1.064   2.073  1.00  0.00     0.278 HD
ENDROOT
BRANCH  15  22
HETATM   22  C18 UNL     1      14.763  -4.890   4.188  1.00  0.00    -0.090 C 
HETATM   23  C19 UNL     1      14.978  -5.789   3.410  1.00  0.00    -0.078 C 
BRANCH  23  24
HETATM   24  C20 UNL     1      15.211  -6.855   2.468  1.00  0.00     0.068 C 
HETATM   25  C21 UNL     1      14.343  -7.105   1.508  1.00  0.00     0.053 C 
BRANCH  25  26
HETATM   26  C22 UNL     1      14.570  -8.175   0.558  1.00  0.00     0.110 C 
HETATM   27  N3  UNL     1      14.146  -9.379   0.795  1.00  0.00    -0.388 N 
ATOM     28  H32 UNL     1      13.650  -9.544   1.671  1.00  0.00     0.157 HD
ATOM     29  H31 UNL     1      14.305 -10.132   0.125  1.00  0.00     0.157 HD
HETATM   30  N4  UNL     1      15.256  -7.946  -0.655  1.00  0.00    -0.083 NA
ENDBRANCH  25  26
ENDBRANCH  23  24
ENDBRANCH  15  22
BRANCH   1  31
HETATM   31  C4  UNL     1      10.252   0.804   2.284  1.00  0.00     0.304 C 
BRANCH  31  32
HETATM   32  N1  UNL     1       9.526  -0.104   3.104  1.00  0.00     0.085 N 
HETATM   33  C3  UNL     1       8.446   0.589   3.756  1.00  0.00     0.309 C 
BRANCH  32  34
HETATM   34  C2  UNL     1       9.059  -1.265   2.385  1.00  0.00     0.267 C 
HETATM   35  C1  UNL     1       7.814  -1.874   3.001  1.00  0.00     0.037 C 
ENDBRANCH  32  34
ENDBRANCH  31  32
ENDBRANCH   1  31
TORSDOF 6
ENDMDL
MODEL 4
REMARK VINA RESULT: -7.166728766      3.007      5.759
REMARK  6 active torsions:
REMARK  status: ('A' for Active; 'I' for Inactive)
REMARK    1  A    between atoms: C2_2  and  N1_3 
REMARK    2  A    between atoms: N1_3  and  C4_5 
REMARK    3  A    between atoms: C4_5  and  C5_6 
REMARK    4  A    between atoms: C17_20  and  C18_21 
REMARK    5  A    between atoms: C19_22  and  C20_23 
REMARK    6  A    between atoms: C21_24  and  C22_25 
ROOT
HETATM    1  C5  UNL     1      12.851   1.001   2.966  1.00  0.00     0.215 C 
HETATM    2  C6  UNL     1      14.045   0.824   2.096  1.00  0.00     0.045 C 
HETATM    3  C7  UNL     1      14.398  -0.598   1.758  1.00  0.00    -0.023 C 
HETATM    4  C8  UNL     1      13.630  -1.049   0.551  1.00  0.00     0.017 C 
HETATM    5  C9  UNL     1      15.905  -0.571   1.459  1.00  0.00     0.017 C 
HETATM    6  C10 UNL     1      14.103  -1.556   2.923  1.00  0.00     0.119 C 
HETATM    7  N2  UNL     1      15.053  -2.584   2.886  1.00  0.00    -0.394 N 
ATOM      8  H2  UNL     1      15.535  -2.618   1.988  1.00  0.00     0.159 HD
HETATM    9  C11 UNL     1      15.473  -3.487   3.678  1.00  0.00     0.068 C 
HETATM   10  C12 UNL     1      15.309  -4.045   5.012  1.00  0.00     0.016 A 
HETATM   11  C13 UNL     1      14.419  -5.280   5.196  1.00  0.00     0.023 C 
HETATM   12  C14 UNL     1      16.666  -4.108   5.767  1.00  0.00    -0.014 A 
HETATM   13  C15 UNL     1      16.902  -5.365   6.539  1.00  0.00     0.018 C 
HETATM   14  C16 UNL     1      17.850  -3.407   5.188  1.00  0.00     0.018 C 
HETATM   15  C17 UNL     1      15.545  -3.229   6.184  1.00  0.00     0.044 A 
HETATM   16  C23 UNL     1      15.493  -1.773   5.893  1.00  0.00     0.027 C 
HETATM   17  C24 UNL     1      14.072  -1.457   5.436  1.00  0.00     0.037 C 
HETATM   18  C25 UNL     1      14.092  -0.688   4.141  1.00  0.00     0.209 C 
HETATM   19  N5  UNL     1      12.877   0.102   4.097  1.00  0.00    -0.063 N 
ATOM     20  H51 UNL     1      12.049  -0.494   4.114  1.00  0.00     0.278 HD
ATOM     21  H52 UNL     1      12.732   0.606   4.972  1.00  0.00     0.278 HD
ENDROOT
BRANCH  15  22
HETATM   22  C18 UNL     1      14.828  -3.602   7.432  1.00  0.00    -0.090 C 
HETATM   23  C19 UNL     1      14.230  -3.887   8.441  1.00  0.00    -0.078 C 
BRANCH  23  24
HETATM   24  C20 UNL     1      13.498  -4.206   9.642  1.00  0.00     0.068 C 
HETATM   25  C21 UNL     1      12.638  -3.348  10.153  1.00  0.00     0.053 C 
BRANCH  25  26
HETATM   26  C22 UNL     1      11.899  -3.661  11.359  1.00  0.00     0.110 C 
HETATM   27  N3  UNL     1      12.357  -4.519  12.218  1.00  0.00    -0.388 N 
ATOM     28  H32 UNL     1      13.252  -4.965  12.015  1.00  0.00     0.157 HD
ATOM     29  H31 UNL     1      11.836  -4.739  13.068  1.00  0.00     0.157 HD
HETATM   30  N4  UNL     1      10.660  -3.044  11.641  1.00  0.00    -0.083 NA
ENDBRANCH  25  26
ENDBRANCH  23  24
ENDBRANCH  15  22
BRANCH   1  31
HETATM   31  C4  UNL     1      12.893   2.461   3.444  1.00  0.00     0.304 C 
BRANCH  31  32
HETATM   32  N1  UNL     1      12.494   2.624   4.800  1.00  0.00     0.085 N 
HETATM   33  C3  UNL     1      13.657   2.671   5.645  1.00  0.00     0.309 C 
BRANCH  32  34
HETATM   34  C2  UNL     1      11.638   3.768   5.003  1.00  0.00     0.267 C 
HETATM   35  C1  UNL     1      12.400   5.081   4.976  1.00  0.00     0.037 C 
ENDBRANCH  32  34
ENDBRANCH  31  32
ENDBRANCH   1  31
TORSDOF 6
ENDMDL
MODEL 5
REMARK VINA RESULT: -6.878468195      3.227      8.104
REMARK  6 active torsions:
REMARK  status: ('A' for Active; 'I' for Inactive)
REMARK    1  A    between atoms: C2_2  and  N1_3 
REMARK    2  A    between atoms: N1_3  and  C4_5 
REMARK    3  A    between atoms: C4_5  and  C5_6 
REMARK    4  A    between atoms: C17_20  and  C18_21 
REMARK    5  A    between atoms: C19_22  and  C20_23 
REMARK    6  A    between atoms: C21_24  and  C22_25 
ROOT
HETATM    1  C5  UNL     1      17.980  -3.635   0.596  1.00  0.00     0.215 C 
HETATM    2  C6  UNL     1      18.487  -4.852   1.285  1.00  0.00     0.045 C 
HETATM    3  C7  UNL     1      17.448  -5.689   1.979  1.00  0.00    -0.023 C 
HETATM    4  C8  UNL     1      16.841  -6.664   1.015  1.00  0.00     0.017 C 
HETATM    5  C9  UNL     1      18.212  -6.431   3.087  1.00  0.00     0.017 C 
HETATM    6  C10 UNL     1      16.330  -4.827   2.587  1.00  0.00     0.119 C 
HETATM    7  N2  UNL     1      15.878  -5.468   3.748  1.00  0.00    -0.394 N 
ATOM      8  H2  UNL     1      16.181  -6.441   3.784  1.00  0.00     0.159 HD
HETATM    9  C11 UNL     1      15.187  -5.155   4.770  1.00  0.00     0.068 C 
HETATM   10  C12 UNL     1      14.459  -4.066   5.404  1.00  0.00     0.016 A 
HETATM   11  C13 UNL     1      12.940  -3.980   5.218  1.00  0.00     0.023 C 
HETATM   12  C14 UNL     1      14.947  -3.837   6.862  1.00  0.00    -0.014 A 
HETATM   13  C15 UNL     1      13.862  -3.587   7.859  1.00  0.00     0.018 C 
HETATM   14  C16 UNL     1      16.184  -4.529   7.330  1.00  0.00     0.018 C 
HETATM   15  C17 UNL     1      15.142  -2.844   5.776  1.00  0.00     0.044 A 
HETATM   16  C23 UNL     1      16.428  -2.661   5.055  1.00  0.00     0.027 C 
HETATM   17  C24 UNL     1      16.098  -2.526   3.572  1.00  0.00     0.037 C 
HETATM   18  C25 UNL     1      16.937  -3.472   2.755  1.00  0.00     0.209 C 
HETATM   19  N5  UNL     1      17.067  -2.890   1.433  1.00  0.00    -0.063 N 
ATOM     20  H51 UNL     1      16.156  -2.787   0.985  1.00  0.00     0.278 HD
ATOM     21  H52 UNL     1      17.334  -1.907   1.486  1.00  0.00     0.278 HD
ENDROOT
BRANCH  15  22
HETATM   22  C18 UNL     1      14.329  -1.602   5.848  1.00  0.00    -0.090 C 
HETATM   23  C19 UNL     1      13.673  -0.589   5.882  1.00  0.00    -0.078 C 
BRANCH  23  24
HETATM   24  C20 UNL     1      12.894   0.625   5.897  1.00  0.00     0.068 C 
HETATM   25  C21 UNL     1      12.193   0.986   4.841  1.00  0.00     0.053 C 
BRANCH  25  26
HETATM   26  C22 UNL     1      11.408   2.203   4.847  1.00  0.00     0.110 C 
HETATM   27  N3  UNL     1      11.980   3.366   4.771  1.00  0.00    -0.388 N 
ATOM     28  H32 UNL     1      12.998   3.393   4.708  1.00  0.00     0.157 HD
ATOM     29  H31 UNL     1      11.427   4.224   4.775  1.00  0.00     0.157 HD
HETATM   30  N4  UNL     1       9.999   2.167   4.934  1.00  0.00    -0.083 NA
ENDBRANCH  25  26
ENDBRANCH  23  24
ENDBRANCH  15  22
BRANCH   1  31
HETATM   31  C4  UNL     1      19.219  -2.788   0.273  1.00  0.00     0.304 C 
BRANCH  31  32
HETATM   32  N1  UNL     1      20.139  -2.694   1.355  1.00  0.00     0.085 N 
HETATM   33  C3  UNL     1      21.455  -3.062   0.904  1.00  0.00     0.309 C 
BRANCH  32  34
HETATM   34  C2  UNL     1      20.133  -1.399   1.990  1.00  0.00     0.267 C 
HETATM   35  C1  UNL     1      19.596  -0.305   1.086  1.00  0.00     0.037 C 
ENDBRANCH  32  34
ENDBRANCH  31  32
ENDBRANCH   1  31
TORSDOF 6
ENDMDL
