MODEL 1
REMARK VINA RESULT: -9.443238010      0.000      0.000
REMARK  10 active torsions:
REMARK  status: ('A' for Active; 'I' for Inactive)
REMARK    1  A    between atoms: C3_3  and  O1_4 
REMARK    2  A    between atoms: C4_6  and  O2_7 
REMARK    3  A    between atoms: C10_14  and  C11_15 
REMARK    4  A    between atoms: C11_15  and  O3_16 
REMARK    5  A    between atoms: C11_15  and  C12_18 
REMARK    6  A    between atoms: C12_18  and  N1_19 
REMARK    7  A    between atoms: N1_19  and  C13_22 
REMARK    8  A    between atoms: C13_22  and  C14_23 
REMARK    9  A    between atoms: C21_30  and  O4_31 
REMARK   10  A    between atoms: C23_34  and  O5_35 
ROOT
HETATM    1  C1  UNL     1     -45.260  18.074  -6.477  1.00  0.00     0.052 C 
HETATM    2  C2  UNL     1     -46.272  16.986  -6.634  1.00  0.00    -0.015 A 
HETATM    3  C3  UNL     1     -47.062  16.591  -5.597  1.00  0.00     0.106 A 
HETATM    4  C4  UNL     1     -48.012  15.614  -5.831  1.00  0.00     0.106 A 
HETATM    5  C5  UNL     1     -48.193  15.014  -7.102  1.00  0.00    -0.014 A 
HETATM    6  C6  UNL     1     -49.051  13.841  -7.221  1.00  0.00     0.052 C 
HETATM    7  C7  UNL     1     -47.377  15.461  -8.105  1.00  0.00    -0.003 A 
HETATM    8  C8  UNL     1     -47.495  14.958  -9.368  1.00  0.00     0.012 A 
HETATM    9  C9  UNL     1     -46.618  15.421 -10.402  1.00  0.00    -0.033 A 
HETATM   10  C10 UNL     1     -45.649  16.372 -10.201  1.00  0.00    -0.020 A 
HETATM   11  C18 UNL     1     -45.570  16.868  -8.927  1.00  0.00     0.023 A 
HETATM   12  C19 UNL     1     -46.394  16.448  -7.901  1.00  0.00    -0.015 A 
HETATM   13  C20 UNL     1     -46.768  14.641 -11.644  1.00  0.00     0.072 C 
HETATM   14  C21 UNL     1     -47.100  13.165 -11.389  1.00  0.00     0.128 C 
HETATM   15  C22 UNL     1     -48.341  12.910 -10.638  1.00  0.00     0.097 C 
HETATM   16  C23 UNL     1     -48.618  14.116  -9.763  1.00  0.00     0.057 C 
ENDROOT
BRANCH  10  17
HETATM   17  C11 UNL     1     -44.912  16.902 -11.344  1.00  0.00     0.177 C 
BRANCH  17  18
HETATM   18  O3  UNL     1     -45.598  17.471 -12.354  1.00  0.00    -0.389 OA
ATOM     19  H3  UNL     1     -45.318  18.318 -12.678  1.00  0.00     0.210 HD
ENDBRANCH  17  18
BRANCH  17  20
HETATM   20  C12 UNL     1     -43.839  15.910 -11.740  1.00  0.00     0.268 C 
BRANCH  20  21
HETATM   21  N1  UNL     1     -42.596  16.533 -12.144  1.00  0.00    -0.072 N 
ATOM     22  H12 UNL     1     -42.518  17.494 -11.811  1.00  0.00     0.277 HD
ATOM     23  H11 UNL     1     -41.791  16.144 -11.652  1.00  0.00     0.277 HD
BRANCH  21  24
HETATM   24  C13 UNL     1     -42.457  16.436 -13.604  1.00  0.00     0.237 C 
BRANCH  24  25
HETATM   25  C14 UNL     1     -42.082  17.812 -14.074  1.00  0.00     0.011 C 
HETATM   26  C15 UNL     1     -40.654  17.938 -14.616  1.00  0.00     0.006 C 
HETATM   27  C16 UNL     1     -40.647  19.319 -13.916  1.00  0.00     0.001 C 
HETATM   28  C17 UNL     1     -41.552  18.672 -12.887  1.00  0.00     0.006 C 
ENDBRANCH  24  25
ENDBRANCH  21  24
ENDBRANCH  20  21
ENDBRANCH  17  20
ENDBRANCH  10  17
BRANCH  16  29
HETATM   29  O5  UNL     1     -49.954  14.519  -9.645  1.00  0.00    -0.364 OA
ATOM     30  H5  UNL     1     -50.685  13.916  -9.710  1.00  0.00     0.217 HD
ENDBRANCH  16  29
BRANCH  14  31
HETATM   31  O4  UNL     1     -47.193  12.605 -12.659  1.00  0.00    -0.395 OA
ATOM     32  H4  UNL     1     -46.318  12.284 -12.842  1.00  0.00     0.210 HD
ENDBRANCH  14  31
BRANCH   3  33
HETATM   33  O1  UNL     1     -46.946  17.132  -4.348  1.00  0.00    -0.357 OA
ATOM     34  H1  UNL     1     -46.446  16.711  -3.659  1.00  0.00     0.217 HD
ENDBRANCH   3  33
BRANCH   4  35
HETATM   35  O2  UNL     1     -48.817  15.213  -4.783  1.00  0.00    -0.357 OA
ATOM     36  H2  UNL     1     -49.410  14.484  -4.921  1.00  0.00     0.217 HD
ENDBRANCH   4  35
TORSDOF 10
ENDMDL
MODEL 2
REMARK VINA RESULT: -9.410418841      0.840      1.236
REMARK  10 active torsions:
REMARK  status: ('A' for Active; 'I' for Inactive)
REMARK    1  A    between atoms: C3_3  and  O1_4 
REMARK    2  A    between atoms: C4_6  and  O2_7 
REMARK    3  A    between atoms: C10_14  and  C11_15 
REMARK    4  A    between atoms: C11_15  and  O3_16 
REMARK    5  A    between atoms: C11_15  and  C12_18 
REMARK    6  A    between atoms: C12_18  and  N1_19 
REMARK    7  A    between atoms: N1_19  and  C13_22 
REMARK    8  A    between atoms: C13_22  and  C14_23 
REMARK    9  A    between atoms: C21_30  and  O4_31 
REMARK   10  A    between atoms: C23_34  and  O5_35 
ROOT
HETATM    1  C1  UNL     1     -45.228  18.145  -6.460  1.00  0.00     0.052 C 
HETATM    2  C2  UNL     1     -46.230  17.045  -6.585  1.00  0.00    -0.015 A 
HETATM    3  C3  UNL     1     -46.988  16.647  -5.526  1.00  0.00     0.106 A 
HETATM    4  C4  UNL     1     -47.932  15.657  -5.730  1.00  0.00     0.106 A 
HETATM    5  C5  UNL     1     -48.137  15.046  -6.992  1.00  0.00    -0.014 A 
HETATM    6  C6  UNL     1     -48.983  13.862  -7.083  1.00  0.00     0.052 C 
HETATM    7  C7  UNL     1     -47.352  15.496  -8.018  1.00  0.00    -0.003 A 
HETATM    8  C8  UNL     1     -47.495  14.984  -9.275  1.00  0.00     0.012 A 
HETATM    9  C9  UNL     1     -46.650  15.451 -10.333  1.00  0.00    -0.033 A 
HETATM   10  C10 UNL     1     -45.689  16.415 -10.162  1.00  0.00    -0.020 A 
HETATM   11  C18 UNL     1     -45.583  16.921  -8.894  1.00  0.00     0.023 A 
HETATM   12  C19 UNL     1     -46.377  16.496  -7.844  1.00  0.00    -0.015 A 
HETATM   13  C20 UNL     1     -46.821  14.662 -11.566  1.00  0.00     0.072 C 
HETATM   14  C21 UNL     1     -47.129  13.183 -11.294  1.00  0.00     0.128 C 
HETATM   15  C22 UNL     1     -48.347  12.918 -10.510  1.00  0.00     0.097 C 
HETATM   16  C23 UNL     1     -48.617  14.126  -9.637  1.00  0.00     0.057 C 
ENDROOT
BRANCH  10  17
HETATM   17  C11 UNL     1     -44.987  16.947 -11.327  1.00  0.00     0.177 C 
BRANCH  17  18
HETATM   18  O3  UNL     1     -45.690  17.610 -12.264  1.00  0.00    -0.389 OA
ATOM     19  H3  UNL     1     -45.849  17.191 -13.101  1.00  0.00     0.210 HD
ENDBRANCH  17  18
BRANCH  17  20
HETATM   20  C12 UNL     1     -44.015  15.903 -11.834  1.00  0.00     0.268 C 
BRANCH  20  21
HETATM   21  N1  UNL     1     -42.635  16.342 -11.822  1.00  0.00    -0.072 N 
ATOM     22  H12 UNL     1     -42.409  16.886 -10.990  1.00  0.00     0.277 HD
ATOM     23  H11 UNL     1     -41.985  15.571 -11.671  1.00  0.00     0.277 HD
BRANCH  21  24
HETATM   24  C13 UNL     1     -42.349  17.076 -13.062  1.00  0.00     0.237 C 
BRANCH  24  25
HETATM   25  C14 UNL     1     -42.860  16.214 -14.180  1.00  0.00     0.011 C 
HETATM   26  C15 UNL     1     -41.839  15.918 -15.282  1.00  0.00     0.006 C 
HETATM   27  C16 UNL     1     -43.034  16.063 -16.254  1.00  0.00     0.001 C 
HETATM   28  C17 UNL     1     -43.563  17.084 -15.266  1.00  0.00     0.006 C 
ENDBRANCH  24  25
ENDBRANCH  21  24
ENDBRANCH  20  21
ENDBRANCH  17  20
ENDBRANCH  10  17
BRANCH  16  29
HETATM   29  O5  UNL     1     -49.955  14.514  -9.488  1.00  0.00    -0.364 OA
ATOM     30  H5  UNL     1     -50.684  13.916  -9.604  1.00  0.00     0.217 HD
ENDBRANCH  16  29
BRANCH  14  31
HETATM   31  O4  UNL     1     -47.247  12.614 -12.558  1.00  0.00    -0.395 OA
ATOM     32  H4  UNL     1     -47.984  12.020 -12.483  1.00  0.00     0.210 HD
ENDBRANCH  14  31
BRANCH   3  33
HETATM   33  O1  UNL     1     -46.848  17.197  -4.283  1.00  0.00    -0.357 OA
ATOM     34  H1  UNL     1     -47.410  16.956  -3.557  1.00  0.00     0.217 HD
ENDBRANCH   3  33
BRANCH   4  35
HETATM   35  O2  UNL     1     -48.706  15.252  -4.660  1.00  0.00    -0.357 OA
ATOM     36  H2  UNL     1     -48.270  14.904  -3.891  1.00  0.00     0.217 HD
ENDBRANCH   4  35
TORSDOF 10
ENDMDL
MODEL 3
REMARK VINA RESULT: -9.318737358      2.920      5.863
REMARK  10 active torsions:
REMARK  status: ('A' for Active; 'I' for Inactive)
REMARK    1  A    between atoms: C3_3  and  O1_4 
REMARK    2  A    between atoms: C4_6  and  O2_7 
REMARK    3  A    between atoms: C10_14  and  C11_15 
REMARK    4  A    between atoms: C11_15  and  O3_16 
REMARK    5  A    between atoms: C11_15  and  C12_18 
REMARK    6  A    between atoms: C12_18  and  N1_19 
REMARK    7  A    between atoms: N1_19  and  C13_22 
REMARK    8  A    between atoms: C13_22  and  C14_23 
REMARK    9  A    between atoms: C21_30  and  O4_31 
REMARK   10  A    between atoms: C23_34  and  O5_35 
ROOT
HETATM    1  C1  UNL     1     -48.981  13.681  -6.519  1.00  0.00     0.052 C 
HETATM    2  C2  UNL     1     -48.487  15.086  -6.407  1.00  0.00    -0.015 A 
HETATM    3  C3  UNL     1     -48.779  15.861  -5.326  1.00  0.00     0.106 A 
HETATM    4  C4  UNL     1     -48.243  17.135  -5.269  1.00  0.00     0.106 A 
HETATM    5  C5  UNL     1     -47.406  17.657  -6.286  1.00  0.00    -0.014 A 
HETATM    6  C6  UNL     1     -47.063  19.075  -6.270  1.00  0.00     0.052 C 
HETATM    7  C7  UNL     1     -47.141  16.826  -7.340  1.00  0.00    -0.003 A 
HETATM    8  C8  UNL     1     -46.325  17.234  -8.354  1.00  0.00     0.012 A 
HETATM    9  C9  UNL     1     -46.076  16.360  -9.461  1.00  0.00    -0.033 A 
HETATM   10  C10 UNL     1     -46.608  15.100  -9.563  1.00  0.00    -0.020 A 
HETATM   11  C18 UNL     1     -47.407  14.714  -8.519  1.00  0.00     0.023 A 
HETATM   12  C19 UNL     1     -47.676  15.528  -7.434  1.00  0.00    -0.015 A 
HETATM   13  C20 UNL     1     -45.327  17.032 -10.538  1.00  0.00     0.072 C 
HETATM   14  C21 UNL     1     -45.678  18.520 -10.675  1.00  0.00     0.128 C 
HETATM   15  C22 UNL     1     -45.432  19.346  -9.480  1.00  0.00     0.097 C 
HETATM   16  C23 UNL     1     -45.525  18.450  -8.262  1.00  0.00     0.057 C 
ENDROOT
BRANCH  10  17
HETATM   17  C11 UNL     1     -46.171  14.218 -10.641  1.00  0.00     0.177 C 
BRANCH  17  18
HETATM   18  O3  UNL     1     -44.904  14.314 -11.087  1.00  0.00    -0.389 OA
ATOM     19  H3  UNL     1     -44.256  13.699 -10.766  1.00  0.00     0.210 HD
ENDBRANCH  17  18
BRANCH  17  20
HETATM   20  C12 UNL     1     -47.251  14.163 -11.700  1.00  0.00     0.268 C 
BRANCH  20  21
HETATM   21  N1  UNL     1     -47.470  12.835 -12.235  1.00  0.00    -0.072 N 
ATOM     22  H12 UNL     1     -47.479  12.825 -13.255  1.00  0.00     0.277 HD
ATOM     23  H11 UNL     1     -46.667  12.223 -12.092  1.00  0.00     0.277 HD
BRANCH  21  24
HETATM   24  C13 UNL     1     -48.703  12.279 -11.661  1.00  0.00     0.237 C 
BRANCH  24  25
HETATM   25  C14 UNL     1     -49.320  11.440 -12.743  1.00  0.00     0.011 C 
HETATM   26  C15 UNL     1     -49.490   9.959 -12.390  1.00  0.00     0.006 C 
HETATM   27  C16 UNL     1     -49.094   9.693 -13.862  1.00  0.00     0.001 C 
HETATM   28  C17 UNL     1     -48.227  10.930 -13.731  1.00  0.00     0.006 C 
ENDBRANCH  24  25
ENDBRANCH  21  24
ENDBRANCH  20  21
ENDBRANCH  17  20
ENDBRANCH  10  17
BRANCH  16  29
HETATM   29  O5  UNL     1     -44.601  18.681  -7.235  1.00  0.00    -0.364 OA
ATOM     30  H5  UNL     1     -43.918  18.062  -7.004  1.00  0.00     0.217 HD
ENDBRANCH  16  29
BRANCH  14  31
HETATM   31  O4  UNL     1     -44.889  18.969 -11.729  1.00  0.00    -0.395 OA
ATOM     32  H4  UNL     1     -43.997  18.850 -11.426  1.00  0.00     0.210 HD
ENDBRANCH  14  31
BRANCH   3  33
HETATM   33  O1  UNL     1     -49.574  15.419  -4.307  1.00  0.00    -0.357 OA
ATOM     34  H1  UNL     1     -50.434  15.786  -4.140  1.00  0.00     0.217 HD
ENDBRANCH   3  33
BRANCH   4  35
HETATM   35  O2  UNL     1     -48.534  17.924  -4.174  1.00  0.00    -0.357 OA
ATOM     36  H2  UNL     1     -48.006  18.698  -4.019  1.00  0.00     0.217 HD
ENDBRANCH   4  35
TORSDOF 10
ENDMDL
MODEL 4
REMARK VINA RESULT: -9.184694257      1.611      1.982
REMARK  10 active torsions:
REMARK  status: ('A' for Active; 'I' for Inactive)
REMARK    1  A    between atoms: C3_3  and  O1_4 
REMARK    2  A    between atoms: C4_6  and  O2_7 
REMARK    3  A    between atoms: C10_14  and  C11_15 
REMARK    4  A    between atoms: C11_15  and  O3_16 
REMARK    5  A    between atoms: C11_15  and  C12_18 
REMARK    6  A    between atoms: C12_18  and  N1_19 
REMARK    7  A    between atoms: N1_19  and  C13_22 
REMARK    8  A    between atoms: C13_22  and  C14_23 
REMARK    9  A    between atoms: C21_30  and  O4_31 
REMARK   10  A    between atoms: C23_34  and  O5_35 
ROOT
HETATM    1  C1  UNL     1     -45.221  18.222  -6.522  1.00  0.00     0.052 C 
HETATM    2  C2  UNL     1     -46.210  17.108  -6.637  1.00  0.00    -0.015 A 
HETATM    3  C3  UNL     1     -46.959  16.707  -5.572  1.00  0.00     0.106 A 
HETATM    4  C4  UNL     1     -47.891  15.704  -5.768  1.00  0.00     0.106 A 
HETATM    5  C5  UNL     1     -48.095  15.085  -7.025  1.00  0.00    -0.014 A 
HETATM    6  C6  UNL     1     -48.927  13.891  -7.107  1.00  0.00     0.052 C 
HETATM    7  C7  UNL     1     -47.320  15.539  -8.058  1.00  0.00    -0.003 A 
HETATM    8  C8  UNL     1     -47.462  15.020  -9.311  1.00  0.00     0.012 A 
HETATM    9  C9  UNL     1     -46.627  15.491 -10.375  1.00  0.00    -0.033 A 
HETATM   10  C10 UNL     1     -45.677  16.468 -10.213  1.00  0.00    -0.020 A 
HETATM   11  C18 UNL     1     -45.572  16.981  -8.948  1.00  0.00     0.023 A 
HETATM   12  C19 UNL     1     -46.356  16.552  -7.893  1.00  0.00    -0.015 A 
HETATM   13  C20 UNL     1     -46.795  14.694 -11.603  1.00  0.00     0.072 C 
HETATM   14  C21 UNL     1     -47.083  13.213 -11.323  1.00  0.00     0.128 C 
HETATM   15  C22 UNL     1     -48.295  12.937 -10.532  1.00  0.00     0.097 C 
HETATM   16  C23 UNL     1     -48.575  14.146  -9.664  1.00  0.00     0.057 C 
ENDROOT
BRANCH  10  17
HETATM   17  C11 UNL     1     -44.987  17.002 -11.384  1.00  0.00     0.177 C 
BRANCH  17  18
HETATM   18  O3  UNL     1     -43.687  16.702 -11.566  1.00  0.00    -0.389 OA
ATOM     19  H3  UNL     1     -43.027  17.299 -11.234  1.00  0.00     0.210 HD
ENDBRANCH  17  18
BRANCH  17  20
HETATM   20  C12 UNL     1     -45.368  18.456 -11.559  1.00  0.00     0.268 C 
BRANCH  20  21
HETATM   21  N1  UNL     1     -44.256  19.306 -11.931  1.00  0.00    -0.072 N 
ATOM     22  H12 UNL     1     -43.377  18.792 -11.981  1.00  0.00     0.277 HD
ATOM     23  H11 UNL     1     -44.305  19.602 -12.906  1.00  0.00     0.277 HD
BRANCH  21  24
HETATM   24  C13 UNL     1     -44.185  20.444 -11.005  1.00  0.00     0.237 C 
BRANCH  24  25
HETATM   25  C14 UNL     1     -43.071  21.316 -11.507  1.00  0.00     0.011 C 
HETATM   26  C15 UNL     1     -41.841  20.557 -12.015  1.00  0.00     0.006 C 
HETATM   27  C16 UNL     1     -41.023  21.694 -11.357  1.00  0.00     0.001 C 
HETATM   28  C17 UNL     1     -42.139  21.745 -10.332  1.00  0.00     0.006 C 
ENDBRANCH  24  25
ENDBRANCH  21  24
ENDBRANCH  20  21
ENDBRANCH  17  20
ENDBRANCH  10  17
BRANCH  16  29
HETATM   29  O5  UNL     1     -49.917  14.518  -9.510  1.00  0.00    -0.364 OA
ATOM     30  H5  UNL     1     -50.216  15.418  -9.575  1.00  0.00     0.217 HD
ENDBRANCH  16  29
BRANCH  14  31
HETATM   31  O4  UNL     1     -47.200  12.636 -12.583  1.00  0.00    -0.395 OA
ATOM     32  H4  UNL     1     -47.963  12.074 -12.518  1.00  0.00     0.210 HD
ENDBRANCH  14  31
BRANCH   3  33
HETATM   33  O1  UNL     1     -46.820  17.265  -4.333  1.00  0.00    -0.357 OA
ATOM     34  H1  UNL     1     -46.028  17.162  -3.819  1.00  0.00     0.217 HD
ENDBRANCH   3  33
BRANCH   4  35
HETATM   35  O2  UNL     1     -48.656  15.296  -4.692  1.00  0.00    -0.357 OA
ATOM     36  H2  UNL     1     -49.571  15.090  -4.839  1.00  0.00     0.217 HD
ENDBRANCH   4  35
TORSDOF 10
ENDMDL
MODEL 5
REMARK VINA RESULT: -8.942828951      3.680      5.837
REMARK  10 active torsions:
REMARK  status: ('A' for Active; 'I' for Inactive)
REMARK    1  A    between atoms: C3_3  and  O1_4 
REMARK    2  A    between atoms: C4_6  and  O2_7 
REMARK    3  A    between atoms: C10_14  and  C11_15 
REMARK    4  A    between atoms: C11_15  and  O3_16 
REMARK    5  A    between atoms: C11_15  and  C12_18 
REMARK    6  A    between atoms: C12_18  and  N1_19 
REMARK    7  A    between atoms: N1_19  and  C13_22 
REMARK    8  A    between atoms: C13_22  and  C14_23 
REMARK    9  A    between atoms: C21_30  and  O4_31 
REMARK   10  A    between atoms: C23_34  and  O5_35 
ROOT
HETATM    1  C1  UNL     1     -43.289  15.535 -14.497  1.00  0.00     0.052 C 
HETATM    2  C2  UNL     1     -44.100  15.131 -13.309  1.00  0.00    -0.015 A 
HETATM    3  C3  UNL     1     -43.811  15.588 -12.059  1.00  0.00     0.106 A 
HETATM    4  C4  UNL     1     -44.638  15.212 -11.017  1.00  0.00     0.106 A 
HETATM    5  C5  UNL     1     -45.767  14.377 -11.200  1.00  0.00    -0.014 A 
HETATM    6  C6  UNL     1     -46.458  13.842 -10.032  1.00  0.00     0.052 C 
HETATM    7  C7  UNL     1     -46.011  13.960 -12.480  1.00  0.00    -0.003 A 
HETATM    8  C8  UNL     1     -47.090  13.172 -12.758  1.00  0.00     0.012 A 
HETATM    9  C9  UNL     1     -47.318  12.726 -14.100  1.00  0.00    -0.033 A 
HETATM   10  C10 UNL     1     -46.507  13.060 -15.155  1.00  0.00    -0.020 A 
HETATM   11  C18 UNL     1     -45.444  13.866 -14.845  1.00  0.00     0.023 A 
HETATM   12  C19 UNL     1     -45.186  14.316 -13.564  1.00  0.00    -0.015 A 
HETATM   13  C20 UNL     1     -48.415  11.744 -14.177  1.00  0.00     0.072 C 
HETATM   14  C21 UNL     1     -48.498  10.840 -12.940  1.00  0.00     0.128 C 
HETATM   15  C22 UNL     1     -48.708  11.531 -11.656  1.00  0.00     0.097 C 
HETATM   16  C23 UNL     1     -48.144  12.932 -11.779  1.00  0.00     0.057 C 
ENDROOT
BRANCH  10  17
HETATM   17  C11 UNL     1     -46.905  12.698 -16.512  1.00  0.00     0.177 C 
BRANCH  17  18
HETATM   18  O3  UNL     1     -46.629  11.459 -16.962  1.00  0.00    -0.389 OA
ATOM     19  H3  UNL     1     -46.114  11.363 -17.754  1.00  0.00     0.210 HD
ENDBRANCH  17  18
BRANCH  17  20
HETATM   20  C12 UNL     1     -46.565  13.840 -17.445  1.00  0.00     0.268 C 
BRANCH  20  21
HETATM   21  N1  UNL     1     -45.556  13.504 -18.428  1.00  0.00    -0.072 N 
ATOM     22  H12 UNL     1     -44.815  12.921 -18.039  1.00  0.00     0.277 HD
ATOM     23  H11 UNL     1     -45.901  12.847 -19.128  1.00  0.00     0.277 HD
BRANCH  21  24
HETATM   24  C13 UNL     1     -45.036  14.739 -19.030  1.00  0.00     0.237 C 
BRANCH  24  25
HETATM   25  C14 UNL     1     -45.088  15.779 -17.949  1.00  0.00     0.011 C 
HETATM   26  C15 UNL     1     -45.745  17.100 -18.359  1.00  0.00     0.006 C 
HETATM   27  C16 UNL     1     -44.649  17.768 -17.495  1.00  0.00     0.001 C 
HETATM   28  C17 UNL     1     -43.769  16.610 -17.924  1.00  0.00     0.006 C 
ENDBRANCH  24  25
ENDBRANCH  21  24
ENDBRANCH  20  21
ENDBRANCH  17  20
ENDBRANCH  10  17
BRANCH  16  29
HETATM   29  O5  UNL     1     -48.873  13.963 -11.173  1.00  0.00    -0.364 OA
ATOM     30  H5  UNL     1     -49.706  13.822 -10.737  1.00  0.00     0.217 HD
ENDBRANCH  16  29
BRANCH  14  31
HETATM   31  O4  UNL     1     -49.570   9.992 -13.200  1.00  0.00    -0.395 OA
ATOM     32  H4  UNL     1     -49.604   9.935 -14.147  1.00  0.00     0.210 HD
ENDBRANCH  14  31
BRANCH   3  33
HETATM   33  O1  UNL     1     -42.742  16.402 -11.812  1.00  0.00    -0.357 OA
ATOM     34  H1  UNL     1     -42.081  16.583 -12.469  1.00  0.00     0.217 HD
ENDBRANCH   3  33
BRANCH   4  35
HETATM   35  O2  UNL     1     -44.351  15.676  -9.747  1.00  0.00    -0.357 OA
ATOM     36  H2  UNL     1     -45.064  15.767  -9.126  1.00  0.00     0.217 HD
ENDBRANCH   4  35
TORSDOF 10
ENDMDL
