MODEL 1
REMARK VINA RESULT: -10.040012913      0.000      0.000
REMARK  9 active torsions:
REMARK  status: ('A' for Active; 'I' for Inactive)
REMARK    1  A    between atoms: C3_3  and  O1_4 
REMARK    2  A    between atoms: C3_3  and  N1_6 
REMARK    3  A    between atoms: N1_6  and  C4_8 
REMARK    4  A    between atoms: C4_8  and  C5_9 
REMARK    5  A    between atoms: C5_9  and  C6_10 
REMARK    6  A    between atoms: C6_10  and  C7_11 
REMARK    7  A    between atoms: C9_15  and  O2_16 
REMARK    8  A    between atoms: C11_19  and  O3_20 
REMARK    9  A    between atoms: C16_26  and  O4_27 
ROOT
HETATM    1  C1  UNL     1     -45.771  13.591 -13.640  1.00  0.00     0.016 C 
HETATM    2  C2  UNL     1     -44.944  14.424 -13.912  1.00  0.00    -0.065 C 
HETATM    3  C3  UNL     1     -43.907  15.428 -14.261  1.00  0.00     0.295 C 
ENDROOT
BRANCH   3   4
HETATM    4  O1  UNL     1     -42.799  14.737 -14.799  1.00  0.00    -0.366 OA
ATOM      5  H1  UNL     1     -42.376  14.270 -14.089  1.00  0.00     0.213 HD
ENDBRANCH   3   4
BRANCH   3   6
HETATM    6  N1  UNL     1     -43.592  16.194 -13.102  1.00  0.00    -0.387 N 
ATOM      7  H1  UNL     1     -42.911  15.870 -12.416  1.00  0.00     0.156 HD
BRANCH   6   8
HETATM    8  C4  UNL     1     -44.277  17.436 -12.948  1.00  0.00     0.117 C 
BRANCH   8   9
HETATM    9  C5  UNL     1     -45.265  17.372 -11.808  1.00  0.00     0.025 C 
BRANCH   9  10
HETATM   10  C6  UNL     1     -45.004  16.337 -10.787  1.00  0.00     0.059 C 
BRANCH  10  11
HETATM   11  C7  UNL     1     -45.788  16.326  -9.570  1.00  0.00     0.016 A 
HETATM   12  N2  UNL     1     -45.559  17.347  -8.687  1.00  0.00    -0.356 N 
HETATM   13  C8  UNL     1     -46.228  17.460  -7.532  1.00  0.00     0.080 A 
ATOM     14  H2  UNL     1     -44.853  18.047  -8.917  1.00  0.00     0.166 HD
HETATM   15  C9  UNL     1     -45.972  18.498  -6.652  1.00  0.00     0.107 A 
HETATM   16  C17 UNL     1     -47.196  16.540  -7.179  1.00  0.00     0.034 A 
HETATM   17  C10 UNL     1     -46.642  18.639  -5.457  1.00  0.00     0.045 A 
HETATM   18  C11 UNL     1     -46.382  19.682  -4.558  1.00  0.00     0.079 A 
HETATM   19  C15 UNL     1     -47.615  17.707  -5.118  1.00  0.00     0.014 A 
HETATM   20  C12 UNL     1     -47.118  19.735  -3.352  1.00  0.00     0.037 A 
HETATM   21  C13 UNL     1     -48.068  18.808  -3.042  1.00  0.00     0.004 A 
HETATM   22  C14 UNL     1     -48.329  17.767  -3.941  1.00  0.00     0.015 A 
HETATM   23  C16 UNL     1     -47.890  16.662  -5.976  1.00  0.00     0.090 A 
HETATM   24  C18 UNL     1     -47.474  15.500  -8.007  1.00  0.00    -0.035 A 
HETATM   25  C19 UNL     1     -46.738  15.407  -9.233  1.00  0.00    -0.028 A 
HETATM   26  C23 UNL     1     -48.426  14.424  -7.845  1.00  0.00     0.040 C 
HETATM   27  C20 UNL     1     -46.948  14.274 -10.165  1.00  0.00     0.041 C 
HETATM   28  C21 UNL     1     -48.303  13.633 -10.125  1.00  0.00     0.005 C 
HETATM   29  C22 UNL     1     -49.229  14.355  -9.133  1.00  0.00     0.005 C 
BRANCH  15  30
HETATM   30  O2  UNL     1     -45.004  19.402  -7.015  1.00  0.00    -0.357 OA
ATOM     31  H2  UNL     1     -44.587  19.894  -6.317  1.00  0.00     0.217 HD
ENDBRANCH  15  30
BRANCH  18  32
HETATM   32  O3  UNL     1     -45.461  20.608  -4.819  1.00  0.00    -0.360 OA
ATOM     33  H3  UNL     1     -44.737  20.433  -5.409  1.00  0.00     0.217 HD
ENDBRANCH  18  32
BRANCH  23  34
HETATM   34  O4  UNL     1     -48.837  15.727  -5.687  1.00  0.00    -0.359 OA
ATOM     35  H4  UNL     1     -49.340  15.298  -6.368  1.00  0.00     0.217 HD
ENDBRANCH  23  34
ENDBRANCH  10  11
ENDBRANCH   9  10
ENDBRANCH   8   9
ENDBRANCH   6   8
ENDBRANCH   3   6
TORSDOF 9
ENDMDL
MODEL 2
REMARK VINA RESULT: -10.005818942      2.068      7.812
REMARK  9 active torsions:
REMARK  status: ('A' for Active; 'I' for Inactive)
REMARK    1  A    between atoms: C3_3  and  O1_4 
REMARK    2  A    between atoms: C3_3  and  N1_6 
REMARK    3  A    between atoms: N1_6  and  C4_8 
REMARK    4  A    between atoms: C4_8  and  C5_9 
REMARK    5  A    between atoms: C5_9  and  C6_10 
REMARK    6  A    between atoms: C6_10  and  C7_11 
REMARK    7  A    between atoms: C9_15  and  O2_16 
REMARK    8  A    between atoms: C11_19  and  O3_20 
REMARK    9  A    between atoms: C16_26  and  O4_27 
ROOT
HETATM    1  C1  UNL     1     -49.366  18.115  -2.049  1.00  0.00     0.016 C 
HETATM    2  C2  UNL     1     -48.266  18.456  -2.401  1.00  0.00    -0.065 C 
HETATM    3  C3  UNL     1     -46.902  18.884  -2.805  1.00  0.00     0.295 C 
ENDROOT
BRANCH   3   4
HETATM    4  O1  UNL     1     -46.294  19.501  -1.690  1.00  0.00    -0.366 OA
ATOM      5  H1  UNL     1     -46.351  18.899  -0.958  1.00  0.00     0.213 HD
ENDBRANCH   3   4
BRANCH   3   6
HETATM    6  N1  UNL     1     -47.001  19.735  -3.943  1.00  0.00    -0.387 N 
ATOM      7  H1  UNL     1     -47.870  20.212  -4.182  1.00  0.00     0.156 HD
BRANCH   6   8
HETATM    8  C4  UNL     1     -45.823  19.888  -4.733  1.00  0.00     0.117 C 
BRANCH   8   9
HETATM    9  C5  UNL     1     -45.996  19.254  -6.092  1.00  0.00     0.025 C 
BRANCH   9  10
HETATM   10  C6  UNL     1     -45.443  17.893  -6.243  1.00  0.00     0.059 C 
BRANCH  10  11
HETATM   11  C7  UNL     1     -46.095  16.955  -7.132  1.00  0.00     0.016 A 
HETATM   12  N2  UNL     1     -45.478  16.720  -8.332  1.00  0.00    -0.356 N 
HETATM   13  C8  UNL     1     -45.970  15.864  -9.237  1.00  0.00     0.080 A 
ATOM     14  H2  UNL     1     -44.611  17.215  -8.545  1.00  0.00     0.166 HD
HETATM   15  C9  UNL     1     -45.331  15.650 -10.446  1.00  0.00     0.107 A 
HETATM   16  C17 UNL     1     -47.139  15.168  -8.993  1.00  0.00     0.034 A 
HETATM   17  C10 UNL     1     -45.815  14.779 -11.396  1.00  0.00     0.045 A 
HETATM   18  C11 UNL     1     -45.178  14.563 -12.625  1.00  0.00     0.079 A 
HETATM   19  C15 UNL     1     -46.989  14.083 -11.135  1.00  0.00     0.014 A 
HETATM   20  C12 UNL     1     -45.758  13.653 -13.539  1.00  0.00     0.037 A 
HETATM   21  C13 UNL     1     -46.911  12.983 -13.259  1.00  0.00     0.004 A 
HETATM   22  C14 UNL     1     -47.547  13.197 -12.030  1.00  0.00     0.015 A 
HETATM   23  C16 UNL     1     -47.648  14.278  -9.938  1.00  0.00     0.090 A 
HETATM   24  C18 UNL     1     -47.805  15.354  -7.824  1.00  0.00    -0.035 A 
HETATM   25  C19 UNL     1     -47.252  16.279  -6.880  1.00  0.00    -0.028 A 
HETATM   26  C23 UNL     1     -49.034  14.750  -7.361  1.00  0.00     0.040 C 
HETATM   27  C20 UNL     1     -47.946  16.572  -5.605  1.00  0.00     0.041 C 
HETATM   28  C21 UNL     1     -48.824  15.482  -5.067  1.00  0.00     0.005 C 
HETATM   29  C22 UNL     1     -48.763  14.231  -5.959  1.00  0.00     0.005 C 
BRANCH  15  30
HETATM   30  O2  UNL     1     -44.173  16.352 -10.675  1.00  0.00    -0.357 OA
ATOM     31  H2  UNL     1     -43.798  16.296 -11.546  1.00  0.00     0.217 HD
ENDBRANCH  15  30
BRANCH  18  32
HETATM   32  O3  UNL     1     -44.050  15.198 -12.942  1.00  0.00    -0.360 OA
ATOM     33  H3  UNL     1     -43.200  14.812 -12.766  1.00  0.00     0.217 HD
ENDBRANCH  18  32
BRANCH  23  34
HETATM   34  O4  UNL     1     -48.799  13.616  -9.638  1.00  0.00    -0.359 OA
ATOM     35  H4  UNL     1     -49.236  13.729  -8.802  1.00  0.00     0.217 HD
ENDBRANCH  23  34
ENDBRANCH  10  11
ENDBRANCH   9  10
ENDBRANCH   8   9
ENDBRANCH   6   8
ENDBRANCH   3   6
TORSDOF 9
ENDMDL
MODEL 3
REMARK VINA RESULT: -9.946484890      1.238      1.449
REMARK  9 active torsions:
REMARK  status: ('A' for Active; 'I' for Inactive)
REMARK    1  A    between atoms: C3_3  and  O1_4 
REMARK    2  A    between atoms: C3_3  and  N1_6 
REMARK    3  A    between atoms: N1_6  and  C4_8 
REMARK    4  A    between atoms: C4_8  and  C5_9 
REMARK    5  A    between atoms: C5_9  and  C6_10 
REMARK    6  A    between atoms: C6_10  and  C7_11 
REMARK    7  A    between atoms: C9_15  and  O2_16 
REMARK    8  A    between atoms: C11_19  and  O3_20 
REMARK    9  A    between atoms: C16_26  and  O4_27 
ROOT
HETATM    1  C1  UNL     1     -44.261  15.700 -15.898  1.00  0.00     0.016 C 
HETATM    2  C2  UNL     1     -43.154  15.868 -15.454  1.00  0.00    -0.065 C 
HETATM    3  C3  UNL     1     -41.777  16.054 -14.928  1.00  0.00     0.295 C 
ENDROOT
BRANCH   3   4
HETATM    4  O1  UNL     1     -40.935  15.129 -15.582  1.00  0.00    -0.366 OA
ATOM      5  H1  UNL     1     -40.213  15.613 -15.965  1.00  0.00     0.213 HD
ENDBRANCH   3   4
BRANCH   3   6
HETATM    6  N1  UNL     1     -41.797  15.902 -13.511  1.00  0.00    -0.387 N 
ATOM      7  H1  UNL     1     -41.192  15.234 -13.036  1.00  0.00     0.156 HD
BRANCH   6   8
HETATM    8  C4  UNL     1     -42.706  16.733 -12.790  1.00  0.00     0.117 C 
BRANCH   8   9
HETATM    9  C5  UNL     1     -43.541  15.918 -11.833  1.00  0.00     0.025 C 
BRANCH   9  10
HETATM   10  C6  UNL     1     -44.982  16.244 -11.797  1.00  0.00     0.059 C 
BRANCH  10  11
HETATM   11  C7  UNL     1     -45.695  16.175 -10.539  1.00  0.00     0.016 A 
HETATM   12  N2  UNL     1     -45.461  17.188  -9.648  1.00  0.00    -0.356 N 
HETATM   13  C8  UNL     1     -46.069  17.250  -8.456  1.00  0.00     0.080 A 
ATOM     14  H2  UNL     1     -44.801  17.924  -9.901  1.00  0.00     0.166 HD
HETATM   15  C9  UNL     1     -45.810  18.281  -7.569  1.00  0.00     0.107 A 
HETATM   16  C17 UNL     1     -46.974  16.279  -8.070  1.00  0.00     0.034 A 
HETATM   17  C10 UNL     1     -46.417  18.368  -6.336  1.00  0.00     0.045 A 
HETATM   18  C11 UNL     1     -46.154  19.404  -5.431  1.00  0.00     0.079 A 
HETATM   19  C15 UNL     1     -47.328  17.387  -5.964  1.00  0.00     0.014 A 
HETATM   20  C12 UNL     1     -46.823  19.402  -4.185  1.00  0.00     0.037 A 
HETATM   21  C13 UNL     1     -47.712  18.427  -3.843  1.00  0.00     0.004 A 
HETATM   22  C14 UNL     1     -47.977  17.393  -4.749  1.00  0.00     0.015 A 
HETATM   23  C16 UNL     1     -47.605  16.347  -6.828  1.00  0.00     0.090 A 
HETATM   24  C18 UNL     1     -47.253  15.244  -8.904  1.00  0.00    -0.035 A 
HETATM   25  C19 UNL     1     -46.583  15.208 -10.170  1.00  0.00    -0.028 A 
HETATM   26  C23 UNL     1     -48.146  14.123  -8.712  1.00  0.00     0.040 C 
HETATM   27  C20 UNL     1     -46.795  14.085 -11.113  1.00  0.00     0.041 C 
HETATM   28  C21 UNL     1     -48.116  13.383 -11.013  1.00  0.00     0.005 C 
HETATM   29  C22 UNL     1     -49.016  14.043  -9.955  1.00  0.00     0.005 C 
BRANCH  15  30
HETATM   30  O2  UNL     1     -44.905  19.235  -7.965  1.00  0.00    -0.357 OA
ATOM     31  H2  UNL     1     -44.472  19.731  -7.281  1.00  0.00     0.217 HD
ENDBRANCH  15  30
BRANCH  18  32
HETATM   32  O3  UNL     1     -45.291  20.377  -5.722  1.00  0.00    -0.360 OA
ATOM     33  H3  UNL     1     -45.559  21.144  -6.215  1.00  0.00     0.217 HD
ENDBRANCH  18  32
BRANCH  23  34
HETATM   34  O4  UNL     1     -48.492  15.366  -6.507  1.00  0.00    -0.359 OA
ATOM     35  H4  UNL     1     -48.560  14.567  -7.017  1.00  0.00     0.217 HD
ENDBRANCH  23  34
ENDBRANCH  10  11
ENDBRANCH   9  10
ENDBRANCH   8   9
ENDBRANCH   6   8
ENDBRANCH   3   6
TORSDOF 9
ENDMDL
MODEL 4
REMARK VINA RESULT: -9.792898144      1.832      2.347
REMARK  9 active torsions:
REMARK  status: ('A' for Active; 'I' for Inactive)
REMARK    1  A    between atoms: C3_3  and  O1_4 
REMARK    2  A    between atoms: C3_3  and  N1_6 
REMARK    3  A    between atoms: N1_6  and  C4_8 
REMARK    4  A    between atoms: C4_8  and  C5_9 
REMARK    5  A    between atoms: C5_9  and  C6_10 
REMARK    6  A    between atoms: C6_10  and  C7_11 
REMARK    7  A    between atoms: C9_15  and  O2_16 
REMARK    8  A    between atoms: C11_19  and  O3_20 
REMARK    9  A    between atoms: C16_26  and  O4_27 
ROOT
HETATM    1  C1  UNL     1     -40.024  18.155 -14.903  1.00  0.00     0.016 C 
HETATM    2  C2  UNL     1     -40.794  18.501 -14.044  1.00  0.00    -0.065 C 
HETATM    3  C3  UNL     1     -41.720  18.941 -12.969  1.00  0.00     0.295 C 
ENDROOT
BRANCH   3   4
HETATM    4  O1  UNL     1     -40.943  19.498 -11.930  1.00  0.00    -0.366 OA
ATOM      5  H1  UNL     1     -40.661  18.788 -11.365  1.00  0.00     0.213 HD
ENDBRANCH   3   4
BRANCH   3   6
HETATM    6  N1  UNL     1     -42.513  17.832 -12.555  1.00  0.00    -0.387 N 
ATOM      7  H1  UNL     1     -42.231  17.233 -11.780  1.00  0.00     0.156 HD
BRANCH   6   8
HETATM    8  C4  UNL     1     -43.721  17.602 -13.279  1.00  0.00     0.117 C 
BRANCH   8   9
HETATM    9  C5  UNL     1     -44.882  17.383 -12.340  1.00  0.00     0.025 C 
BRANCH   9  10
HETATM   10  C6  UNL     1     -44.785  16.198 -11.462  1.00  0.00     0.059 C 
BRANCH  10  11
HETATM   11  C7  UNL     1     -45.574  16.147 -10.249  1.00  0.00     0.016 A 
HETATM   12  N2  UNL     1     -45.371  17.155  -9.345  1.00  0.00    -0.356 N 
HETATM   13  C8  UNL     1     -46.047  17.232  -8.191  1.00  0.00     0.080 A 
ATOM     14  H2  UNL     1     -44.679  17.874  -9.558  1.00  0.00     0.166 HD
HETATM   15  C9  UNL     1     -45.818  18.257  -7.290  1.00  0.00     0.107 A 
HETATM   16  C17 UNL     1     -46.997  16.284  -7.861  1.00  0.00     0.034 A 
HETATM   17  C10 UNL     1     -46.495  18.360  -6.096  1.00  0.00     0.045 A 
HETATM   18  C11 UNL     1     -46.262  19.391  -5.176  1.00  0.00     0.079 A 
HETATM   19  C15 UNL     1     -47.450  17.401  -5.780  1.00  0.00     0.014 A 
HETATM   20  C12 UNL     1     -47.005  19.405  -3.973  1.00  0.00     0.037 A 
HETATM   21  C13 UNL     1     -47.936  18.452  -3.685  1.00  0.00     0.004 A 
HETATM   22  C14 UNL     1     -48.170  17.424  -4.606  1.00  0.00     0.015 A 
HETATM   23  C16 UNL     1     -47.699  16.368  -6.660  1.00  0.00     0.090 A 
HETATM   24  C18 UNL     1     -47.249  15.255  -8.711  1.00  0.00    -0.035 A 
HETATM   25  C19 UNL     1     -46.506  15.202  -9.935  1.00  0.00    -0.028 A 
HETATM   26  C23 UNL     1     -48.179  14.156  -8.574  1.00  0.00     0.040 C 
HETATM   27  C20 UNL     1     -46.687  14.083 -10.889  1.00  0.00     0.041 C 
HETATM   28  C21 UNL     1     -48.028  13.413 -10.869  1.00  0.00     0.005 C 
HETATM   29  C22 UNL     1     -48.974  14.095  -9.867  1.00  0.00     0.005 C 
BRANCH  15  30
HETATM   30  O2  UNL     1     -44.868  19.189  -7.631  1.00  0.00    -0.357 OA
ATOM     31  H2  UNL     1     -45.090  19.800  -8.324  1.00  0.00     0.217 HD
ENDBRANCH  15  30
BRANCH  18  32
HETATM   32  O3  UNL     1     -45.360  20.342  -5.414  1.00  0.00    -0.360 OA
ATOM     33  H3  UNL     1     -44.456  20.245  -5.140  1.00  0.00     0.217 HD
ENDBRANCH  18  32
BRANCH  23  34
HETATM   34  O4  UNL     1     -48.627  15.408  -6.393  1.00  0.00    -0.359 OA
ATOM     35  H4  UNL     1     -48.737  15.048  -5.521  1.00  0.00     0.217 HD
ENDBRANCH  23  34
ENDBRANCH  10  11
ENDBRANCH   9  10
ENDBRANCH   8   9
ENDBRANCH   6   8
ENDBRANCH   3   6
TORSDOF 9
ENDMDL
MODEL 5
REMARK VINA RESULT: -9.733459711      1.839      2.856
REMARK  9 active torsions:
REMARK  status: ('A' for Active; 'I' for Inactive)
REMARK    1  A    between atoms: C3_3  and  O1_4 
REMARK    2  A    between atoms: C3_3  and  N1_6 
REMARK    3  A    between atoms: N1_6  and  C4_8 
REMARK    4  A    between atoms: C4_8  and  C5_9 
REMARK    5  A    between atoms: C5_9  and  C6_10 
REMARK    6  A    between atoms: C6_10  and  C7_11 
REMARK    7  A    between atoms: C9_15  and  O2_16 
REMARK    8  A    between atoms: C11_19  and  O3_20 
REMARK    9  A    between atoms: C16_26  and  O4_27 
ROOT
HETATM    1  C1  UNL     1     -42.062  21.548 -11.487  1.00  0.00     0.016 C 
HETATM    2  C2  UNL     1     -43.107  20.953 -11.403  1.00  0.00    -0.065 C 
HETATM    3  C3  UNL     1     -44.393  20.224 -11.268  1.00  0.00     0.295 C 
ENDROOT
BRANCH   3   4
HETATM    4  O1  UNL     1     -44.640  20.034  -9.891  1.00  0.00    -0.366 OA
ATOM      5  H1  UNL     1     -45.083  20.809  -9.566  1.00  0.00     0.213 HD
ENDBRANCH   3   4
BRANCH   3   6
HETATM    6  N1  UNL     1     -44.317  19.007 -12.006  1.00  0.00    -0.387 N 
ATOM      7  H1  UNL     1     -43.436  18.669 -12.391  1.00  0.00     0.156 HD
BRANCH   6   8
HETATM    8  C4  UNL     1     -45.536  18.286 -12.179  1.00  0.00     0.117 C 
BRANCH   8   9
HETATM    9  C5  UNL     1     -45.288  16.797 -12.187  1.00  0.00     0.025 C 
BRANCH   9  10
HETATM   10  C6  UNL     1     -44.752  16.227 -10.934  1.00  0.00     0.059 C 
BRANCH  10  11
HETATM   11  C7  UNL     1     -45.580  16.219  -9.746  1.00  0.00     0.016 A 
HETATM   12  N2  UNL     1     -45.373  17.233  -8.849  1.00  0.00    -0.356 N 
HETATM   13  C8  UNL     1     -46.083  17.348  -7.719  1.00  0.00     0.080 A 
ATOM     14  H2  UNL     1     -44.652  17.926  -9.049  1.00  0.00     0.166 HD
HETATM   15  C9  UNL     1     -45.849  18.378  -6.825  1.00  0.00     0.107 A 
HETATM   16  C17 UNL     1     -47.073  16.435  -7.407  1.00  0.00     0.034 A 
HETATM   17  C10 UNL     1     -46.561  18.520  -5.655  1.00  0.00     0.045 A 
HETATM   18  C11 UNL     1     -46.324  19.555  -4.741  1.00  0.00     0.079 A 
HETATM   19  C15 UNL     1     -47.556  17.596  -5.357  1.00  0.00     0.014 A 
HETATM   20  C12 UNL     1     -47.103  19.611  -3.563  1.00  0.00     0.037 A 
HETATM   21  C13 UNL     1     -48.073  18.692  -3.293  1.00  0.00     0.004 A 
HETATM   22  C14 UNL     1     -48.312  17.659  -4.207  1.00  0.00     0.015 A 
HETATM   23  C16 UNL     1     -47.810  16.559  -6.230  1.00  0.00     0.090 A 
HETATM   24  C18 UNL     1     -47.332  15.403  -8.251  1.00  0.00    -0.035 A 
HETATM   25  C19 UNL     1     -46.551  15.308  -9.449  1.00  0.00    -0.028 A 
HETATM   26  C23 UNL     1     -48.300  14.336  -8.129  1.00  0.00     0.040 C 
HETATM   27  C20 UNL     1     -46.739  14.183 -10.394  1.00  0.00     0.041 C 
HETATM   28  C21 UNL     1     -48.101  13.556 -10.408  1.00  0.00     0.005 C 
HETATM   29  C22 UNL     1     -49.056  14.283  -9.446  1.00  0.00     0.005 C 
BRANCH  15  30
HETATM   30  O2  UNL     1     -44.859  19.274  -7.147  1.00  0.00    -0.357 OA
ATOM     31  H2  UNL     1     -44.847  20.096  -6.670  1.00  0.00     0.217 HD
ENDBRANCH  15  30
BRANCH  18  32
HETATM   32  O3  UNL     1     -45.384  20.474  -4.963  1.00  0.00    -0.360 OA
ATOM     33  H3  UNL     1     -45.091  21.057  -4.273  1.00  0.00     0.217 HD
ENDBRANCH  18  32
BRANCH  23  34
HETATM   34  O4  UNL     1     -48.776  15.633  -5.981  1.00  0.00    -0.359 OA
ATOM     35  H4  UNL     1     -49.610  15.647  -6.435  1.00  0.00     0.217 HD
ENDBRANCH  23  34
ENDBRANCH  10  11
ENDBRANCH   9  10
ENDBRANCH   8   9
ENDBRANCH   6   8
ENDBRANCH   3   6
TORSDOF 9
ENDMDL
