MODEL 1
REMARK VINA RESULT: -7.702735032      0.000      0.000
REMARK  2 active torsions:
REMARK  status: ('A' for Active; 'I' for Inactive)
REMARK    1  A    between atoms: C5_10  and  N4_11 
REMARK    2  A    between atoms: N4_11  and  C6_13 
ROOT
HETATM    1  N1  UNL     1       4.722 -15.494   0.026  1.00  0.00    -0.079 NA
HETATM    2  C1  UNL     1       5.498 -14.663   0.892  1.00  0.00     0.160 A 
HETATM    3  C2  UNL     1       5.981 -15.164   2.020  1.00  0.00     0.107 A 
HETATM    4  N2  UNL     1       5.860 -16.403   2.526  1.00  0.00    -0.348 N 
ATOM      5  H2  UNL     1       5.350 -17.168   2.085  1.00  0.00     0.167 HD
HETATM    6  C3  UNL     1       6.508 -16.485   3.699  1.00  0.00     0.181 A 
HETATM    7  N3  UNL     1       7.037 -15.271   3.916  1.00  0.00    -0.347 N 
ATOM      8  H3  UNL     1       7.592 -15.020   4.734  1.00  0.00     0.167 HD
HETATM    9  C4  UNL     1       6.735 -14.417   2.897  1.00  0.00     0.109 A 
HETATM   10  C5  UNL     1       7.037 -13.136   2.681  1.00  0.00     0.147 A 
HETATM   11  N6  UNL     1       6.550 -12.538   1.491  1.00  0.00    -0.282 N 
ATOM     12  H6  UNL     1       6.755 -11.561   1.282  1.00  0.00     0.188 HD
HETATM   13  N7  UNL     1       5.784 -13.308   0.606  1.00  0.00    -0.284 N 
ATOM     14  H7  UNL     1       5.429 -12.888  -0.252  1.00  0.00     0.188 HD
ENDROOT
BRANCH  10  15
HETATM   15  N4  UNL     1       7.809 -12.415   3.603  1.00  0.00    -0.346 N 
ATOM     16  H4  UNL     1       8.794 -12.242   3.398  1.00  0.00     0.163 HD
BRANCH  15  17
HETATM   17  C6  UNL     1       7.256 -11.914   4.825  1.00  0.00     0.285 C 
HETATM   18  C7  UNL     1       6.472 -10.639   4.591  1.00  0.00     0.056 C 
HETATM   19  C8  UNL     1       6.331 -10.115   6.005  1.00  0.00     0.031 C 
HETATM   20  C9  UNL     1       7.582 -10.589   6.678  1.00  0.00     0.235 C 
HETATM   21  N5  UNL     1       8.270 -11.456   5.757  1.00  0.00    -0.054 N 
ATOM     22  H52 UNL     1       8.782 -12.213   6.210  1.00  0.00     0.279 HD
ATOM     23  H51 UNL     1       9.074 -11.020   5.306  1.00  0.00     0.279 HD
ENDBRANCH  15  17
ENDBRANCH  10  15
TORSDOF 2
ENDMDL
MODEL 2
REMARK VINA RESULT: -7.642859504      2.253      5.803
REMARK  2 active torsions:
REMARK  status: ('A' for Active; 'I' for Inactive)
REMARK    1  A    between atoms: C5_10  and  N4_11 
REMARK    2  A    between atoms: N4_11  and  C6_13 
ROOT
HETATM    1  N1  UNL     1       6.265 -10.745   4.993  1.00  0.00    -0.079 NA
HETATM    2  C1  UNL     1       6.306 -11.920   4.181  1.00  0.00     0.160 A 
HETATM    3  C2  UNL     1       5.728 -11.912   2.989  1.00  0.00     0.107 A 
HETATM    4  N2  UNL     1       5.063 -10.924   2.368  1.00  0.00    -0.348 N 
ATOM      5  H2  UNL     1       4.904  -9.993   2.754  1.00  0.00     0.167 HD
HETATM    6  C3  UNL     1       4.637 -11.342   1.165  1.00  0.00     0.181 A 
HETATM    7  N3  UNL     1       5.049 -12.613   1.047  1.00  0.00    -0.347 N 
ATOM      8  H3  UNL     1       4.874 -13.204   0.234  1.00  0.00     0.167 HD
HETATM    9  C4  UNL     1       5.732 -13.010   2.158  1.00  0.00     0.109 A 
HETATM   10  C5  UNL     1       6.317 -14.163   2.486  1.00  0.00     0.147 A 
HETATM   11  N6  UNL     1       6.955 -14.239   3.751  1.00  0.00    -0.282 N 
ATOM     12  H6  UNL     1       7.416 -15.099   4.047  1.00  0.00     0.188 HD
HETATM   13  N7  UNL     1       6.944 -13.115   4.587  1.00  0.00    -0.284 N 
ATOM     14  H7  UNL     1       7.400 -13.159   5.498  1.00  0.00     0.188 HD
ENDROOT
BRANCH  10  15
HETATM   15  N4  UNL     1       6.296 -15.255   1.607  1.00  0.00    -0.346 N 
ATOM     16  H4  UNL     1       5.597 -15.986   1.740  1.00  0.00     0.163 HD
BRANCH  15  17
HETATM   17  C6  UNL     1       7.230 -15.375   0.528  1.00  0.00     0.285 C 
HETATM   18  C7  UNL     1       6.522 -15.380  -0.812  1.00  0.00     0.056 C 
HETATM   19  C8  UNL     1       7.618 -15.890  -1.723  1.00  0.00     0.031 C 
HETATM   20  C9  UNL     1       8.411 -16.800  -0.838  1.00  0.00     0.235 C 
HETATM   21  N5  UNL     1       7.897 -16.663   0.500  1.00  0.00    -0.054 N 
ATOM     22  H52 UNL     1       8.606 -16.774   1.225  1.00  0.00     0.279 HD
ATOM     23  H51 UNL     1       7.303 -17.439   0.793  1.00  0.00     0.279 HD
ENDBRANCH  15  17
ENDBRANCH  10  15
TORSDOF 2
ENDMDL
MODEL 3
REMARK VINA RESULT: -7.456596591      1.863      5.683
REMARK  2 active torsions:
REMARK  status: ('A' for Active; 'I' for Inactive)
REMARK    1  A    between atoms: C5_10  and  N4_11 
REMARK    2  A    between atoms: N4_11  and  C6_13 
ROOT
HETATM    1  N1  UNL     1       6.156 -10.338   4.997  1.00  0.00    -0.079 NA
HETATM    2  C1  UNL     1       6.368 -11.539   4.252  1.00  0.00     0.160 A 
HETATM    3  C2  UNL     1       5.899 -11.634   3.017  1.00  0.00     0.107 A 
HETATM    4  N2  UNL     1       5.212 -10.735   2.292  1.00  0.00    -0.348 N 
ATOM      5  H2  UNL     1       4.944  -9.805   2.615  1.00  0.00     0.167 HD
HETATM    6  C3  UNL     1       4.932 -11.240   1.080  1.00  0.00     0.181 A 
HETATM    7  N3  UNL     1       5.457 -12.474   1.062  1.00  0.00    -0.347 N 
ATOM      8  H3  UNL     1       5.405 -13.113   0.268  1.00  0.00     0.167 HD
HETATM    9  C4  UNL     1       6.069 -12.762   2.246  1.00  0.00     0.109 A 
HETATM   10  C5  UNL     1       6.715 -13.845   2.681  1.00  0.00     0.147 A 
HETATM   11  N6  UNL     1       7.242 -13.809   3.998  1.00  0.00    -0.282 N 
ATOM     12  H6  UNL     1       7.744 -14.613   4.376  1.00  0.00     0.188 HD
HETATM   13  N7  UNL     1       7.063 -12.656   4.772  1.00  0.00    -0.284 N 
ATOM     14  H7  UNL     1       7.438 -12.620   5.719  1.00  0.00     0.188 HD
ENDROOT
BRANCH  10  15
HETATM   15  N4  UNL     1       6.864 -14.971   1.860  1.00  0.00    -0.346 N 
ATOM     16  H4  UNL     1       7.475 -14.913   1.045  1.00  0.00     0.163 HD
BRANCH  15  17
HETATM   17  C6  UNL     1       6.184 -16.201   2.133  1.00  0.00     0.285 C 
HETATM   18  C7  UNL     1       6.960 -17.051   3.118  1.00  0.00     0.056 C 
HETATM   19  C8  UNL     1       6.281 -18.394   2.950  1.00  0.00     0.031 C 
HETATM   20  C9  UNL     1       5.860 -18.393   1.513  1.00  0.00     0.235 C 
HETATM   21  N5  UNL     1       6.129 -17.082   0.981  1.00  0.00    -0.054 N 
ATOM     22  H52 UNL     1       5.463 -16.784   0.268  1.00  0.00     0.279 HD
ATOM     23  H51 UNL     1       6.961 -17.041   0.393  1.00  0.00     0.279 HD
ENDBRANCH  15  17
ENDBRANCH  10  15
TORSDOF 2
ENDMDL
MODEL 4
REMARK VINA RESULT: -7.379110440      1.705      5.043
REMARK  2 active torsions:
REMARK  status: ('A' for Active; 'I' for Inactive)
REMARK    1  A    between atoms: C5_10  and  N4_11 
REMARK    2  A    between atoms: N4_11  and  C6_13 
ROOT
HETATM    1  N1  UNL     1       4.967 -10.497   1.250  1.00  0.00    -0.079 NA
HETATM    2  C1  UNL     1       5.490 -11.710   1.796  1.00  0.00     0.160 A 
HETATM    3  C2  UNL     1       6.039 -11.701   3.001  1.00  0.00     0.107 A 
HETATM    4  N2  UNL     1       6.202 -10.680   3.860  1.00  0.00    -0.348 N 
ATOM      5  H2  UNL     1       5.907  -9.719   3.687  1.00  0.00     0.167 HD
HETATM    6  C3  UNL     1       6.809 -11.111   4.977  1.00  0.00     0.181 A 
HETATM    7  N3  UNL     1       7.023 -12.423   4.799  1.00  0.00    -0.347 N 
ATOM      8  H3  UNL     1       7.473 -13.033   5.482  1.00  0.00     0.167 HD
HETATM    9  C4  UNL     1       6.560 -12.834   3.584  1.00  0.00     0.109 A 
HETATM   10  C5  UNL     1       6.554 -14.025   2.983  1.00  0.00     0.147 A 
HETATM   11  N6  UNL     1       5.980 -14.103   1.688  1.00  0.00    -0.282 N 
ATOM     12  H6  UNL     1       5.951 -14.992   1.188  1.00  0.00     0.188 HD
HETATM   13  N7  UNL     1       5.452 -12.943   1.106  1.00  0.00    -0.284 N 
ATOM     14  H7  UNL     1       5.038 -12.989   0.176  1.00  0.00     0.188 HD
ENDROOT
BRANCH  10  15
HETATM   15  N4  UNL     1       7.096 -15.152   3.616  1.00  0.00    -0.346 N 
ATOM     16  H4  UNL     1       7.521 -15.047   4.538  1.00  0.00     0.163 HD
BRANCH  15  17
HETATM   17  C6  UNL     1       7.071 -16.447   3.006  1.00  0.00     0.285 C 
HETATM   18  C7  UNL     1       5.968 -17.307   3.588  1.00  0.00     0.056 C 
HETATM   19  C8  UNL     1       6.375 -18.682   3.099  1.00  0.00     0.031 C 
HETATM   20  C9  UNL     1       7.869 -18.605   3.051  1.00  0.00     0.235 C 
HETATM   21  N5  UNL     1       8.245 -17.241   3.321  1.00  0.00    -0.054 N 
ATOM     22  H52 UNL     1       9.086 -16.942   2.829  1.00  0.00     0.279 HD
ATOM     23  H51 UNL     1       8.599 -17.093   4.266  1.00  0.00     0.279 HD
ENDBRANCH  15  17
ENDBRANCH  10  15
TORSDOF 2
ENDMDL
MODEL 5
REMARK VINA RESULT: -7.269367439      1.303      2.521
REMARK  2 active torsions:
REMARK  status: ('A' for Active; 'I' for Inactive)
REMARK    1  A    between atoms: C5_10  and  N4_11 
REMARK    2  A    between atoms: N4_11  and  C6_13 
ROOT
HETATM    1  N1  UNL     1       4.584 -15.406   0.353  1.00  0.00    -0.079 NA
HETATM    2  C1  UNL     1       5.415 -14.639   1.228  1.00  0.00     0.160 A 
HETATM    3  C2  UNL     1       5.206 -13.337   1.352  1.00  0.00     0.107 A 
HETATM    4  N2  UNL     1       4.287 -12.557   0.758  1.00  0.00    -0.348 N 
ATOM      5  H2  UNL     1       3.586 -12.883   0.093  1.00  0.00     0.167 HD
HETATM    6  C3  UNL     1       4.428 -11.287   1.168  1.00  0.00     0.181 A 
HETATM    7  N3  UNL     1       5.455 -11.287   2.031  1.00  0.00    -0.347 N 
ATOM      8  H3  UNL     1       5.804 -10.460   2.515  1.00  0.00     0.167 HD
HETATM    9  C4  UNL     1       5.970 -12.541   2.176  1.00  0.00     0.109 A 
HETATM   10  C5  UNL     1       6.976 -13.018   2.912  1.00  0.00     0.147 A 
HETATM   11  N6  UNL     1       7.252 -14.407   2.825  1.00  0.00    -0.282 N 
ATOM     12  H6  UNL     1       8.011 -14.818   3.368  1.00  0.00     0.188 HD
HETATM   13  N7  UNL     1       6.468 -15.205   1.982  1.00  0.00    -0.284 N 
ATOM     14  H7  UNL     1       6.658 -16.204   1.913  1.00  0.00     0.188 HD
ENDROOT
BRANCH  10  15
HETATM   15  N4  UNL     1       7.726 -12.170   3.739  1.00  0.00    -0.346 N 
ATOM     16  H4  UNL     1       8.637 -11.843   3.417  1.00  0.00     0.163 HD
BRANCH  15  17
HETATM   17  C6  UNL     1       7.250 -11.749   5.022  1.00  0.00     0.285 C 
HETATM   18  C7  UNL     1       6.472 -10.454   4.922  1.00  0.00     0.056 C 
HETATM   19  C8  UNL     1       6.419 -10.027   6.374  1.00  0.00     0.031 C 
HETATM   20  C9  UNL     1       7.699 -10.558   6.939  1.00  0.00     0.235 C 
HETATM   21  N5  UNL     1       8.322 -11.366   5.922  1.00  0.00    -0.054 N 
ATOM     22  H52 UNL     1       8.850 -12.157   6.293  1.00  0.00     0.279 HD
ATOM     23  H51 UNL     1       9.105 -10.908   5.456  1.00  0.00     0.279 HD
ENDBRANCH  15  17
ENDBRANCH  10  15
TORSDOF 2
ENDMDL
