MODEL 1
REMARK VINA RESULT: -7.137473249      0.000      0.000
REMARK  4 active torsions:
REMARK  status: ('A' for Active; 'I' for Inactive)
REMARK    1  A    between atoms: N1_2  and  C2_4 
REMARK    2  A    between atoms: C3_7  and  N3_8 
REMARK    3  A    between atoms: C5_17  and  O1_18 
REMARK    4  A    between atoms: C7_22  and  N8_23 
ROOT
HETATM    1  C2  UNL     1       7.759 -11.385   5.075  1.00  0.00     0.706 A 
HETATM    2  N2  UNL     1       7.389 -12.619   4.697  1.00  0.00    -0.019 N 
ATOM      3  H2  UNL     1       7.260 -13.333   5.415  1.00  0.00     0.203 HD
HETATM    4  C3  UNL     1       7.181 -12.949   3.418  1.00  0.00     0.736 A 
HETATM    5  N7  UNL     1       7.349 -12.014   2.482  1.00  0.00    -0.020 N 
ATOM      6  H7  UNL     1       7.196 -12.245   1.500  1.00  0.00     0.203 HD
HETATM    7  C7  UNL     1       7.721 -10.766   2.825  1.00  0.00     0.705 A 
HETATM    8  N9  UNL     1       7.927 -10.452   4.136  1.00  0.00    -0.022 N 
ATOM      9  H9  UNL     1       8.209  -9.507   4.398  1.00  0.00     0.203 HD
ENDROOT
BRANCH   4  10
HETATM   10  N3  UNL     1       6.789 -14.263   3.054  1.00  0.00    -0.031 N 
HETATM   11  N4  UNL     1       7.128 -15.371   3.695  1.00  0.00    -0.108 N 
HETATM   12  C4  UNL     1       6.581 -16.441   3.076  1.00  0.00     0.694 A 
ATOM     13  H4  UNL     1       7.713 -15.410   4.530  1.00  0.00     0.207 HD
HETATM   14  N5  UNL     1       6.692 -17.701   3.417  1.00  0.00    -0.233 N 
HETATM   15  N6  UNL     1       5.902 -15.925   2.038  1.00  0.00    -0.152 N 
ATOM     16  H52 UNL     1       7.208 -18.092   4.205  1.00  0.00     0.174 HD
ATOM     17  H51 UNL     1       6.280 -18.508   2.950  1.00  0.00     0.174 HD
HETATM   18  C5  UNL     1       6.014 -14.585   2.002  1.00  0.00     0.276 A 
ATOM     19  H6  UNL     1       5.371 -16.477   1.366  1.00  0.00     0.188 HD
BRANCH  18  20
HETATM   20  O1  UNL     1       5.448 -13.699   1.069  1.00  0.00    -0.325 OA
HETATM   21  C6  UNL     1       4.114 -13.280   1.289  1.00  0.00     0.213 C 
ENDBRANCH  18  20
ENDBRANCH   4  10
BRANCH   1  22
HETATM   22  N1  UNL     1       7.949 -11.114   6.334  1.00  0.00    -0.229 N 
HETATM   23  C1  UNL     1       7.537  -9.815   6.863  1.00  0.00     0.165 C 
ATOM     24  H1  UNL     1       8.382 -11.805   6.948  1.00  0.00     0.177 HD
ENDBRANCH   1  22
BRANCH   7  25
HETATM   25  N8  UNL     1       7.894  -9.834   1.945  1.00  0.00    -0.234 N 
ATOM     26  H82 UNL     1       8.585  -9.992   1.212  1.00  0.00     0.174 HD
ATOM     27  H81 UNL     1       7.365  -8.963   1.968  1.00  0.00     0.174 HD
ENDBRANCH   7  25
TORSDOF 4
ENDMDL
MODEL 2
REMARK VINA RESULT: -6.901728561      1.465      5.193
REMARK  4 active torsions:
REMARK  status: ('A' for Active; 'I' for Inactive)
REMARK    1  A    between atoms: N1_2  and  C2_4 
REMARK    2  A    between atoms: C3_7  and  N3_8 
REMARK    3  A    between atoms: C5_17  and  O1_18 
REMARK    4  A    between atoms: C7_22  and  N8_23 
ROOT
HETATM    1  C2  UNL     1       6.868 -15.686   2.971  1.00  0.00     0.706 A 
HETATM    2  N2  UNL     1       7.085 -14.533   3.625  1.00  0.00    -0.019 N 
ATOM      3  H2  UNL     1       7.652 -14.551   4.473  1.00  0.00     0.203 HD
HETATM    4  C3  UNL     1       6.587 -13.364   3.209  1.00  0.00     0.736 A 
HETATM    5  N7  UNL     1       5.845 -13.345   2.101  1.00  0.00    -0.020 N 
ATOM      6  H7  UNL     1       5.455 -12.463   1.767  1.00  0.00     0.203 HD
HETATM    7  C7  UNL     1       5.606 -14.483   1.421  1.00  0.00     0.705 A 
HETATM    8  N9  UNL     1       6.125 -15.663   1.864  1.00  0.00    -0.022 N 
ATOM      9  H9  UNL     1       5.945 -16.526   1.350  1.00  0.00     0.203 HD
ENDROOT
BRANCH   4  10
HETATM   10  N3  UNL     1       6.837 -12.164   3.924  1.00  0.00    -0.031 N 
HETATM   11  N4  UNL     1       7.294 -12.091   5.164  1.00  0.00    -0.108 N 
HETATM   12  C4  UNL     1       7.413 -10.795   5.529  1.00  0.00     0.694 A 
ATOM     13  H4  UNL     1       7.522 -12.891   5.754  1.00  0.00     0.207 HD
HETATM   14  N5  UNL     1       7.832 -10.327   6.679  1.00  0.00    -0.233 N 
HETATM   15  N6  UNL     1       7.007 -10.098   4.455  1.00  0.00    -0.152 N 
ATOM     16  H52 UNL     1       8.141 -10.856   7.495  1.00  0.00     0.174 HD
ATOM     17  H51 UNL     1       7.922  -9.349   6.955  1.00  0.00     0.174 HD
HETATM   18  C5  UNL     1       6.647 -10.919   3.452  1.00  0.00     0.276 A 
ATOM     19  H6  UNL     1       6.977  -9.081   4.406  1.00  0.00     0.188 HD
BRANCH  18  20
HETATM   20  O1  UNL     1       6.171 -10.564   2.178  1.00  0.00    -0.325 OA
HETATM   21  C6  UNL     1       7.128 -10.284   1.174  1.00  0.00     0.213 C 
ENDBRANCH  18  20
ENDBRANCH   4  10
BRANCH   1  22
HETATM   22  N1  UNL     1       7.376 -16.799   3.419  1.00  0.00    -0.229 N 
HETATM   23  C1  UNL     1       7.044 -18.060   2.758  1.00  0.00     0.165 C 
ATOM     24  H1  UNL     1       8.001 -16.790   4.225  1.00  0.00     0.177 HD
ENDBRANCH   1  22
BRANCH   7  25
HETATM   25  N8  UNL     1       4.891 -14.502   0.343  1.00  0.00    -0.234 N 
ATOM     26  H82 UNL     1       4.690 -15.407  -0.081  1.00  0.00     0.174 HD
ATOM     27  H81 UNL     1       4.532 -13.648  -0.083  1.00  0.00     0.174 HD
ENDBRANCH   7  25
TORSDOF 4
ENDMDL
MODEL 3
REMARK VINA RESULT: -6.883768901      2.604      3.677
REMARK  4 active torsions:
REMARK  status: ('A' for Active; 'I' for Inactive)
REMARK    1  A    between atoms: N1_2  and  C2_4 
REMARK    2  A    between atoms: C3_7  and  N3_8 
REMARK    3  A    between atoms: C5_17  and  O1_18 
REMARK    4  A    between atoms: C7_22  and  N8_23 
ROOT
HETATM    1  C2  UNL     1       6.601 -12.893   3.105  1.00  0.00     0.706 A 
HETATM    2  N2  UNL     1       6.680 -13.872   2.189  1.00  0.00    -0.019 N 
ATOM      3  H2  UNL     1       7.252 -14.691   2.396  1.00  0.00     0.203 HD
HETATM    4  C3  UNL     1       6.039 -13.815   1.016  1.00  0.00     0.736 A 
HETATM    5  N7  UNL     1       5.293 -12.743   0.748  1.00  0.00    -0.020 N 
ATOM      6  H7  UNL     1       4.797 -12.680  -0.141  1.00  0.00     0.203 HD
HETATM    7  C7  UNL     1       5.192 -11.742   1.644  1.00  0.00     0.705 A 
HETATM    8  N9  UNL     1       5.854 -11.822   2.832  1.00  0.00    -0.022 N 
ATOM      9  H9  UNL     1       5.779 -11.064   3.512  1.00  0.00     0.203 HD
ENDROOT
BRANCH   4  10
HETATM   10  N3  UNL     1       6.144 -14.869   0.071  1.00  0.00    -0.031 N 
HETATM   11  N4  UNL     1       6.405 -14.720  -1.218  1.00  0.00    -0.108 N 
HETATM   12  C4  UNL     1       6.432 -15.931  -1.819  1.00  0.00     0.694 A 
ATOM     13  H4  UNL     1       6.562 -13.828  -1.686  1.00  0.00     0.207 HD
HETATM   14  N5  UNL     1       6.658 -16.187  -3.084  1.00  0.00    -0.233 N 
HETATM   15  N6  UNL     1       6.176 -16.807  -0.834  1.00  0.00    -0.152 N 
ATOM     16  H52 UNL     1       6.853 -15.521  -3.832  1.00  0.00     0.174 HD
ATOM     17  H51 UNL     1       6.678 -17.100  -3.538  1.00  0.00     0.174 HD
HETATM   18  C5  UNL     1       5.995 -16.179   0.341  1.00  0.00     0.276 A 
ATOM     19  H6  UNL     1       6.125 -17.818  -0.961  1.00  0.00     0.188 HD
BRANCH  18  20
HETATM   20  O1  UNL     1       5.709 -16.755   1.591  1.00  0.00    -0.325 OA
HETATM   21  C6  UNL     1       6.727 -17.519   2.209  1.00  0.00     0.213 C 
ENDBRANCH  18  20
ENDBRANCH   4  10
BRANCH   1  22
HETATM   22  N1  UNL     1       7.245 -12.997   4.232  1.00  0.00    -0.229 N 
HETATM   23  C1  UNL     1       7.559 -11.791   4.996  1.00  0.00     0.165 C 
ATOM     24  H1  UNL     1       7.527 -13.913   4.579  1.00  0.00     0.177 HD
ENDBRANCH   1  22
BRANCH   7  25
HETATM   25  N8  UNL     1       4.478 -10.687   1.417  1.00  0.00    -0.234 N 
ATOM     26  H82 UNL     1       3.490 -10.715   1.669  1.00  0.00     0.174 HD
ATOM     27  H81 UNL     1       4.874  -9.845   1.001  1.00  0.00     0.174 HD
ENDBRANCH   7  25
TORSDOF 4
ENDMDL
MODEL 4
REMARK VINA RESULT: -6.869782624      2.318      5.838
REMARK  4 active torsions:
REMARK  status: ('A' for Active; 'I' for Inactive)
REMARK    1  A    between atoms: N1_2  and  C2_4 
REMARK    2  A    between atoms: C3_7  and  N3_8 
REMARK    3  A    between atoms: C5_17  and  O1_18 
REMARK    4  A    between atoms: C7_22  and  N8_23 
ROOT
HETATM    1  C2  UNL     1       6.313 -15.260  -0.799  1.00  0.00     0.706 A 
HETATM    2  N2  UNL     1       6.509 -14.268   0.085  1.00  0.00    -0.019 N 
ATOM      3  H2  UNL     1       6.679 -13.326  -0.266  1.00  0.00     0.203 HD
HETATM    4  C3  UNL     1       6.490 -14.468   1.407  1.00  0.00     0.736 A 
HETATM    5  N7  UNL     1       6.267 -15.701   1.863  1.00  0.00    -0.020 N 
ATOM      6  H7  UNL     1       6.249 -15.875   2.868  1.00  0.00     0.203 HD
HETATM    7  C7  UNL     1       6.067 -16.719   1.005  1.00  0.00     0.705 A 
HETATM    8  N9  UNL     1       6.091 -16.492  -0.339  1.00  0.00    -0.022 N 
ATOM      9  H9  UNL     1       5.940 -17.262  -0.991  1.00  0.00     0.203 HD
ENDROOT
BRANCH   4  10
HETATM   10  N3  UNL     1       6.700 -13.396   2.313  1.00  0.00    -0.031 N 
HETATM   11  N4  UNL     1       7.419 -13.460   3.423  1.00  0.00    -0.108 N 
HETATM   12  C4  UNL     1       7.405 -12.259   4.043  1.00  0.00     0.694 A 
ATOM     13  H4  UNL     1       7.908 -14.289   3.759  1.00  0.00     0.207 HD
HETATM   14  N5  UNL     1       8.001 -11.935   5.165  1.00  0.00    -0.233 N 
HETATM   15  N6  UNL     1       6.648 -11.476   3.257  1.00  0.00    -0.152 N 
ATOM     16  H52 UNL     1       8.576 -12.529   5.762  1.00  0.00     0.174 HD
ATOM     17  H51 UNL     1       7.991 -11.029   5.633  1.00  0.00     0.174 HD
HETATM   18  C5  UNL     1       6.201 -12.153   2.184  1.00  0.00     0.276 A 
ATOM     19  H6  UNL     1       6.440 -10.497   3.447  1.00  0.00     0.188 HD
BRANCH  18  20
HETATM   20  O1  UNL     1       5.387 -11.676   1.143  1.00  0.00    -0.325 OA
HETATM   21  C6  UNL     1       3.993 -11.610   1.378  1.00  0.00     0.213 C 
ENDBRANCH  18  20
ENDBRANCH   4  10
BRANCH   1  22
HETATM   22  N1  UNL     1       6.341 -15.013  -2.077  1.00  0.00    -0.229 N 
HETATM   23  C1  UNL     1       7.558 -15.291  -2.839  1.00  0.00     0.165 C 
ATOM     24  H1  UNL     1       5.520 -14.628  -2.544  1.00  0.00     0.177 HD
ENDBRANCH   1  22
BRANCH   7  25
HETATM   25  N8  UNL     1       5.849 -17.928   1.411  1.00  0.00    -0.234 N 
ATOM     26  H82 UNL     1       4.907 -18.166   1.720  1.00  0.00     0.174 HD
ATOM     27  H81 UNL     1       6.585 -18.634   1.429  1.00  0.00     0.174 HD
ENDBRANCH   7  25
TORSDOF 4
ENDMDL
MODEL 5
REMARK VINA RESULT: -6.851635384      1.615      2.844
REMARK  4 active torsions:
REMARK  status: ('A' for Active; 'I' for Inactive)
REMARK    1  A    between atoms: N1_2  and  C2_4 
REMARK    2  A    between atoms: C3_7  and  N3_8 
REMARK    3  A    between atoms: C5_17  and  O1_18 
REMARK    4  A    between atoms: C7_22  and  N8_23 
ROOT
HETATM    1  C2  UNL     1       5.838 -11.658   2.736  1.00  0.00     0.706 A 
HETATM    2  N2  UNL     1       5.911 -12.970   2.461  1.00  0.00    -0.019 N 
ATOM      3  H2  UNL     1       5.373 -13.337   1.675  1.00  0.00     0.203 HD
HETATM    4  C3  UNL     1       6.662 -13.815   3.176  1.00  0.00     0.736 A 
HETATM    5  N7  UNL     1       7.363 -13.333   4.203  1.00  0.00    -0.020 N 
ATOM      6  H7  UNL     1       7.942 -13.961   4.761  1.00  0.00     0.203 HD
HETATM    7  C7  UNL     1       7.312 -12.022   4.507  1.00  0.00     0.705 A 
HETATM    8  N9  UNL     1       6.540 -11.179   3.763  1.00  0.00    -0.022 N 
ATOM      9  H9  UNL     1       6.500 -10.186   3.993  1.00  0.00     0.203 HD
ENDROOT
BRANCH   4  10
HETATM   10  N3  UNL     1       6.717 -15.197   2.857  1.00  0.00    -0.031 N 
HETATM   11  N4  UNL     1       7.431 -16.105   3.503  1.00  0.00    -0.108 N 
HETATM   12  C4  UNL     1       7.249 -17.317   2.932  1.00  0.00     0.694 A 
ATOM     13  H4  UNL     1       8.028 -15.919   4.309  1.00  0.00     0.207 HD
HETATM   14  N5  UNL     1       7.788 -18.456   3.291  1.00  0.00    -0.233 N 
HETATM   15  N6  UNL     1       6.396 -17.093   1.918  1.00  0.00    -0.152 N 
ATOM     16  H52 UNL     1       8.435 -18.626   4.061  1.00  0.00     0.174 HD
ATOM     17  H51 UNL     1       7.651 -19.370   2.860  1.00  0.00     0.174 HD
HETATM   18  C5  UNL     1       6.053 -15.794   1.851  1.00  0.00     0.276 A 
ATOM     19  H6  UNL     1       6.054 -17.813   1.283  1.00  0.00     0.188 HD
BRANCH  18  20
HETATM   20  O1  UNL     1       5.187 -15.179   0.930  1.00  0.00    -0.325 OA
HETATM   21  C6  UNL     1       5.582 -15.158  -0.429  1.00  0.00     0.213 C 
ENDBRANCH  18  20
ENDBRANCH   4  10
BRANCH   1  22
HETATM   22  N1  UNL     1       5.092 -10.877   2.008  1.00  0.00    -0.229 N 
HETATM   23  C1  UNL     1       3.996 -11.449   1.227  1.00  0.00     0.165 C 
ATOM     24  H1  UNL     1       5.270  -9.873   1.984  1.00  0.00     0.177 HD
ENDBRANCH   1  22
BRANCH   7  25
HETATM   25  N8  UNL     1       7.979 -11.519   5.495  1.00  0.00    -0.234 N 
ATOM     26  H82 UNL     1       8.783 -10.931   5.279  1.00  0.00     0.174 HD
ATOM     27  H81 UNL     1       7.721 -11.695   6.466  1.00  0.00     0.174 HD
ENDBRANCH   7  25
TORSDOF 4
ENDMDL
