MODEL 1
REMARK VINA RESULT: -7.403595993      0.000      0.000
REMARK  6 active torsions:
REMARK  status: ('A' for Active; 'I' for Inactive)
REMARK    1  A    between atoms: C3_3  and  C4_4 
REMARK    2  A    between atoms: C4_4  and  N1_5 
REMARK    3  A    between atoms: N4_10  and  O1_11 
REMARK    4  A    between atoms: C7_17  and  N6_18 
REMARK    5  A    between atoms: C8_23  and  N8_24 
REMARK    6  A    between atoms: N8_24  and  N9_26 
ROOT
HETATM    1  C1  UNL     1       6.834 -15.891   3.011  1.00  0.00     0.054 C 
HETATM    2  C2  UNL     1       6.402 -14.600   2.413  1.00  0.00     0.009 A 
HETATM    3  C3  UNL     1       5.866 -14.545   1.159  1.00  0.00     0.056 A 
HETATM    4  N5  UNL     1       5.465 -13.336   0.677  1.00  0.00    -0.193 N 
ATOM      5  H5  UNL     1       5.063 -13.300  -0.260  1.00  0.00     0.184 HD
HETATM    6  C7  UNL     1       5.568 -12.191   1.364  1.00  0.00     0.677 A 
HETATM    7  N7  UNL     1       6.099 -12.259   2.595  1.00  0.00    -0.175 N 
ATOM      8  H7  UNL     1       6.189 -11.401   3.140  1.00  0.00     0.186 HD
HETATM    9  C8  UNL     1       6.514 -13.414   3.133  1.00  0.00     0.142 A 
ENDROOT
BRANCH   3  10
HETATM   10  C4  UNL     1       5.706 -15.710   0.285  1.00  0.00     0.210 C 
BRANCH  10  11
HETATM   11  N1  UNL     1       6.516 -15.576  -0.908  1.00  0.00    -0.256 N 
HETATM   12  N2  UNL     1       6.194 -15.045  -2.062  1.00  0.00    -0.222 N 
HETATM   13  N3  UNL     1       7.219 -15.119  -2.884  1.00  0.00    -0.200 N 
ATOM     14  H2  UNL     1       5.287 -14.637  -2.288  1.00  0.00     0.210 HD
HETATM   15  N4  UNL     1       8.240 -15.707  -2.278  1.00  0.00    -0.134 N 
ATOM     16  H3  UNL     1       7.226 -14.775  -3.844  1.00  0.00     0.212 HD
HETATM   17  C5  UNL     1       7.790 -15.993  -1.027  1.00  0.00     0.144 A 
HETATM   18  C6  UNL     1       8.640 -16.658   0.001  1.00  0.00     0.095 C 
BRANCH  15  19
HETATM   19  O1  UNL     1       9.492 -15.978  -2.784  1.00  0.00    -0.265 OA
ATOM     20  H1  UNL     1      10.195 -16.475  -2.383  1.00  0.00     0.247 HD
ENDBRANCH  15  19
ENDBRANCH  10  11
ENDBRANCH   3  10
BRANCH   9  21
HETATM   21  N8  UNL     1       7.026 -13.491   4.317  1.00  0.00    -0.291 N 
ATOM     22  H8  UNL     1       7.037 -14.390   4.799  1.00  0.00     0.188 HD
BRANCH  21  23
HETATM   23  N9  UNL     1       7.568 -12.363   4.951  1.00  0.00    -0.344 N 
ATOM     24  H92 UNL     1       7.439 -11.452   4.512  1.00  0.00     0.176 HD
ATOM     25  H91 UNL     1       8.080 -12.445   5.829  1.00  0.00     0.176 HD
ENDBRANCH  21  23
ENDBRANCH   9  21
BRANCH   6  26
HETATM   26  N6  UNL     1       5.166 -11.064   0.848  1.00  0.00    -0.234 N 
ATOM     27  H62 UNL     1       5.004 -10.236   1.422  1.00  0.00     0.174 HD
ATOM     28  H61 UNL     1       5.000 -10.977  -0.155  1.00  0.00     0.174 HD
ENDBRANCH   6  26
TORSDOF 6
ENDMDL
MODEL 2
REMARK VINA RESULT: -7.149733020      2.673      5.004
REMARK  6 active torsions:
REMARK  status: ('A' for Active; 'I' for Inactive)
REMARK    1  A    between atoms: C3_3  and  C4_4 
REMARK    2  A    between atoms: C4_4  and  N1_5 
REMARK    3  A    between atoms: N4_10  and  O1_11 
REMARK    4  A    between atoms: C7_17  and  N6_18 
REMARK    5  A    between atoms: C8_23  and  N8_24 
REMARK    6  A    between atoms: N8_24  and  N9_26 
ROOT
HETATM    1  C1  UNL     1       6.973 -15.976   2.986  1.00  0.00     0.054 C 
HETATM    2  C2  UNL     1       6.902 -15.705   1.525  1.00  0.00     0.009 A 
HETATM    3  C3  UNL     1       5.937 -14.894   1.001  1.00  0.00     0.056 A 
HETATM    4  N5  UNL     1       5.941 -14.664  -0.341  1.00  0.00    -0.193 N 
ATOM      5  H5  UNL     1       5.219 -14.056  -0.728  1.00  0.00     0.184 HD
HETATM    6  C7  UNL     1       6.839 -15.191  -1.182  1.00  0.00     0.677 A 
HETATM    7  N7  UNL     1       7.783 -15.987  -0.654  1.00  0.00    -0.175 N 
ATOM      8  H7  UNL     1       8.480 -16.401  -1.273  1.00  0.00     0.186 HD
HETATM    9  C8  UNL     1       7.840 -16.257   0.657  1.00  0.00     0.142 A 
ENDROOT
BRANCH   3  10
HETATM   10  C4  UNL     1       4.879 -14.263   1.794  1.00  0.00     0.210 C 
BRANCH  10  11
HETATM   11  N1  UNL     1       5.020 -12.822   1.790  1.00  0.00    -0.256 N 
HETATM   12  N2  UNL     1       4.485 -11.949   0.973  1.00  0.00    -0.222 N 
HETATM   13  N3  UNL     1       4.863 -10.735   1.312  1.00  0.00    -0.200 N 
ATOM     14  H2  UNL     1       3.869 -12.175   0.192  1.00  0.00     0.210 HD
HETATM   15  N4  UNL     1       5.663 -10.792   2.368  1.00  0.00    -0.134 N 
ATOM     16  H3  UNL     1       4.583  -9.879   0.835  1.00  0.00     0.212 HD
HETATM   17  C5  UNL     1       5.758 -12.116   2.666  1.00  0.00     0.144 A 
HETATM   18  C6  UNL     1       6.565 -12.626   3.810  1.00  0.00     0.095 C 
BRANCH  15  19
HETATM   19  O1  UNL     1       6.273  -9.752   3.033  1.00  0.00    -0.265 OA
ATOM     20  H1  UNL     1       7.110  -9.343   2.845  1.00  0.00     0.247 HD
ENDBRANCH  15  19
ENDBRANCH  10  11
ENDBRANCH   3  10
BRANCH   9  21
HETATM   21  N8  UNL     1       8.742 -17.022   1.176  1.00  0.00    -0.291 N 
ATOM     22  H8  UNL     1       8.455 -17.823   1.739  1.00  0.00     0.188 HD
BRANCH  21  23
HETATM   23  N9  UNL     1      10.109 -16.773   0.981  1.00  0.00    -0.344 N 
ATOM     24  H92 UNL     1      10.778 -17.483   1.278  1.00  0.00     0.176 HD
ATOM     25  H91 UNL     1      10.433 -15.907   0.552  1.00  0.00     0.176 HD
ENDBRANCH  21  23
ENDBRANCH   9  21
BRANCH   6  26
HETATM   26  N6  UNL     1       6.791 -14.933  -2.458  1.00  0.00    -0.234 N 
ATOM     27  H62 UNL     1       6.312 -15.549  -3.115  1.00  0.00     0.174 HD
ATOM     28  H61 UNL     1       7.238 -14.099  -2.840  1.00  0.00     0.174 HD
ENDBRANCH   6  26
TORSDOF 6
ENDMDL
MODEL 3
REMARK VINA RESULT: -6.913973966      2.824      5.022
REMARK  6 active torsions:
REMARK  status: ('A' for Active; 'I' for Inactive)
REMARK    1  A    between atoms: C3_3  and  C4_4 
REMARK    2  A    between atoms: C4_4  and  N1_5 
REMARK    3  A    between atoms: N4_10  and  O1_11 
REMARK    4  A    between atoms: C7_17  and  N6_18 
REMARK    5  A    between atoms: C8_23  and  N8_24 
REMARK    6  A    between atoms: N8_24  and  N9_26 
ROOT
HETATM    1  C1  UNL     1       6.629 -15.308   3.427  1.00  0.00     0.054 C 
HETATM    2  C2  UNL     1       6.541 -15.261   1.943  1.00  0.00     0.009 A 
HETATM    3  C3  UNL     1       6.021 -14.175   1.299  1.00  0.00     0.056 A 
HETATM    4  N5  UNL     1       5.993 -14.180  -0.063  1.00  0.00    -0.193 N 
ATOM      5  H5  UNL     1       5.604 -13.366  -0.540  1.00  0.00     0.184 HD
HETATM    6  C7  UNL     1       6.446 -15.194  -0.811  1.00  0.00     0.677 A 
HETATM    7  N7  UNL     1       6.955 -16.256  -0.165  1.00  0.00    -0.175 N 
ATOM      8  H7  UNL     1       7.307 -17.041  -0.712  1.00  0.00     0.186 HD
HETATM    9  C8  UNL     1       7.015 -16.318   1.172  1.00  0.00     0.142 A 
ENDROOT
BRANCH   3  10
HETATM   10  C4  UNL     1       5.472 -13.002   1.984  1.00  0.00     0.210 C 
BRANCH  10  11
HETATM   11  N1  UNL     1       6.419 -11.907   1.973  1.00  0.00    -0.256 N 
HETATM   12  N2  UNL     1       6.800 -11.163   0.965  1.00  0.00    -0.222 N 
HETATM   13  N3  UNL     1       7.678 -10.274   1.377  1.00  0.00    -0.200 N 
ATOM     14  H2  UNL     1       6.467 -11.259   0.005  1.00  0.00     0.210 HD
HETATM   15  N4  UNL     1       7.891 -10.422   2.677  1.00  0.00    -0.134 N 
ATOM     16  H3  UNL     1       8.127  -9.575   0.785  1.00  0.00     0.212 HD
HETATM   17  C5  UNL     1       7.091 -11.457   3.049  1.00  0.00     0.144 A 
HETATM   18  C6  UNL     1       7.017 -11.951   4.453  1.00  0.00     0.095 C 
BRANCH  15  19
HETATM   19  O1  UNL     1       8.732  -9.697   3.492  1.00  0.00    -0.265 OA
ATOM     20  H1  UNL     1       8.514  -9.201   4.272  1.00  0.00     0.247 HD
ENDBRANCH  15  19
ENDBRANCH  10  11
ENDBRANCH   3  10
BRANCH   9  21
HETATM   21  N8  UNL     1       7.501 -17.335   1.804  1.00  0.00    -0.291 N 
ATOM     22  H8  UNL     1       6.868 -17.972   2.288  1.00  0.00     0.188 HD
BRANCH  21  23
HETATM   23  N9  UNL     1       8.882 -17.579   1.839  1.00  0.00    -0.344 N 
ATOM     24  H92 UNL     1       9.436 -17.127   2.567  1.00  0.00     0.176 HD
ATOM     25  H91 UNL     1       9.329 -18.190   1.156  1.00  0.00     0.176 HD
ENDBRANCH  21  23
ENDBRANCH   9  21
BRANCH   6  26
HETATM   26  N6  UNL     1       6.392 -15.140  -2.112  1.00  0.00    -0.234 N 
ATOM     27  H62 UNL     1       5.993 -14.339  -2.602  1.00  0.00     0.174 HD
ATOM     28  H61 UNL     1       6.750 -15.907  -2.682  1.00  0.00     0.174 HD
ENDBRANCH   6  26
TORSDOF 6
ENDMDL
MODEL 4
REMARK VINA RESULT: -6.873545963      1.410      1.829
REMARK  6 active torsions:
REMARK  status: ('A' for Active; 'I' for Inactive)
REMARK    1  A    between atoms: C3_3  and  C4_4 
REMARK    2  A    between atoms: C4_4  and  N1_5 
REMARK    3  A    between atoms: N4_10  and  O1_11 
REMARK    4  A    between atoms: C7_17  and  N6_18 
REMARK    5  A    between atoms: C8_23  and  N8_24 
REMARK    6  A    between atoms: N8_24  and  N9_26 
ROOT
HETATM    1  C1  UNL     1       6.615 -15.157   3.773  1.00  0.00     0.054 C 
HETATM    2  C2  UNL     1       6.717 -13.908   2.971  1.00  0.00     0.009 A 
HETATM    3  C3  UNL     1       6.467 -13.906   1.629  1.00  0.00     0.056 A 
HETATM    4  N5  UNL     1       6.550 -12.726   0.955  1.00  0.00    -0.193 N 
ATOM      5  H5  UNL     1       6.360 -12.729  -0.047  1.00  0.00     0.184 HD
HETATM    6  C7  UNL     1       6.867 -11.561   1.534  1.00  0.00     0.677 A 
HETATM    7  N7  UNL     1       7.112 -11.577   2.854  1.00  0.00    -0.175 N 
ATOM      8  H7  UNL     1       7.355 -10.703   3.320  1.00  0.00     0.186 HD
HETATM    9  C8  UNL     1       7.047 -12.702   3.581  1.00  0.00     0.142 A 
ENDROOT
BRANCH   3  10
HETATM   10  C4  UNL     1       6.126 -15.105   0.858  1.00  0.00     0.210 C 
BRANCH  10  11
HETATM   11  N1  UNL     1       7.314 -15.711   0.295  1.00  0.00    -0.256 N 
HETATM   12  N2  UNL     1       8.307 -16.299   0.915  1.00  0.00    -0.222 N 
HETATM   13  N3  UNL     1       9.192 -16.719   0.036  1.00  0.00    -0.200 N 
ATOM     14  H2  UNL     1       8.383 -16.414   1.926  1.00  0.00     0.210 HD
HETATM   15  N4  UNL     1       8.791 -16.409  -1.189  1.00  0.00    -0.134 N 
ATOM     16  H3  UNL     1      10.056 -17.210   0.264  1.00  0.00     0.212 HD
HETATM   17  C5  UNL     1       7.602 -15.772  -1.018  1.00  0.00     0.144 A 
HETATM   18  C6  UNL     1       6.795 -15.258  -2.161  1.00  0.00     0.095 C 
BRANCH  15  19
HETATM   19  O1  UNL     1       9.424 -16.666  -2.384  1.00  0.00    -0.265 OA
ATOM     20  H1  UNL     1       9.034 -16.900  -3.219  1.00  0.00     0.247 HD
ENDBRANCH  15  19
ENDBRANCH  10  11
ENDBRANCH   3  10
BRANCH   9  21
HETATM   21  N8  UNL     1       7.281 -12.730   4.851  1.00  0.00    -0.291 N 
ATOM     22  H8  UNL     1       6.802 -13.417   5.433  1.00  0.00     0.188 HD
BRANCH  21  23
HETATM   23  N9  UNL     1       8.181 -11.832   5.446  1.00  0.00    -0.344 N 
ATOM     24  H92 UNL     1       7.819 -11.157   6.118  1.00  0.00     0.176 HD
ATOM     25  H91 UNL     1       9.174 -11.849   5.216  1.00  0.00     0.176 HD
ENDBRANCH  21  23
ENDBRANCH   9  21
BRANCH   6  26
HETATM   26  N6  UNL     1       6.930 -10.463   0.836  1.00  0.00    -0.234 N 
ATOM     27  H62 UNL     1       6.295  -9.682   1.000  1.00  0.00     0.174 HD
ATOM     28  H61 UNL     1       7.624 -10.353   0.096  1.00  0.00     0.174 HD
ENDBRANCH   6  26
TORSDOF 6
ENDMDL
MODEL 5
REMARK VINA RESULT: -6.738495424      1.335      1.483
REMARK  6 active torsions:
REMARK  status: ('A' for Active; 'I' for Inactive)
REMARK    1  A    between atoms: C3_3  and  C4_4 
REMARK    2  A    between atoms: C4_4  and  N1_5 
REMARK    3  A    between atoms: N4_10  and  O1_11 
REMARK    4  A    between atoms: C7_17  and  N6_18 
REMARK    5  A    between atoms: C8_23  and  N8_24 
REMARK    6  A    between atoms: N8_24  and  N9_26 
ROOT
HETATM    1  C1  UNL     1       7.114 -16.261   2.451  1.00  0.00     0.054 C 
HETATM    2  C2  UNL     1       6.367 -15.048   2.023  1.00  0.00     0.009 A 
HETATM    3  C3  UNL     1       5.629 -15.041   0.875  1.00  0.00     0.056 A 
HETATM    4  N5  UNL     1       4.946 -13.908   0.550  1.00  0.00    -0.193 N 
ATOM      5  H5  UNL     1       4.394 -13.908  -0.308  1.00  0.00     0.184 HD
HETATM    6  C7  UNL     1       4.958 -12.795   1.294  1.00  0.00     0.677 A 
HETATM    7  N7  UNL     1       5.688 -12.815   2.420  1.00  0.00    -0.175 N 
ATOM      8  H7  UNL     1       5.714 -11.980   3.005  1.00  0.00     0.186 HD
HETATM    9  C8  UNL     1       6.385 -13.895   2.802  1.00  0.00     0.142 A 
ENDROOT
BRANCH   3  10
HETATM   10  C4  UNL     1       5.535 -16.176  -0.046  1.00  0.00     0.210 C 
BRANCH  10  11
HETATM   11  N1  UNL     1       6.191 -15.878  -1.302  1.00  0.00    -0.256 N 
HETATM   12  N2  UNL     1       6.807 -14.781  -1.665  1.00  0.00    -0.222 N 
HETATM   13  N3  UNL     1       7.269 -14.916  -2.890  1.00  0.00    -0.200 N 
ATOM     14  H2  UNL     1       6.914 -13.948  -1.085  1.00  0.00     0.210 HD
HETATM   15  N4  UNL     1       6.958 -16.116  -3.358  1.00  0.00    -0.134 N 
ATOM     16  H3  UNL     1       7.788 -14.203  -3.402  1.00  0.00     0.212 HD
HETATM   17  C5  UNL     1       6.276 -16.721  -2.348  1.00  0.00     0.144 A 
HETATM   18  C6  UNL     1       5.746 -18.110  -2.455  1.00  0.00     0.095 C 
BRANCH  15  19
HETATM   19  O1  UNL     1       7.251 -16.654  -4.591  1.00  0.00    -0.265 OA
ATOM     20  H1  UNL     1       7.865 -17.349  -4.800  1.00  0.00     0.247 HD
ENDBRANCH  15  19
ENDBRANCH  10  11
ENDBRANCH   3  10
BRANCH   9  21
HETATM   21  N8  UNL     1       7.092 -13.926   3.882  1.00  0.00    -0.291 N 
ATOM     22  H8  UNL     1       7.504 -14.809   4.185  1.00  0.00     0.188 HD
BRANCH  21  23
HETATM   23  N9  UNL     1       7.305 -12.770   4.647  1.00  0.00    -0.344 N 
ATOM     24  H92 UNL     1       6.986 -12.764   5.616  1.00  0.00     0.176 HD
ATOM     25  H91 UNL     1       7.766 -11.951   4.252  1.00  0.00     0.176 HD
ENDBRANCH  21  23
ENDBRANCH   9  21
BRANCH   6  26
HETATM   26  N6  UNL     1       4.282 -11.742   0.931  1.00  0.00    -0.234 N 
ATOM     27  H62 UNL     1       3.871 -11.660   0.000  1.00  0.00     0.174 HD
ATOM     28  H61 UNL     1       4.146 -10.961   1.573  1.00  0.00     0.174 HD
ENDBRANCH   6  26
TORSDOF 6
ENDMDL
