MODEL 1
REMARK VINA RESULT: -7.001226545      0.000      0.000
REMARK  4 active torsions:
REMARK  status: ('A' for Active; 'I' for Inactive)
REMARK    1  A    between atoms: C4_9  and  C5_10 
REMARK    2  A    between atoms: N3_11  and  N4_13 
REMARK    3  A    between atoms: N4_13  and  C6_15 
REMARK    4  A    between atoms: N6_20  and  N7_21 
ROOT
HETATM    1  N4  UNL     1       5.885 -14.908  -1.522  1.00  0.00    -0.131 N 
ATOM      2  H4  UNL     1       5.031 -14.418  -1.790  1.00  0.00     0.205 HD
ENDROOT
BRANCH   1   3
HETATM    3  N3  UNL     1       6.260 -14.895  -0.183  1.00  0.00    -0.297 N 
HETATM    4  C5  UNL     1       5.951 -13.997   0.654  1.00  0.00     0.126 C 
ATOM      5  H3  UNL     1       6.830 -15.672   0.152  1.00  0.00     0.186 HD
BRANCH   4   6
HETATM    6  C4  UNL     1       6.418 -14.116   2.028  1.00  0.00     0.074 A 
HETATM    7  C2  UNL     1       7.011 -13.156   2.818  1.00  0.00     0.039 A 
HETATM    8  C1  UNL     1       7.300 -11.758   2.398  1.00  0.00     0.071 C 
HETATM    9  N1  UNL     1       7.294 -13.680   4.034  1.00  0.00    -0.301 N 
HETATM   10  N2  UNL     1       6.897 -14.921   4.023  1.00  0.00    -0.266 N 
ATOM     11  H1  UNL     1       7.734 -13.194   4.815  1.00  0.00     0.186 HD
HETATM   12  C3  UNL     1       6.358 -15.253   2.842  1.00  0.00     0.273 A 
ATOM     13  H2  UNL     1       6.987 -15.559   4.814  1.00  0.00     0.190 HD
HETATM   14  O1  UNL     1       5.882 -16.350   2.489  1.00  0.00    -0.266 OA
ENDBRANCH   4   6
ENDBRANCH   1   3
BRANCH   1  15
HETATM   15  C6  UNL     1       6.561 -15.507  -2.442  1.00  0.00     0.717 A 
HETATM   16  N5  UNL     1       7.696 -15.166  -3.052  1.00  0.00    -0.136 N 
HETATM   17  C7  UNL     1       8.049 -16.106  -3.967  1.00  0.00     0.375 A 
ATOM     18  H5  UNL     1       8.227 -14.316  -2.859  1.00  0.00     0.189 HD
HETATM   19  O2  UNL     1       9.070 -16.083  -4.712  1.00  0.00    -0.243 OA
HETATM   20  N6  UNL     1       7.085 -17.036  -3.894  1.00  0.00    -0.134 N 
HETATM   21  N8  UNL     1       6.176 -16.686  -2.972  1.00  0.00    -0.105 N 
ATOM     22  H8  UNL     1       5.342 -17.216  -2.718  1.00  0.00     0.208 HD
BRANCH  20  23
HETATM   23  N7  UNL     1       7.055 -18.207  -4.682  1.00  0.00    -0.319 N 
ATOM     24  H72 UNL     1       6.671 -18.282  -5.624  1.00  0.00     0.179 HD
ATOM     25  H71 UNL     1       7.422 -19.109  -4.380  1.00  0.00     0.179 HD
ENDBRANCH  20  23
ENDBRANCH   1  15
TORSDOF 4
ENDMDL
MODEL 2
REMARK VINA RESULT: -6.925973638      2.808      6.776
REMARK  4 active torsions:
REMARK  status: ('A' for Active; 'I' for Inactive)
REMARK    1  A    between atoms: C4_9  and  C5_10 
REMARK    2  A    between atoms: N3_11  and  N4_13 
REMARK    3  A    between atoms: N4_13  and  C6_15 
REMARK    4  A    between atoms: N6_20  and  N7_21 
ROOT
HETATM    1  N4  UNL     1       5.938 -12.240   0.855  1.00  0.00    -0.131 N 
ATOM      2  H4  UNL     1       5.382 -11.624   0.262  1.00  0.00     0.205 HD
ENDROOT
BRANCH   1   3
HETATM    3  N3  UNL     1       6.260 -13.505   0.374  1.00  0.00    -0.297 N 
HETATM    4  C5  UNL     1       5.675 -14.580   0.699  1.00  0.00     0.126 C 
ATOM      5  H3  UNL     1       7.029 -13.572  -0.293  1.00  0.00     0.186 HD
BRANCH   4   6
HETATM    6  C4  UNL     1       6.123 -15.836   0.113  1.00  0.00     0.074 A 
HETATM    7  C2  UNL     1       6.365 -17.037   0.743  1.00  0.00     0.039 A 
HETATM    8  C1  UNL     1       6.209 -17.288   2.201  1.00  0.00     0.071 C 
HETATM    9  N1  UNL     1       6.768 -17.954  -0.168  1.00  0.00    -0.301 N 
HETATM   10  N2  UNL     1       6.783 -17.365  -1.330  1.00  0.00    -0.266 N 
ATOM     11  H1  UNL     1       7.015 -18.925   0.020  1.00  0.00     0.186 HD
HETATM   12  C3  UNL     1       6.404 -16.083  -1.235  1.00  0.00     0.273 A 
ATOM     13  H2  UNL     1       7.050 -17.823  -2.202  1.00  0.00     0.190 HD
HETATM   14  O1  UNL     1       6.305 -15.236  -2.144  1.00  0.00    -0.266 OA
ENDBRANCH   4   6
ENDBRANCH   1   3
BRANCH   1  15
HETATM   15  C6  UNL     1       6.306 -11.807   2.013  1.00  0.00     0.717 A 
HETATM   16  N5  UNL     1       5.756 -10.901   2.821  1.00  0.00    -0.136 N 
HETATM   17  C7  UNL     1       6.493 -10.759   3.953  1.00  0.00     0.375 A 
ATOM     18  H5  UNL     1       4.900 -10.385   2.617  1.00  0.00     0.189 HD
HETATM   19  O2  UNL     1       6.243  -9.982   4.919  1.00  0.00    -0.243 OA
HETATM   20  N6  UNL     1       7.516 -11.614   3.807  1.00  0.00    -0.134 N 
HETATM   21  N8  UNL     1       7.416 -12.257   2.634  1.00  0.00    -0.105 N 
ATOM     22  H8  UNL     1       8.063 -12.960   2.276  1.00  0.00     0.208 HD
BRANCH  20  23
HETATM   23  N7  UNL     1       8.539 -11.793   4.763  1.00  0.00    -0.319 N 
ATOM     24  H72 UNL     1       8.833 -11.108   5.459  1.00  0.00     0.179 HD
ATOM     25  H71 UNL     1       9.094 -12.644   4.853  1.00  0.00     0.179 HD
ENDBRANCH  20  23
ENDBRANCH   1  15
TORSDOF 4
ENDMDL
MODEL 3
REMARK VINA RESULT: -6.922678201      2.222      2.697
REMARK  4 active torsions:
REMARK  status: ('A' for Active; 'I' for Inactive)
REMARK    1  A    between atoms: C4_9  and  C5_10 
REMARK    2  A    between atoms: N3_11  and  N4_13 
REMARK    3  A    between atoms: N4_13  and  C6_15 
REMARK    4  A    between atoms: N6_20  and  N7_21 
ROOT
HETATM    1  N4  UNL     1       5.943 -14.849  -0.839  1.00  0.00    -0.131 N 
ATOM      2  H4  UNL     1       4.994 -15.204  -0.961  1.00  0.00     0.205 HD
ENDROOT
BRANCH   1   3
HETATM    3  N3  UNL     1       6.181 -13.942   0.187  1.00  0.00    -0.297 N 
HETATM    4  C5  UNL     1       5.306 -13.500   0.990  1.00  0.00     0.126 C 
ATOM      5  H3  UNL     1       7.137 -13.605   0.303  1.00  0.00     0.186 HD
BRANCH   4   6
HETATM    6  C4  UNL     1       5.703 -12.549   2.019  1.00  0.00     0.074 A 
HETATM    7  C2  UNL     1       6.334 -12.799   3.218  1.00  0.00     0.039 A 
HETATM    8  C1  UNL     1       6.746 -14.141   3.707  1.00  0.00     0.071 C 
HETATM    9  N1  UNL     1       6.521 -11.634   3.883  1.00  0.00    -0.301 N 
HETATM   10  N2  UNL     1       6.031 -10.682   3.141  1.00  0.00    -0.266 N 
ATOM     11  H1  UNL     1       6.963 -11.522   4.795  1.00  0.00     0.186 HD
HETATM   12  C3  UNL     1       5.520 -11.162   1.999  1.00  0.00     0.273 A 
ATOM     13  H2  UNL     1       6.035  -9.694   3.398  1.00  0.00     0.190 HD
HETATM   14  O1  UNL     1       4.976 -10.535   1.069  1.00  0.00    -0.266 OA
ENDBRANCH   4   6
ENDBRANCH   1   3
BRANCH   1  15
HETATM   15  C6  UNL     1       6.861 -15.265  -1.645  1.00  0.00     0.717 A 
HETATM   16  N5  UNL     1       6.962 -15.177  -2.971  1.00  0.00    -0.136 N 
HETATM   17  C7  UNL     1       8.111 -15.760  -3.402  1.00  0.00     0.375 A 
ATOM     18  H5  UNL     1       6.273 -14.733  -3.578  1.00  0.00     0.189 HD
HETATM   19  O2  UNL     1       8.505 -15.845  -4.601  1.00  0.00    -0.243 OA
HETATM   20  N6  UNL     1       8.709 -16.208  -2.289  1.00  0.00    -0.134 N 
HETATM   21  N8  UNL     1       7.961 -15.915  -1.214  1.00  0.00    -0.105 N 
ATOM     22  H8  UNL     1       8.184 -16.143  -0.245  1.00  0.00     0.208 HD
BRANCH  20  23
HETATM   23  N7  UNL     1       9.945 -16.888  -2.274  1.00  0.00    -0.319 N 
ATOM     24  H72 UNL     1      10.483 -17.168  -3.095  1.00  0.00     0.179 HD
ATOM     25  H71 UNL     1      10.432 -17.171  -1.424  1.00  0.00     0.179 HD
ENDBRANCH  20  23
ENDBRANCH   1  15
TORSDOF 4
ENDMDL
MODEL 4
REMARK VINA RESULT: -6.893898125      2.898      6.739
REMARK  4 active torsions:
REMARK  status: ('A' for Active; 'I' for Inactive)
REMARK    1  A    between atoms: C4_9  and  C5_10 
REMARK    2  A    between atoms: N3_11  and  N4_13 
REMARK    3  A    between atoms: N4_13  and  C6_15 
REMARK    4  A    between atoms: N6_20  and  N7_21 
ROOT
HETATM    1  N4  UNL     1       6.022 -12.401   0.890  1.00  0.00    -0.131 N 
ATOM      2  H4  UNL     1       5.907 -11.750   0.113  1.00  0.00     0.205 HD
ENDROOT
BRANCH   1   3
HETATM    3  N3  UNL     1       5.815 -13.756   0.652  1.00  0.00    -0.297 N 
HETATM    4  C5  UNL     1       6.594 -14.510  -0.002  1.00  0.00     0.126 C 
ATOM      5  H3  UNL     1       4.967 -14.175   1.034  1.00  0.00     0.186 HD
BRANCH   4   6
HETATM    6  C4  UNL     1       6.246 -15.914  -0.172  1.00  0.00     0.074 A 
HETATM    7  C2  UNL     1       6.222 -16.657  -1.331  1.00  0.00     0.039 A 
HETATM    8  C1  UNL     1       6.561 -16.143  -2.686  1.00  0.00     0.071 C 
HETATM    9  N1  UNL     1       5.842 -17.925  -1.050  1.00  0.00    -0.301 N 
HETATM   10  N2  UNL     1       5.632 -17.991   0.234  1.00  0.00    -0.266 N 
ATOM     11  H1  UNL     1       5.738 -18.688  -1.719  1.00  0.00     0.186 HD
HETATM   12  C3  UNL     1       5.857 -16.812   0.829  1.00  0.00     0.273 A 
ATOM     13  H2  UNL     1       5.333 -18.835   0.724  1.00  0.00     0.190 HD
HETATM   14  O1  UNL     1       5.753 -16.521   2.037  1.00  0.00    -0.266 OA
ENDBRANCH   4   6
ENDBRANCH   1   3
BRANCH   1  15
HETATM   15  C6  UNL     1       6.352 -11.927   2.043  1.00  0.00     0.717 A 
HETATM   16  N5  UNL     1       5.791 -10.973   2.787  1.00  0.00    -0.136 N 
HETATM   17  C7  UNL     1       6.484 -10.800   3.942  1.00  0.00     0.375 A 
ATOM     18  H5  UNL     1       4.958 -10.447   2.524  1.00  0.00     0.189 HD
HETATM   19  O2  UNL     1       6.213  -9.975   4.863  1.00  0.00    -0.243 OA
HETATM   20  N6  UNL     1       7.490 -11.684   3.877  1.00  0.00    -0.134 N 
HETATM   21  N8  UNL     1       7.423 -12.375   2.730  1.00  0.00    -0.105 N 
ATOM     22  H8  UNL     1       8.066 -13.108   2.430  1.00  0.00     0.208 HD
BRANCH  20  23
HETATM   23  N7  UNL     1       8.467 -11.845   4.884  1.00  0.00    -0.319 N 
ATOM     24  H72 UNL     1       8.465 -11.390   5.796  1.00  0.00     0.179 HD
ATOM     25  H71 UNL     1       9.286 -12.446   4.793  1.00  0.00     0.179 HD
ENDBRANCH  20  23
ENDBRANCH   1  15
TORSDOF 4
ENDMDL
MODEL 5
REMARK VINA RESULT: -6.810878440      1.488      1.761
REMARK  4 active torsions:
REMARK  status: ('A' for Active; 'I' for Inactive)
REMARK    1  A    between atoms: C4_9  and  C5_10 
REMARK    2  A    between atoms: N3_11  and  N4_13 
REMARK    3  A    between atoms: N4_13  and  C6_15 
REMARK    4  A    between atoms: N6_20  and  N7_21 
ROOT
HETATM    1  N4  UNL     1       6.006 -14.812  -0.935  1.00  0.00    -0.131 N 
ATOM      2  H4  UNL     1       5.027 -14.932  -1.194  1.00  0.00     0.205 HD
ENDROOT
BRANCH   1   3
HETATM    3  N3  UNL     1       6.298 -14.158   0.257  1.00  0.00    -0.297 N 
HETATM    4  C5  UNL     1       5.588 -14.197   1.305  1.00  0.00     0.126 C 
ATOM      5  H3  UNL     1       7.153 -13.601   0.290  1.00  0.00     0.186 HD
BRANCH   4   6
HETATM    6  C4  UNL     1       6.020 -13.458   2.483  1.00  0.00     0.074 A 
HETATM    7  C2  UNL     1       5.930 -12.106   2.727  1.00  0.00     0.039 A 
HETATM    8  C1  UNL     1       5.351 -11.103   1.794  1.00  0.00     0.071 C 
HETATM    9  N1  UNL     1       6.451 -11.829   3.946  1.00  0.00    -0.301 N 
HETATM   10  N2  UNL     1       6.856 -12.955   4.459  1.00  0.00    -0.266 N 
ATOM     11  H1  UNL     1       6.515 -10.910   4.381  1.00  0.00     0.186 HD
HETATM   12  C3  UNL     1       6.627 -13.983   3.630  1.00  0.00     0.273 A 
ATOM     13  H2  UNL     1       7.293 -13.044   5.377  1.00  0.00     0.190 HD
HETATM   14  O1  UNL     1       6.887 -15.190   3.802  1.00  0.00    -0.266 OA
ENDBRANCH   4   6
ENDBRANCH   1   3
BRANCH   1  15
HETATM   15  C6  UNL     1       6.911 -15.273  -1.731  1.00  0.00     0.717 A 
HETATM   16  N5  UNL     1       7.037 -15.181  -3.054  1.00  0.00    -0.136 N 
HETATM   17  C7  UNL     1       8.157 -15.825  -3.473  1.00  0.00     0.375 A 
ATOM     18  H5  UNL     1       6.384 -14.694  -3.668  1.00  0.00     0.189 HD
HETATM   19  O2  UNL     1       8.564 -15.924  -4.667  1.00  0.00    -0.243 OA
HETATM   20  N6  UNL     1       8.712 -16.316  -2.355  1.00  0.00    -0.134 N 
HETATM   21  N8  UNL     1       7.965 -15.988  -1.290  1.00  0.00    -0.105 N 
ATOM     22  H8  UNL     1       8.161 -16.236  -0.319  1.00  0.00     0.208 HD
BRANCH  20  23
HETATM   23  N7  UNL     1       9.908 -17.065  -2.328  1.00  0.00    -0.319 N 
ATOM     24  H72 UNL     1      10.413 -17.354  -1.490  1.00  0.00     0.179 HD
ATOM     25  H71 UNL     1      10.392 -17.397  -3.162  1.00  0.00     0.179 HD
ENDBRANCH  20  23
ENDBRANCH   1  15
TORSDOF 4
ENDMDL
