MODEL 1
REMARK VINA RESULT: -7.892031049      0.000      0.000
REMARK  3 active torsions:
REMARK  status: ('A' for Active; 'I' for Inactive)
REMARK    1  A    between atoms: C1_4  and  C2_5 
REMARK    2  A    between atoms: C1_4  and  N5_15 
REMARK    3  A    between atoms: C3_8  and  N3_9 
ROOT
HETATM    1  N1  UNL     1       7.928 -10.031   2.093  1.00  0.00    -0.381 N 
ATOM      2  H11 UNL     1       7.996 -10.235   1.096  1.00  0.00     0.157 HD
ATOM      3  H12 UNL     1       8.458  -9.289   2.549  1.00  0.00     0.157 HD
HETATM    4  C1  UNL     1       7.141 -10.733   2.828  1.00  0.00     0.169 C 
ENDROOT
BRANCH   4   5
HETATM    5  C2  UNL     1       7.045 -10.447   4.232  1.00  0.00     0.230 A 
HETATM    6  N2  UNL     1       8.067 -10.348   5.097  1.00  0.00    -0.163 N 
HETATM    7  C3  UNL     1       7.570 -10.070   6.315  1.00  0.00     0.698 A 
ATOM      8  H2  UNL     1       9.054 -10.466   4.869  1.00  0.00     0.186 HD
HETATM    9  N4  UNL     1       6.237 -10.001   6.183  1.00  0.00    -0.089 N 
HETATM   10  O1  UNL     1       5.966 -10.229   4.939  1.00  0.00    -0.201 OA
ATOM     11  H4  UNL     1       5.564  -9.805   6.923  1.00  0.00     0.213 HD
BRANCH   7  12
HETATM   12  N3  UNL     1       8.210  -9.895   7.424  1.00  0.00    -0.233 N 
ATOM     13  H32 UNL     1       9.168 -10.199   7.596  1.00  0.00     0.174 HD
ATOM     14  H31 UNL     1       7.886  -9.446   8.281  1.00  0.00     0.174 HD
ENDBRANCH   7  12
ENDBRANCH   4   5
BRANCH   4  15
HETATM   15  N5  UNL     1       6.400 -11.770   2.191  1.00  0.00    -0.196 N 
HETATM   16  C4  UNL     1       5.319 -11.541   1.436  1.00  0.00     0.340 A 
HETATM   17  O2  UNL     1       4.915 -10.374   1.261  1.00  0.00    -0.246 OA
HETATM   18  N6  UNL     1       4.642 -12.551   0.848  1.00  0.00    -0.260 N 
HETATM   19  C5  UNL     1       5.026 -13.829   0.996  1.00  0.00     0.332 A 
ATOM     20  H6  UNL     1       3.823 -12.339   0.279  1.00  0.00     0.175 HD
HETATM   21  O3  UNL     1       4.363 -14.748   0.427  1.00  0.00    -0.246 OA
HETATM   22  N7  UNL     1       6.110 -14.077   1.752  1.00  0.00    -0.260 N 
HETATM   23  C6  UNL     1       6.779 -13.061   2.335  1.00  0.00     0.340 A 
ATOM     24  H7  UNL     1       6.427 -15.037   1.885  1.00  0.00     0.175 HD
HETATM   25  O4  UNL     1       7.808 -13.296   3.053  1.00  0.00    -0.246 OA
ENDBRANCH   4  15
TORSDOF 3
ENDMDL
MODEL 2
REMARK VINA RESULT: -7.878771751      0.091      1.901
REMARK  3 active torsions:
REMARK  status: ('A' for Active; 'I' for Inactive)
REMARK    1  A    between atoms: C1_4  and  C2_5 
REMARK    2  A    between atoms: C1_4  and  N5_15 
REMARK    3  A    between atoms: C3_8  and  N3_9 
ROOT
HETATM    1  N1  UNL     1       7.872 -10.056   2.042  1.00  0.00    -0.381 N 
ATOM      2  H11 UNL     1       7.929 -10.270   1.047  1.00  0.00     0.157 HD
ATOM      3  H12 UNL     1       8.379  -9.285   2.478  1.00  0.00     0.157 HD
HETATM    4  C1  UNL     1       7.128 -10.779   2.802  1.00  0.00     0.169 C 
ENDROOT
BRANCH   4   5
HETATM    5  C2  UNL     1       7.047 -10.477   4.204  1.00  0.00     0.230 A 
HETATM    6  N2  UNL     1       8.064 -10.486   5.081  1.00  0.00    -0.163 N 
HETATM    7  C3  UNL     1       7.586 -10.150   6.291  1.00  0.00     0.698 A 
ATOM      8  H2  UNL     1       9.035 -10.711   4.865  1.00  0.00     0.186 HD
HETATM    9  N4  UNL     1       6.269  -9.937   6.142  1.00  0.00    -0.089 N 
HETATM   10  O1  UNL     1       5.990 -10.141   4.896  1.00  0.00    -0.201 OA
ATOM     11  H4  UNL     1       5.613  -9.666   6.874  1.00  0.00     0.213 HD
BRANCH   7  12
HETATM   12  N3  UNL     1       8.227 -10.040   7.408  1.00  0.00    -0.233 N 
ATOM     13  H32 UNL     1       9.159 -10.417   7.582  1.00  0.00     0.174 HD
ATOM     14  H31 UNL     1       7.930  -9.581   8.269  1.00  0.00     0.174 HD
ENDBRANCH   7  12
ENDBRANCH   4   5
BRANCH   4  15
HETATM   15  N5  UNL     1       6.419 -11.855   2.193  1.00  0.00    -0.196 N 
HETATM   16  C4  UNL     1       6.769 -13.138   2.337  1.00  0.00     0.340 A 
HETATM   17  O2  UNL     1       7.760 -13.441   3.032  1.00  0.00    -0.246 OA
HETATM   18  N6  UNL     1       6.072 -14.131   1.744  1.00  0.00    -0.260 N 
HETATM   19  C5  UNL     1       4.995 -13.871   0.985  1.00  0.00     0.332 A 
ATOM     20  H6  UNL     1       6.368 -15.097   1.876  1.00  0.00     0.175 HD
HETATM   21  O3  UNL     1       4.368 -14.832   0.445  1.00  0.00    -0.246 OA
HETATM   22  N7  UNL     1       4.630 -12.587   0.829  1.00  0.00    -0.260 N 
HETATM   23  C6  UNL     1       5.333 -11.602   1.426  1.00  0.00     0.340 A 
ATOM     24  H7  UNL     1       3.818 -12.356   0.258  1.00  0.00     0.175 HD
HETATM   25  O4  UNL     1       4.986 -10.383   1.278  1.00  0.00    -0.246 OA
ENDBRANCH   4  15
TORSDOF 3
ENDMDL
MODEL 3
REMARK VINA RESULT: -6.897316002      1.998      5.691
REMARK  3 active torsions:
REMARK  status: ('A' for Active; 'I' for Inactive)
REMARK    1  A    between atoms: C1_4  and  C2_5 
REMARK    2  A    between atoms: C1_4  and  N5_15 
REMARK    3  A    between atoms: C3_8  and  N3_9 
ROOT
HETATM    1  N1  UNL     1       4.309 -13.292   1.535  1.00  0.00    -0.381 N 
ATOM      2  H11 UNL     1       3.715 -12.613   2.011  1.00  0.00     0.157 HD
ATOM      3  H12 UNL     1       3.969 -13.916   0.803  1.00  0.00     0.157 HD
HETATM    4  C1  UNL     1       5.550 -13.382   1.858  1.00  0.00     0.169 C 
ENDROOT
BRANCH   4   5
HETATM    5  C2  UNL     1       6.387 -14.338   1.188  1.00  0.00     0.230 A 
HETATM    6  N2  UNL     1       7.325 -15.112   1.756  1.00  0.00    -0.163 N 
HETATM    7  C3  UNL     1       7.889 -15.870   0.800  1.00  0.00     0.698 A 
ATOM      8  H2  UNL     1       7.569 -15.124   2.747  1.00  0.00     0.186 HD
HETATM    9  N4  UNL     1       7.286 -15.549  -0.355  1.00  0.00    -0.089 N 
HETATM   10  O1  UNL     1       6.406 -14.641  -0.084  1.00  0.00    -0.201 OA
ATOM     11  H4  UNL     1       7.484 -15.946  -1.273  1.00  0.00     0.213 HD
BRANCH   7  12
HETATM   12  N3  UNL     1       8.829 -16.749   0.920  1.00  0.00    -0.233 N 
ATOM     13  H32 UNL     1       9.613 -16.676   1.568  1.00  0.00     0.174 HD
ATOM     14  H31 UNL     1       8.948 -17.626   0.412  1.00  0.00     0.174 HD
ENDBRANCH   7  12
ENDBRANCH   4   5
BRANCH   4  15
HETATM   15  N5  UNL     1       6.026 -12.510   2.880  1.00  0.00    -0.196 N 
HETATM   16  C4  UNL     1       6.513 -12.947   4.048  1.00  0.00     0.340 A 
HETATM   17  O2  UNL     1       6.567 -14.170   4.284  1.00  0.00    -0.246 OA
HETATM   18  N6  UNL     1       6.955 -12.089   4.993  1.00  0.00    -0.260 N 
HETATM   19  C5  UNL     1       6.925 -10.761   4.800  1.00  0.00     0.332 A 
ATOM     20  H6  UNL     1       7.320 -12.458   5.870  1.00  0.00     0.175 HD
HETATM   21  O3  UNL     1       7.349  -9.990   5.713  1.00  0.00    -0.246 OA
HETATM   22  N7  UNL     1       6.438 -10.305   3.633  1.00  0.00    -0.260 N 
HETATM   23  C6  UNL     1       5.999 -11.170   2.695  1.00  0.00     0.340 A 
ATOM     24  H7  UNL     1       6.400  -9.302   3.456  1.00  0.00     0.175 HD
HETATM   25  O4  UNL     1       5.537 -10.737   1.587  1.00  0.00    -0.246 OA
ENDBRANCH   4  15
TORSDOF 3
ENDMDL
MODEL 4
REMARK VINA RESULT: -6.813057175      0.916      2.154
REMARK  3 active torsions:
REMARK  status: ('A' for Active; 'I' for Inactive)
REMARK    1  A    between atoms: C1_4  and  C2_5 
REMARK    2  A    between atoms: C1_4  and  N5_15 
REMARK    3  A    between atoms: C3_8  and  N3_9 
ROOT
HETATM    1  N1  UNL     1       7.893 -10.284   1.814  1.00  0.00    -0.381 N 
ATOM      2  H11 UNL     1       7.754 -10.371   0.807  1.00  0.00     0.157 HD
ATOM      3  H12 UNL     1       8.480  -9.565   2.236  1.00  0.00     0.157 HD
HETATM    4  C1  UNL     1       7.308 -11.111   2.606  1.00  0.00     0.169 C 
ENDROOT
BRANCH   4   5
HETATM    5  C2  UNL     1       7.504 -10.988   4.023  1.00  0.00     0.230 A 
HETATM    6  N2  UNL     1       6.979 -10.045   4.822  1.00  0.00    -0.163 N 
HETATM    7  C3  UNL     1       7.396 -10.270   6.080  1.00  0.00     0.698 A 
ATOM      8  H2  UNL     1       6.367  -9.285   4.524  1.00  0.00     0.186 HD
HETATM    9  N4  UNL     1       8.180 -11.358   6.039  1.00  0.00    -0.089 N 
HETATM   10  O1  UNL     1       8.219 -11.752   4.808  1.00  0.00    -0.201 OA
ATOM     11  H4  UNL     1       8.656 -11.793   6.830  1.00  0.00     0.213 HD
BRANCH   7  12
HETATM   12  N3  UNL     1       7.123  -9.599   7.151  1.00  0.00    -0.233 N 
ATOM     13  H32 UNL     1       7.788  -9.405   7.899  1.00  0.00     0.174 HD
ATOM     14  H31 UNL     1       6.239  -9.168   7.422  1.00  0.00     0.174 HD
ENDBRANCH   7  12
ENDBRANCH   4   5
BRANCH   4  15
HETATM   15  N5  UNL     1       6.487 -12.115   2.016  1.00  0.00    -0.196 N 
HETATM   16  C4  UNL     1       6.778 -13.420   2.062  1.00  0.00     0.340 A 
HETATM   17  O2  UNL     1       7.811 -13.810   2.642  1.00  0.00    -0.246 OA
HETATM   18  N6  UNL     1       5.974 -14.343   1.491  1.00  0.00    -0.260 N 
HETATM   19  C5  UNL     1       4.848 -13.989   0.852  1.00  0.00     0.332 A 
ATOM     20  H6  UNL     1       6.228 -15.329   1.546  1.00  0.00     0.175 HD
HETATM   21  O3  UNL     1       4.121 -14.886   0.328  1.00  0.00    -0.246 OA
HETATM   22  N7  UNL     1       4.541 -12.681   0.796  1.00  0.00    -0.260 N 
HETATM   23  C6  UNL     1       5.350 -11.767   1.370  1.00  0.00     0.340 A 
ATOM     24  H7  UNL     1       3.693 -12.379   0.317  1.00  0.00     0.175 HD
HETATM   25  O4  UNL     1       5.058 -10.526   1.317  1.00  0.00    -0.246 OA
ENDBRANCH   4  15
TORSDOF 3
ENDMDL
MODEL 5
REMARK VINA RESULT: -6.786755476      1.864      5.549
REMARK  3 active torsions:
REMARK  status: ('A' for Active; 'I' for Inactive)
REMARK    1  A    between atoms: C1_4  and  C2_5 
REMARK    2  A    between atoms: C1_4  and  N5_15 
REMARK    3  A    between atoms: C3_8  and  N3_9 
ROOT
HETATM    1  N1  UNL     1       6.021 -10.887   0.875  1.00  0.00    -0.381 N 
ATOM      2  H11 UNL     1       5.941  -9.917   1.180  1.00  0.00     0.157 HD
ATOM      3  H12 UNL     1       5.772 -11.198  -0.065  1.00  0.00     0.157 HD
HETATM    4  C1  UNL     1       6.454 -11.775   1.697  1.00  0.00     0.169 C 
ENDROOT
BRANCH   4   5
HETATM    5  C2  UNL     1       6.567 -13.140   1.266  1.00  0.00     0.230 A 
HETATM    6  N2  UNL     1       6.117 -13.649   0.108  1.00  0.00    -0.163 N 
HETATM    7  C3  UNL     1       6.412 -14.960   0.075  1.00  0.00     0.698 A 
ATOM      8  H2  UNL     1       5.632 -13.130  -0.624  1.00  0.00     0.186 HD
HETATM    9  N4  UNL     1       7.045 -15.244   1.224  1.00  0.00    -0.089 N 
HETATM   10  O1  UNL     1       7.116 -14.143   1.900  1.00  0.00    -0.201 OA
ATOM     11  H4  UNL     1       7.402 -16.155   1.511  1.00  0.00     0.213 HD
BRANCH   7  12
HETATM   12  N3  UNL     1       6.158 -15.820  -0.856  1.00  0.00    -0.233 N 
ATOM     13  H32 UNL     1       5.500 -16.595  -0.768  1.00  0.00     0.174 HD
ATOM     14  H31 UNL     1       6.550 -15.873  -1.796  1.00  0.00     0.174 HD
ENDBRANCH   7  12
ENDBRANCH   4   5
BRANCH   4  15
HETATM   15  N5  UNL     1       6.803 -11.339   3.008  1.00  0.00    -0.196 N 
HETATM   16  C4  UNL     1       7.968 -10.751   3.299  1.00  0.00     0.340 A 
HETATM   17  O2  UNL     1       8.813 -10.559   2.402  1.00  0.00    -0.246 OA
HETATM   18  N6  UNL     1       8.263 -10.352   4.556  1.00  0.00    -0.260 N 
HETATM   19  C5  UNL     1       7.397 -10.529   5.566  1.00  0.00     0.332 A 
ATOM     20  H6  UNL     1       9.161  -9.906   4.740  1.00  0.00     0.175 HD
HETATM   21  O3  UNL     1       7.712 -10.140   6.731  1.00  0.00    -0.246 OA
HETATM   22  N7  UNL     1       6.221 -11.119   5.291  1.00  0.00    -0.260 N 
HETATM   23  C6  UNL     1       5.936 -11.514   4.032  1.00  0.00     0.340 A 
ATOM     24  H7  UNL     1       5.541 -11.269   6.036  1.00  0.00     0.175 HD
HETATM   25  O4  UNL     1       4.820 -12.074   3.771  1.00  0.00    -0.246 OA
ENDBRANCH   4  15
TORSDOF 3
ENDMDL
