MODEL 1
REMARK VINA RESULT: -7.212420245      0.000      0.000
REMARK  3 active torsions:
REMARK  status: ('A' for Active; 'I' for Inactive)
REMARK       I    between atoms: N1_1  and  C1_5 
REMARK       I    between atoms: C1_5  and  N2_6 
REMARK       I    between atoms: C1_5  and  N3_10 
REMARK    1  A    between atoms: N3_10  and  C2_12 
REMARK    2  A    between atoms: C4_16  and  O1_17 
REMARK    3  A    between atoms: O1_17  and  N5_18 
ROOT
HETATM    1  C2  UNL     1       6.631 -13.529   3.290  1.00  0.00     0.680 A 
HETATM    2  N4  UNL     1       7.321 -14.612   2.896  1.00  0.00    -0.199 N 
ATOM      3  H4  UNL     1       8.021 -15.016   3.518  1.00  0.00     0.183 HD
HETATM    4  C3  UNL     1       7.102 -15.170   1.696  1.00  0.00     0.146 A 
HETATM    5  C4  UNL     1       6.156 -14.631   0.843  1.00  0.00     0.130 A 
HETATM    6  C8  UNL     1       5.478 -13.522   1.297  1.00  0.00     0.146 A 
HETATM    7  N8  UNL     1       5.712 -12.987   2.493  1.00  0.00    -0.199 N 
ATOM      8  H8  UNL     1       5.190 -12.165   2.797  1.00  0.00     0.183 HD
ENDROOT
BRANCH   1   9
HETATM    9  N3  UNL     1       6.915 -13.075   4.453  1.00  0.00    -0.173 N 
HETATM   10  C1  UNL     1       7.439 -11.805   4.807  1.00  0.00     0.494 C 
HETATM   11  N1  UNL     1       8.765 -11.635   4.272  1.00  0.00    -0.032 N 
HETATM   12  N2  UNL     1       6.579 -10.691   4.466  1.00  0.00    -0.032 N 
ATOM     13  H13 UNL     1       8.742 -11.477   3.265  1.00  0.00     0.278 HD
ATOM     14  H12 UNL     1       9.173 -10.747   4.564  1.00  0.00     0.278 HD
ATOM     15  H11 UNL     1       9.370 -12.420   4.512  1.00  0.00     0.278 HD
ATOM     16  H23 UNL     1       6.987  -9.802   4.758  1.00  0.00     0.278 HD
ATOM     17  H22 UNL     1       6.556 -10.532   3.459  1.00  0.00     0.278 HD
ATOM     18  H21 UNL     1       5.639 -10.811   4.845  1.00  0.00     0.278 HD
ATOM     19  H3  UNL     1       6.743 -13.713   5.230  1.00  0.00     0.181 HD
ENDBRANCH   1   9
BRANCH   5  20
HETATM   20  O1  UNL     1       5.913 -15.185  -0.394  1.00  0.00    -0.234 OA
BRANCH  20  21
HETATM   21  N5  UNL     1       6.610 -14.842  -1.521  1.00  0.00    -0.247 N 
HETATM   22  C5  UNL     1       6.745 -15.714  -2.453  1.00  0.00     0.125 C 
HETATM   23  C6  UNL     1       6.213 -17.098  -2.444  1.00  0.00     0.311 C 
HETATM   24  N7  UNL     1       7.434 -15.529  -3.685  1.00  0.00    -0.354 N 
HETATM   25  N6  UNL     1       6.292 -17.460  -3.863  1.00  0.00    -0.053 N 
HETATM   26  C7  UNL     1       7.574 -16.860  -4.246  1.00  0.00     0.356 C 
ATOM     27  H62 UNL     1       6.200 -18.456  -4.064  1.00  0.00     0.279 HD
ATOM     28  H61 UNL     1       5.492 -17.178  -4.431  1.00  0.00     0.279 HD
ATOM     29  H7  UNL     1       7.760 -14.650  -4.088  1.00  0.00     0.162 HD
ATOM     30  H5  UNL     1       7.014 -13.911  -1.619  1.00  0.00     0.196 HD
ENDBRANCH  20  21
ENDBRANCH   5  20
TORSDOF 3
ENDMDL
MODEL 2
REMARK VINA RESULT: -7.175308661      0.182      1.146
REMARK  3 active torsions:
REMARK  status: ('A' for Active; 'I' for Inactive)
REMARK       I    between atoms: N1_1  and  C1_5 
REMARK       I    between atoms: C1_5  and  N2_6 
REMARK       I    between atoms: C1_5  and  N3_10 
REMARK    1  A    between atoms: N3_10  and  C2_12 
REMARK    2  A    between atoms: C4_16  and  O1_17 
REMARK    3  A    between atoms: O1_17  and  N5_18 
ROOT
HETATM    1  C2  UNL     1       6.597 -13.562   3.373  1.00  0.00     0.680 A 
HETATM    2  N4  UNL     1       5.678 -13.039   2.544  1.00  0.00    -0.199 N 
ATOM      3  H4  UNL     1       5.125 -12.237   2.849  1.00  0.00     0.183 HD
HETATM    4  C3  UNL     1       5.477 -13.556   1.324  1.00  0.00     0.146 A 
HETATM    5  C4  UNL     1       6.219 -14.643   0.899  1.00  0.00     0.130 A 
HETATM    6  C8  UNL     1       7.147 -15.139   1.788  1.00  0.00     0.146 A 
HETATM    7  N8  UNL     1       7.329 -14.608   2.995  1.00  0.00    -0.199 N 
ATOM      8  H8  UNL     1       8.026 -15.001   3.628  1.00  0.00     0.183 HD
ENDROOT
BRANCH   1   9
HETATM    9  N3  UNL     1       6.710 -12.994   4.515  1.00  0.00    -0.173 N 
HETATM   10  C1  UNL     1       7.262 -11.725   4.825  1.00  0.00     0.494 C 
HETATM   11  N1  UNL     1       8.669 -11.697   4.525  1.00  0.00    -0.032 N 
HETATM   12  N2  UNL     1       6.564 -10.609   4.221  1.00  0.00    -0.032 N 
ATOM     13  H13 UNL     1       8.834 -11.654   3.520  1.00  0.00     0.278 HD
ATOM     14  H12 UNL     1       9.089 -10.806   4.793  1.00  0.00     0.278 HD
ATOM     15  H11 UNL     1       9.161 -12.482   4.950  1.00  0.00     0.278 HD
ATOM     16  H23 UNL     1       6.984  -9.718   4.489  1.00  0.00     0.278 HD
ATOM     17  H22 UNL     1       6.729 -10.566   3.216  1.00  0.00     0.278 HD
ATOM     18  H21 UNL     1       5.566 -10.629   4.434  1.00  0.00     0.278 HD
ATOM     19  H3  UNL     1       6.356 -13.527   5.309  1.00  0.00     0.181 HD
ENDBRANCH   1   9
BRANCH   5  20
HETATM   20  O1  UNL     1       6.032 -15.192  -0.349  1.00  0.00    -0.234 OA
BRANCH  20  21
HETATM   21  N5  UNL     1       6.722 -14.786  -1.459  1.00  0.00    -0.247 N 
HETATM   22  C5  UNL     1       6.812 -15.587  -2.458  1.00  0.00     0.125 C 
HETATM   23  C6  UNL     1       6.232 -16.949  -2.546  1.00  0.00     0.311 C 
HETATM   24  N7  UNL     1       7.487 -15.331  -3.685  1.00  0.00    -0.354 N 
HETATM   25  N6  UNL     1       6.275 -17.203  -3.990  1.00  0.00    -0.053 N 
HETATM   26  C7  UNL     1       7.571 -16.618  -4.349  1.00  0.00     0.356 C 
ATOM     27  H62 UNL     1       6.146 -18.177  -4.265  1.00  0.00     0.279 HD
ATOM     28  H61 UNL     1       5.477 -16.851  -4.518  1.00  0.00     0.279 HD
ATOM     29  H7  UNL     1       7.836 -14.434  -4.025  1.00  0.00     0.162 HD
ATOM     30  H5  UNL     1       7.156 -13.864  -1.493  1.00  0.00     0.196 HD
ENDBRANCH  20  21
ENDBRANCH   5  20
TORSDOF 3
ENDMDL
MODEL 3
REMARK VINA RESULT: -7.115595055      1.408      1.857
REMARK  3 active torsions:
REMARK  status: ('A' for Active; 'I' for Inactive)
REMARK       I    between atoms: N1_1  and  C1_5 
REMARK       I    between atoms: C1_5  and  N2_6 
REMARK       I    between atoms: C1_5  and  N3_10 
REMARK    1  A    between atoms: N3_10  and  C2_12 
REMARK    2  A    between atoms: C4_16  and  O1_17 
REMARK    3  A    between atoms: O1_17  and  N5_18 
ROOT
HETATM    1  C2  UNL     1       6.219 -12.597   3.808  1.00  0.00     0.680 A 
HETATM    2  N4  UNL     1       5.498 -12.265   2.725  1.00  0.00    -0.199 N 
ATOM      3  H4  UNL     1       5.077 -11.337   2.666  1.00  0.00     0.183 HD
HETATM    4  C3  UNL     1       5.322 -13.136   1.721  1.00  0.00     0.146 A 
HETATM    5  C4  UNL     1       5.886 -14.397   1.789  1.00  0.00     0.130 A 
HETATM    6  C8  UNL     1       6.616 -14.684   2.921  1.00  0.00     0.146 A 
HETATM    7  N8  UNL     1       6.776 -13.802   3.905  1.00  0.00    -0.199 N 
ATOM      8  H8  UNL     1       7.325 -14.048   4.730  1.00  0.00     0.183 HD
ENDROOT
BRANCH   1   9
HETATM    9  N3  UNL     1       6.326 -11.693   4.709  1.00  0.00    -0.173 N 
HETATM   10  C1  UNL     1       7.485 -10.993   5.132  1.00  0.00     0.494 C 
HETATM   11  N1  UNL     1       8.429 -11.895   5.739  1.00  0.00    -0.032 N 
HETATM   12  N2  UNL     1       8.103 -10.187   4.100  1.00  0.00    -0.032 N 
ATOM     13  H13 UNL     1       8.891 -12.475   5.039  1.00  0.00     0.278 HD
ATOM     14  H12 UNL     1       9.244 -11.395   6.095  1.00  0.00     0.278 HD
ATOM     15  H11 UNL     1       7.994 -12.462   6.466  1.00  0.00     0.278 HD
ATOM     16  H23 UNL     1       8.918  -9.687   4.456  1.00  0.00     0.278 HD
ATOM     17  H22 UNL     1       8.565 -10.767   3.400  1.00  0.00     0.278 HD
ATOM     18  H21 UNL     1       7.433  -9.548   3.670  1.00  0.00     0.278 HD
ATOM     19  H3  UNL     1       5.460 -11.443   5.188  1.00  0.00     0.181 HD
ENDBRANCH   1   9
BRANCH   5  20
HETATM   20  O1  UNL     1       5.721 -15.310   0.771  1.00  0.00    -0.234 OA
BRANCH  20  21
HETATM   21  N5  UNL     1       5.668 -14.959  -0.551  1.00  0.00    -0.247 N 
HETATM   22  C5  UNL     1       6.615 -15.340  -1.329  1.00  0.00     0.125 C 
HETATM   23  C6  UNL     1       7.799 -16.145  -0.942  1.00  0.00     0.311 C 
HETATM   24  N7  UNL     1       6.721 -15.067  -2.722  1.00  0.00    -0.354 N 
HETATM   25  N6  UNL     1       8.279 -16.619  -2.244  1.00  0.00    -0.053 N 
HETATM   26  C7  UNL     1       8.080 -15.430  -3.078  1.00  0.00     0.356 C 
ATOM     27  H62 UNL     1       9.226 -16.999  -2.247  1.00  0.00     0.279 HD
ATOM     28  H61 UNL     1       7.837 -17.471  -2.588  1.00  0.00     0.279 HD
ATOM     29  H7  UNL     1       5.997 -14.696  -3.338  1.00  0.00     0.162 HD
ATOM     30  H5  UNL     1       4.891 -14.405  -0.911  1.00  0.00     0.196 HD
ENDBRANCH  20  21
ENDBRANCH   5  20
TORSDOF 3
ENDMDL
MODEL 4
REMARK VINA RESULT: -6.889569528      1.341      1.873
REMARK  3 active torsions:
REMARK  status: ('A' for Active; 'I' for Inactive)
REMARK       I    between atoms: N1_1  and  C1_5 
REMARK       I    between atoms: C1_5  and  N2_6 
REMARK       I    between atoms: C1_5  and  N3_10 
REMARK    1  A    between atoms: N3_10  and  C2_12 
REMARK    2  A    between atoms: C4_16  and  O1_17 
REMARK    3  A    between atoms: O1_17  and  N5_18 
ROOT
HETATM    1  C2  UNL     1       6.491 -12.928   3.541  1.00  0.00     0.680 A 
HETATM    2  N4  UNL     1       6.115 -12.678   2.276  1.00  0.00    -0.199 N 
ATOM      3  H4  UNL     1       5.800 -11.742   2.021  1.00  0.00     0.183 HD
HETATM    4  C3  UNL     1       6.148 -13.641   1.344  1.00  0.00     0.146 A 
HETATM    5  C4  UNL     1       6.572 -14.915   1.677  1.00  0.00     0.130 A 
HETATM    6  C8  UNL     1       6.947 -15.115   2.987  1.00  0.00     0.146 A 
HETATM    7  N8  UNL     1       6.906 -14.142   3.894  1.00  0.00    -0.199 N 
ATOM      8  H8  UNL     1       7.193 -14.327   4.856  1.00  0.00     0.183 HD
ENDROOT
BRANCH   1   9
HETATM    9  N3  UNL     1       6.423 -11.939   4.352  1.00  0.00    -0.173 N 
HETATM   10  C1  UNL     1       7.473 -11.131   4.858  1.00  0.00     0.494 C 
HETATM   11  N1  UNL     1       8.364 -11.911   5.677  1.00  0.00    -0.032 N 
HETATM   12  N2  UNL     1       8.193 -10.387   3.845  1.00  0.00    -0.032 N 
ATOM     13  H13 UNL     1       8.949 -12.524   5.110  1.00  0.00     0.278 HD
ATOM     14  H12 UNL     1       9.094 -11.331   6.090  1.00  0.00     0.278 HD
ATOM     15  H11 UNL     1       7.857 -12.435   6.391  1.00  0.00     0.278 HD
ATOM     16  H23 UNL     1       8.923  -9.807   4.258  1.00  0.00     0.278 HD
ATOM     17  H22 UNL     1       8.778 -11.000   3.278  1.00  0.00     0.278 HD
ATOM     18  H21 UNL     1       7.561  -9.834   3.265  1.00  0.00     0.278 HD
ATOM     19  H3  UNL     1       5.487 -11.701   4.679  1.00  0.00     0.181 HD
ENDBRANCH   1   9
BRANCH   5  20
HETATM   20  O1  UNL     1       6.615 -15.922   0.739  1.00  0.00    -0.234 OA
BRANCH  20  21
HETATM   21  N5  UNL     1       7.740 -16.236   0.025  1.00  0.00    -0.247 N 
HETATM   22  C5  UNL     1       7.778 -15.948  -1.225  1.00  0.00     0.125 C 
HETATM   23  C6  UNL     1       6.703 -15.292  -2.008  1.00  0.00     0.311 C 
HETATM   24  N7  UNL     1       8.861 -16.200  -2.115  1.00  0.00    -0.354 N 
HETATM   25  N6  UNL     1       7.428 -14.848  -3.203  1.00  0.00    -0.053 N 
HETATM   26  C7  UNL     1       8.319 -15.988  -3.444  1.00  0.00     0.356 C 
ATOM     27  H62 UNL     1       6.842 -14.578  -3.993  1.00  0.00     0.279 HD
ATOM     28  H61 UNL     1       7.892 -13.943  -3.120  1.00  0.00     0.279 HD
ATOM     29  H7  UNL     1       9.813 -16.473  -1.871  1.00  0.00     0.162 HD
ATOM     30  H5  UNL     1       8.533 -16.689   0.478  1.00  0.00     0.196 HD
ENDBRANCH  20  21
ENDBRANCH   5  20
TORSDOF 3
ENDMDL
MODEL 5
REMARK VINA RESULT: -6.886750351      1.211      1.430
REMARK  3 active torsions:
REMARK  status: ('A' for Active; 'I' for Inactive)
REMARK       I    between atoms: N1_1  and  C1_5 
REMARK       I    between atoms: C1_5  and  N2_6 
REMARK       I    between atoms: C1_5  and  N3_10 
REMARK    1  A    between atoms: N3_10  and  C2_12 
REMARK    2  A    between atoms: C4_16  and  O1_17 
REMARK    3  A    between atoms: O1_17  and  N5_18 
ROOT
HETATM    1  C2  UNL     1       6.631 -13.586   3.723  1.00  0.00     0.680 A 
HETATM    2  N4  UNL     1       7.005 -14.873   3.811  1.00  0.00    -0.199 N 
ATOM      3  H4  UNL     1       7.540 -15.187   4.621  1.00  0.00     0.183 HD
HETATM    4  C3  UNL     1       6.687 -15.751   2.849  1.00  0.00     0.146 A 
HETATM    5  C4  UNL     1       5.963 -15.338   1.745  1.00  0.00     0.130 A 
HETATM    6  C8  UNL     1       5.604 -14.009   1.706  1.00  0.00     0.146 A 
HETATM    7  N8  UNL     1       5.932 -13.157   2.674  1.00  0.00    -0.199 N 
ATOM      8  H8  UNL     1       5.649 -12.178   2.613  1.00  0.00     0.183 HD
ENDROOT
BRANCH   1   9
HETATM    9  N3  UNL     1       6.985 -12.831   4.695  1.00  0.00    -0.173 N 
HETATM   10  C1  UNL     1       7.586 -11.547   4.648  1.00  0.00     0.494 C 
HETATM   11  N1  UNL     1       8.896 -11.621   4.055  1.00  0.00    -0.032 N 
HETATM   12  N2  UNL     1       6.770 -10.531   4.017  1.00  0.00    -0.032 N 
ATOM     13  H13 UNL     1       8.840 -11.761   3.046  1.00  0.00     0.278 HD
ATOM     14  H12 UNL     1       9.360 -10.712   4.064  1.00  0.00     0.278 HD
ATOM     15  H11 UNL     1       9.471 -12.336   4.499  1.00  0.00     0.278 HD
ATOM     16  H23 UNL     1       7.235  -9.622   4.026  1.00  0.00     0.278 HD
ATOM     17  H22 UNL     1       6.714 -10.671   3.009  1.00  0.00     0.278 HD
ATOM     18  H21 UNL     1       5.842 -10.479   4.438  1.00  0.00     0.278 HD
ATOM     19  H3  UNL     1       6.813 -13.204   5.628  1.00  0.00     0.181 HD
ENDBRANCH   1   9
BRANCH   5  20
HETATM   20  O1  UNL     1       5.622 -16.220   0.743  1.00  0.00    -0.234 OA
BRANCH  20  21
HETATM   21  N5  UNL     1       6.545 -16.925   0.018  1.00  0.00    -0.247 N 
HETATM   22  C5  UNL     1       6.867 -16.499  -1.149  1.00  0.00     0.125 C 
HETATM   23  C6  UNL     1       6.333 -15.290  -1.822  1.00  0.00     0.311 C 
HETATM   24  N7  UNL     1       7.803 -17.103  -2.037  1.00  0.00    -0.354 N 
HETATM   25  N6  UNL     1       7.323 -15.073  -2.882  1.00  0.00    -0.053 N 
HETATM   26  C7  UNL     1       7.593 -16.448  -3.314  1.00  0.00     0.356 C 
ATOM     27  H62 UNL     1       7.036 -14.432  -3.622  1.00  0.00     0.279 HD
ATOM     28  H61 UNL     1       8.145 -14.534  -2.608  1.00  0.00     0.279 HD
ATOM     29  H7  UNL     1       8.477 -17.838  -1.820  1.00  0.00     0.162 HD
ATOM     30  H5  UNL     1       6.969 -17.771   0.397  1.00  0.00     0.196 HD
ENDBRANCH  20  21
ENDBRANCH   5  20
TORSDOF 3
ENDMDL
