MODEL 1
REMARK VINA RESULT: -8.017196140      0.000      0.000
REMARK  10 active torsions:
REMARK  status: ('A' for Active; 'I' for Inactive)
REMARK    1  A    between atoms: C2_2  and  O1_3 
REMARK    2  A    between atoms: O1_3  and  C3_4 
REMARK    3  A    between atoms: C3_4  and  C4_6 
REMARK    4  A    between atoms: C4_6  and  N1_7 
REMARK    5  A    between atoms: C5_8  and  N2_9 
REMARK    6  A    between atoms: C12_16  and  O3_17 
REMARK    7  A    between atoms: N3_19  and  C13_20 
REMARK    8  A    between atoms: C13_20  and  C14_21 
REMARK    9  A    between atoms: C14_21  and  C15_22 
REMARK       I    between atoms: C15_22  and  N4_24 
REMARK   10  A    between atoms: N4_24  and  C16_26 
ROOT
HETATM    1  N1  UNL     1      26.349  29.344  27.278  1.00  0.00    -0.272 N 
HETATM    2  C5  UNL     1      25.942  28.292  26.527  1.00  0.00     0.163 A 
HETATM    3  C12 UNL     1      24.618  28.050  26.868  1.00  0.00     0.192 A 
HETATM    4  N3  UNL     1      24.241  28.950  27.809  1.00  0.00    -0.276 N 
HETATM    5  C22 UNL     1      25.302  29.703  28.027  1.00  0.00     0.333 A 
HETATM    6  O5  UNL     1      25.341  30.658  28.848  1.00  0.00    -0.246 OA
ENDROOT
BRANCH   4   7
HETATM    7  C13 UNL     1      22.906  28.974  28.404  1.00  0.00     0.145 C 
BRANCH   7   8
HETATM    8  C14 UNL     1      22.991  28.384  29.804  1.00  0.00     0.123 C 
BRANCH   8   9
HETATM    9  C15 UNL     1      22.045  27.253  29.904  1.00  0.00     0.219 C 
HETATM   10  O4  UNL     1      21.223  27.192  30.861  1.00  0.00    -0.274 OA
HETATM   11  N4  UNL     1      22.059  26.238  28.938  1.00  0.00    -0.356 N 
ATOM     12  H4  UNL     1      22.727  26.272  28.168  1.00  0.00     0.162 HD
BRANCH  11  13
HETATM   13  C16 UNL     1      21.106  25.126  29.040  1.00  0.00     0.084 C 
HETATM   14  C17 UNL     1      20.487  24.812  27.733  1.00  0.00     0.025 C 
HETATM   15  C18 UNL     1      20.997  23.423  27.308  1.00  0.00     0.002 C 
HETATM   16  C19 UNL     1      20.480  22.396  28.303  1.00  0.00     0.000 C 
HETATM   17  C20 UNL     1      21.089  22.702  29.642  1.00  0.00     0.002 C 
HETATM   18  C21 UNL     1      21.929  23.952  29.590  1.00  0.00     0.025 C 
ENDBRANCH  11  13
ENDBRANCH   8   9
ENDBRANCH   7   8
ENDBRANCH   4   7
BRANCH   3  19
HETATM   19  O3  UNL     1      23.786  27.053  26.340  1.00  0.00    -0.343 OA
ATOM     20  H3  UNL     1      23.208  26.479  26.828  1.00  0.00     0.219 HD
ENDBRANCH   3  19
BRANCH   2  21
HETATM   21  N2  UNL     1      26.635  27.536  25.545  1.00  0.00    -0.355 N 
HETATM   22  C6  UNL     1      27.389  26.287  25.668  1.00  0.00     0.082 C 
HETATM   23  C7  UNL     1      26.601  25.165  24.983  1.00  0.00     0.032 C 
HETATM   24  C8  UNL     1      28.588  26.534  24.747  1.00  0.00     0.027 C 
HETATM   25  C9  UNL     1      28.224  27.753  23.911  1.00  0.00     0.027 C 
HETATM   26  C10 UNL     1      26.743  27.841  24.112  1.00  0.00     0.082 C 
HETATM   27  C11 UNL     1      26.170  29.159  23.737  1.00  0.00     0.032 C 
ENDBRANCH   2  21
BRANCH   1  28
HETATM   28  C4  UNL     1      27.649  29.980  27.246  1.00  0.00     0.246 C 
BRANCH  28  29
HETATM   29  C3  UNL     1      27.688  31.182  26.392  1.00  0.00     0.277 C 
HETATM   30  O2  UNL     1      27.277  32.318  26.728  1.00  0.00    -0.263 OA
BRANCH  29  31
HETATM   31  O1  UNL     1      28.217  31.051  25.118  1.00  0.00    -0.321 OA
BRANCH  31  32
HETATM   32  C2  UNL     1      29.564  31.353  24.779  1.00  0.00     0.174 C 
HETATM   33  C1  UNL     1      30.518  30.265  25.206  1.00  0.00     0.034 C 
ENDBRANCH  31  32
ENDBRANCH  29  31
ENDBRANCH  28  29
ENDBRANCH   1  28
TORSDOF 10
ENDMDL
MODEL 2
REMARK VINA RESULT: -7.874577551      1.662      2.069
REMARK  10 active torsions:
REMARK  status: ('A' for Active; 'I' for Inactive)
REMARK    1  A    between atoms: C2_2  and  O1_3 
REMARK    2  A    between atoms: O1_3  and  C3_4 
REMARK    3  A    between atoms: C3_4  and  C4_6 
REMARK    4  A    between atoms: C4_6  and  N1_7 
REMARK    5  A    between atoms: C5_8  and  N2_9 
REMARK    6  A    between atoms: C12_16  and  O3_17 
REMARK    7  A    between atoms: N3_19  and  C13_20 
REMARK    8  A    between atoms: C13_20  and  C14_21 
REMARK    9  A    between atoms: C14_21  and  C15_22 
REMARK       I    between atoms: C15_22  and  N4_24 
REMARK   10  A    between atoms: N4_24  and  C16_26 
ROOT
HETATM    1  N1  UNL     1      25.822  28.308  27.025  1.00  0.00    -0.272 N 
HETATM    2  C5  UNL     1      25.785  27.439  25.986  1.00  0.00     0.163 A 
HETATM    3  C12 UNL     1      24.502  26.905  25.961  1.00  0.00     0.192 A 
HETATM    4  N3  UNL     1      23.785  27.455  26.971  1.00  0.00    -0.276 N 
HETATM    5  C22 UNL     1      24.608  28.284  27.583  1.00  0.00     0.333 A 
HETATM    6  O5  UNL     1      24.299  28.985  28.584  1.00  0.00    -0.246 OA
ENDROOT
BRANCH   4   7
HETATM    7  C13 UNL     1      22.391  27.106  27.243  1.00  0.00     0.145 C 
BRANCH   7   8
HETATM    8  C14 UNL     1      22.305  26.521  28.645  1.00  0.00     0.123 C 
BRANCH   8   9
HETATM    9  C15 UNL     1      22.110  25.060  28.542  1.00  0.00     0.219 C 
HETATM   10  O4  UNL     1      21.942  24.365  29.582  1.00  0.00    -0.274 OA
HETATM   11  N4  UNL     1      22.116  24.437  27.286  1.00  0.00    -0.356 N 
ATOM     12  H4  UNL     1      22.264  24.989  26.442  1.00  0.00     0.162 HD
BRANCH  11  13
HETATM   13  C16 UNL     1      21.909  22.987  27.194  1.00  0.00     0.084 C 
HETATM   14  C17 UNL     1      20.506  22.652  26.866  1.00  0.00     0.025 C 
HETATM   15  C18 UNL     1      20.500  22.043  25.452  1.00  0.00     0.002 C 
HETATM   16  C19 UNL     1      21.272  20.733  25.491  1.00  0.00     0.000 C 
HETATM   17  C20 UNL     1      22.701  21.048  25.834  1.00  0.00     0.002 C 
HETATM   18  C21 UNL     1      22.888  22.517  26.109  1.00  0.00     0.025 C 
ENDBRANCH  11  13
ENDBRANCH   8   9
ENDBRANCH   7   8
ENDBRANCH   4   7
BRANCH   3  19
HETATM   19  O3  UNL     1      24.007  25.961  25.051  1.00  0.00    -0.343 OA
ATOM     20  H3  UNL     1      23.111  25.884  24.746  1.00  0.00     0.219 HD
ENDBRANCH   3  19
BRANCH   2  21
HETATM   21  N2  UNL     1      26.784  27.088  25.041  1.00  0.00    -0.355 N 
HETATM   22  C6  UNL     1      27.731  25.972  25.032  1.00  0.00     0.082 C 
HETATM   23  C7  UNL     1      27.321  24.985  23.934  1.00  0.00     0.032 C 
HETATM   24  C8  UNL     1      29.009  26.630  24.501  1.00  0.00     0.027 C 
HETATM   25  C9  UNL     1      28.576  27.968  23.920  1.00  0.00     0.027 C 
HETATM   26  C10 UNL     1      27.096  27.789  23.788  1.00  0.00     0.082 C 
HETATM   27  C11 UNL     1      26.356  29.065  23.618  1.00  0.00     0.032 C 
ENDBRANCH   2  21
BRANCH   1  28
HETATM   28  C4  UNL     1      26.943  29.131  27.427  1.00  0.00     0.246 C 
BRANCH  28  29
HETATM   29  C3  UNL     1      26.776  30.554  27.076  1.00  0.00     0.277 C 
HETATM   30  O2  UNL     1      26.154  31.398  27.764  1.00  0.00    -0.263 OA
BRANCH  29  31
HETATM   31  O1  UNL     1      27.347  30.997  25.893  1.00  0.00    -0.321 OA
BRANCH  31  32
HETATM   32  C2  UNL     1      28.454  31.885  25.825  1.00  0.00     0.174 C 
HETATM   33  C1  UNL     1      29.458  31.468  24.779  1.00  0.00     0.034 C 
ENDBRANCH  31  32
ENDBRANCH  29  31
ENDBRANCH  28  29
ENDBRANCH   1  28
TORSDOF 10
ENDMDL
MODEL 3
REMARK VINA RESULT: -7.825885987      5.123      9.317
REMARK  10 active torsions:
REMARK  status: ('A' for Active; 'I' for Inactive)
REMARK    1  A    between atoms: C2_2  and  O1_3 
REMARK    2  A    between atoms: O1_3  and  C3_4 
REMARK    3  A    between atoms: C3_4  and  C4_6 
REMARK    4  A    between atoms: C4_6  and  N1_7 
REMARK    5  A    between atoms: C5_8  and  N2_9 
REMARK    6  A    between atoms: C12_16  and  O3_17 
REMARK    7  A    between atoms: N3_19  and  C13_20 
REMARK    8  A    between atoms: C13_20  and  C14_21 
REMARK    9  A    between atoms: C14_21  and  C15_22 
REMARK       I    between atoms: C15_22  and  N4_24 
REMARK   10  A    between atoms: N4_24  and  C16_26 
ROOT
HETATM    1  N1  UNL     1      26.822  22.968  21.979  1.00  0.00    -0.272 N 
HETATM    2  C5  UNL     1      26.078  22.295  22.891  1.00  0.00     0.163 A 
HETATM    3  C12 UNL     1      25.906  23.151  23.972  1.00  0.00     0.192 A 
HETATM    4  N3  UNL     1      26.538  24.321  23.703  1.00  0.00    -0.276 N 
HETATM    5  C22 UNL     1      27.072  24.170  22.507  1.00  0.00     0.333 A 
HETATM    6  O5  UNL     1      27.748  25.053  21.912  1.00  0.00    -0.246 OA
ENDROOT
BRANCH   4   7
HETATM    7  C13 UNL     1      26.568  25.446  24.636  1.00  0.00     0.145 C 
BRANCH   7   8
HETATM    8  C14 UNL     1      27.949  26.081  24.581  1.00  0.00     0.123 C 
BRANCH   8   9
HETATM    9  C15 UNL     1      27.801  27.520  24.279  1.00  0.00     0.219 C 
HETATM   10  O4  UNL     1      27.407  27.894  23.139  1.00  0.00    -0.274 OA
HETATM   11  N4  UNL     1      28.102  28.478  25.256  1.00  0.00    -0.356 N 
ATOM     12  H4  UNL     1      28.434  28.186  26.175  1.00  0.00     0.162 HD
BRANCH  11  13
HETATM   13  C16 UNL     1      27.939  29.904  24.949  1.00  0.00     0.084 C 
HETATM   14  C17 UNL     1      27.100  30.591  25.956  1.00  0.00     0.025 C 
HETATM   15  C18 UNL     1      28.010  31.570  26.718  1.00  0.00     0.002 C 
HETATM   16  C19 UNL     1      28.493  32.634  25.744  1.00  0.00     0.000 C 
HETATM   17  C20 UNL     1      29.341  31.957  24.703  1.00  0.00     0.002 C 
HETATM   18  C21 UNL     1      29.369  30.464  24.905  1.00  0.00     0.025 C 
ENDBRANCH  11  13
ENDBRANCH   8   9
ENDBRANCH   7   8
ENDBRANCH   4   7
BRANCH   3  19
HETATM   19  O3  UNL     1      25.199  22.879  25.151  1.00  0.00    -0.343 OA
ATOM     20  H3  UNL     1      24.680  23.494  25.655  1.00  0.00     0.219 HD
ENDBRANCH   3  19
BRANCH   2  21
HETATM   21  N2  UNL     1      25.518  20.992  22.845  1.00  0.00    -0.355 N 
HETATM   22  C6  UNL     1      24.241  20.527  22.301  1.00  0.00     0.082 C 
HETATM   23  C7  UNL     1      24.512  19.708  21.034  1.00  0.00     0.032 C 
HETATM   24  C8  UNL     1      23.798  19.493  23.341  1.00  0.00     0.027 C 
HETATM   25  C9  UNL     1      25.028  19.205  24.190  1.00  0.00     0.027 C 
HETATM   26  C10 UNL     1      26.132  19.752  23.339  1.00  0.00     0.082 C 
HETATM   27  C11 UNL     1      27.401  19.967  24.079  1.00  0.00     0.032 C 
ENDBRANCH   2  21
BRANCH   1  28
HETATM   28  C4  UNL     1      27.231  22.493  20.675  1.00  0.00     0.246 C 
BRANCH  28  29
HETATM   29  C3  UNL     1      28.641  22.060  20.629  1.00  0.00     0.277 C 
HETATM   30  O2  UNL     1      29.603  22.776  20.262  1.00  0.00    -0.263 OA
BRANCH  29  31
HETATM   31  O1  UNL     1      28.929  20.761  21.018  1.00  0.00    -0.321 OA
BRANCH  31  32
HETATM   32  C2  UNL     1      28.924  19.645  20.137  1.00  0.00     0.174 C 
HETATM   33  C1  UNL     1      30.280  19.393  19.527  1.00  0.00     0.034 C 
ENDBRANCH  31  32
ENDBRANCH  29  31
ENDBRANCH  28  29
ENDBRANCH   1  28
TORSDOF 10
ENDMDL
MODEL 4
REMARK VINA RESULT: -7.802261273      2.099      2.791
REMARK  10 active torsions:
REMARK  status: ('A' for Active; 'I' for Inactive)
REMARK    1  A    between atoms: C2_2  and  O1_3 
REMARK    2  A    between atoms: O1_3  and  C3_4 
REMARK    3  A    between atoms: C3_4  and  C4_6 
REMARK    4  A    between atoms: C4_6  and  N1_7 
REMARK    5  A    between atoms: C5_8  and  N2_9 
REMARK    6  A    between atoms: C12_16  and  O3_17 
REMARK    7  A    between atoms: N3_19  and  C13_20 
REMARK    8  A    between atoms: C13_20  and  C14_21 
REMARK    9  A    between atoms: C14_21  and  C15_22 
REMARK       I    between atoms: C15_22  and  N4_24 
REMARK   10  A    between atoms: N4_24  and  C16_26 
ROOT
HETATM    1  N1  UNL     1      25.835  28.268  26.989  1.00  0.00    -0.272 N 
HETATM    2  C5  UNL     1      25.817  27.433  25.921  1.00  0.00     0.163 A 
HETATM    3  C12 UNL     1      24.539  26.894  25.860  1.00  0.00     0.192 A 
HETATM    4  N3  UNL     1      23.803  27.405  26.877  1.00  0.00    -0.276 N 
HETATM    5  C22 UNL     1      24.612  28.219  27.528  1.00  0.00     0.333 A 
HETATM    6  O5  UNL     1      24.285  28.884  28.547  1.00  0.00    -0.246 OA
ENDROOT
BRANCH   4   7
HETATM    7  C13 UNL     1      22.408  27.040  27.117  1.00  0.00     0.145 C 
BRANCH   7   8
HETATM    8  C14 UNL     1      22.356  26.085  28.300  1.00  0.00     0.123 C 
BRANCH   8   9
HETATM    9  C15 UNL     1      21.543  26.696  29.372  1.00  0.00     0.219 C 
HETATM   10  O4  UNL     1      21.203  27.910  29.300  1.00  0.00    -0.274 OA
HETATM   11  N4  UNL     1      21.149  25.932  30.479  1.00  0.00    -0.356 N 
ATOM     12  H4  UNL     1      21.430  24.954  30.552  1.00  0.00     0.162 HD
BRANCH  11  13
HETATM   13  C16 UNL     1      20.331  26.546  31.531  1.00  0.00     0.084 C 
HETATM   14  C17 UNL     1      19.246  25.645  31.980  1.00  0.00     0.025 C 
HETATM   15  C18 UNL     1      19.564  25.235  33.430  1.00  0.00     0.002 C 
HETATM   16  C19 UNL     1      19.500  26.477  34.305  1.00  0.00     0.000 C 
HETATM   17  C20 UNL     1      20.589  27.413  33.860  1.00  0.00     0.002 C 
HETATM   18  C21 UNL     1      21.321  26.871  32.660  1.00  0.00     0.025 C 
ENDBRANCH  11  13
ENDBRANCH   8   9
ENDBRANCH   7   8
ENDBRANCH   4   7
BRANCH   3  19
HETATM   19  O3  UNL     1      24.062  25.978  24.912  1.00  0.00    -0.343 OA
ATOM     20  H3  UNL     1      23.380  25.329  25.044  1.00  0.00     0.219 HD
ENDBRANCH   3  19
BRANCH   2  21
HETATM   21  N2  UNL     1      26.832  27.118  24.980  1.00  0.00    -0.355 N 
HETATM   22  C6  UNL     1      27.796  26.017  24.955  1.00  0.00     0.082 C 
HETATM   23  C7  UNL     1      27.413  25.050  23.830  1.00  0.00     0.032 C 
HETATM   24  C8  UNL     1      29.070  26.706  24.455  1.00  0.00     0.027 C 
HETATM   25  C9  UNL     1      28.623  28.051  23.901  1.00  0.00     0.027 C 
HETATM   26  C10 UNL     1      27.147  27.854  23.747  1.00  0.00     0.082 C 
HETATM   27  C11 UNL     1      26.390  29.122  23.598  1.00  0.00     0.032 C 
ENDBRANCH   2  21
BRANCH   1  28
HETATM   28  C4  UNL     1      26.945  29.082  27.435  1.00  0.00     0.246 C 
BRANCH  28  29
HETATM   29  C3  UNL     1      26.791  30.510  27.096  1.00  0.00     0.277 C 
HETATM   30  O2  UNL     1      26.165  31.350  27.785  1.00  0.00    -0.263 OA
BRANCH  29  31
HETATM   31  O1  UNL     1      27.381  30.963  25.926  1.00  0.00    -0.321 OA
BRANCH  31  32
HETATM   32  C2  UNL     1      28.470  31.875  25.883  1.00  0.00     0.174 C 
HETATM   33  C1  UNL     1      29.436  31.557  24.769  1.00  0.00     0.034 C 
ENDBRANCH  31  32
ENDBRANCH  29  31
ENDBRANCH  28  29
ENDBRANCH   1  28
TORSDOF 10
ENDMDL
MODEL 5
REMARK VINA RESULT: -7.744112851      1.296      1.643
REMARK  10 active torsions:
REMARK  status: ('A' for Active; 'I' for Inactive)
REMARK    1  A    between atoms: C2_2  and  O1_3 
REMARK    2  A    between atoms: O1_3  and  C3_4 
REMARK    3  A    between atoms: C3_4  and  C4_6 
REMARK    4  A    between atoms: C4_6  and  N1_7 
REMARK    5  A    between atoms: C5_8  and  N2_9 
REMARK    6  A    between atoms: C12_16  and  O3_17 
REMARK    7  A    between atoms: N3_19  and  C13_20 
REMARK    8  A    between atoms: C13_20  and  C14_21 
REMARK    9  A    between atoms: C14_21  and  C15_22 
REMARK       I    between atoms: C15_22  and  N4_24 
REMARK   10  A    between atoms: N4_24  and  C16_26 
ROOT
HETATM    1  N1  UNL     1      26.275  29.329  27.294  1.00  0.00    -0.272 N 
HETATM    2  C5  UNL     1      25.872  28.284  26.532  1.00  0.00     0.163 A 
HETATM    3  C12 UNL     1      24.537  28.059  26.839  1.00  0.00     0.192 A 
HETATM    4  N3  UNL     1      24.149  28.963  27.772  1.00  0.00    -0.276 N 
HETATM    5  C22 UNL     1      25.214  29.701  28.018  1.00  0.00     0.333 A 
HETATM    6  O5  UNL     1      25.244  30.655  28.841  1.00  0.00    -0.246 OA
ENDROOT
BRANCH   4   7
HETATM    7  C13 UNL     1      22.799  29.003  28.333  1.00  0.00     0.145 C 
BRANCH   7   8
HETATM    8  C14 UNL     1      22.841  28.409  29.733  1.00  0.00     0.123 C 
BRANCH   8   9
HETATM    9  C15 UNL     1      22.108  27.126  29.730  1.00  0.00     0.219 C 
HETATM   10  O4  UNL     1      21.664  26.649  28.648  1.00  0.00    -0.274 OA
HETATM   11  N4  UNL     1      21.898  26.433  30.930  1.00  0.00    -0.356 N 
ATOM     12  H4  UNL     1      22.242  26.817  31.810  1.00  0.00     0.162 HD
BRANCH  11  13
HETATM   13  C16 UNL     1      21.181  25.153  30.913  1.00  0.00     0.084 C 
HETATM   14  C17 UNL     1      22.089  24.017  30.639  1.00  0.00     0.025 C 
HETATM   15  C18 UNL     1      22.158  23.169  31.922  1.00  0.00     0.002 C 
HETATM   16  C19 UNL     1      20.780  22.582  32.184  1.00  0.00     0.000 C 
HETATM   17  C20 UNL     1      19.836  23.720  32.455  1.00  0.00     0.002 C 
HETATM   18  C21 UNL     1      20.523  25.052  32.297  1.00  0.00     0.025 C 
ENDBRANCH  11  13
ENDBRANCH   8   9
ENDBRANCH   7   8
ENDBRANCH   4   7
BRANCH   3  19
HETATM   19  O3  UNL     1      23.706  27.073  26.289  1.00  0.00    -0.343 OA
ATOM     20  H3  UNL     1      22.758  27.099  26.230  1.00  0.00     0.219 HD
ENDBRANCH   3  19
BRANCH   2  21
HETATM   21  N2  UNL     1      26.580  27.519  25.567  1.00  0.00    -0.355 N 
HETATM   22  C6  UNL     1      27.320  26.264  25.708  1.00  0.00     0.082 C 
HETATM   23  C7  UNL     1      26.537  25.149  25.007  1.00  0.00     0.032 C 
HETATM   24  C8  UNL     1      28.541  26.499  24.814  1.00  0.00     0.027 C 
HETATM   25  C9  UNL     1      28.206  27.719  23.968  1.00  0.00     0.027 C 
HETATM   26  C10 UNL     1      26.722  27.821  24.136  1.00  0.00     0.082 C 
HETATM   27  C11 UNL     1      26.169  29.143  23.747  1.00  0.00     0.032 C 
ENDBRANCH   2  21
BRANCH   1  28
HETATM   28  C4  UNL     1      27.583  29.948  27.297  1.00  0.00     0.246 C 
BRANCH  28  29
HETATM   29  C3  UNL     1      27.654  31.161  26.460  1.00  0.00     0.277 C 
HETATM   30  O2  UNL     1      27.300  32.308  26.823  1.00  0.00    -0.263 OA
BRANCH  29  31
HETATM   31  O1  UNL     1      28.149  31.028  25.172  1.00  0.00    -0.321 OA
BRANCH  31  32
HETATM   32  C2  UNL     1      29.480  31.350  24.792  1.00  0.00     0.174 C 
HETATM   33  C1  UNL     1      30.469  30.299  25.231  1.00  0.00     0.034 C 
ENDBRANCH  31  32
ENDBRANCH  29  31
ENDBRANCH  28  29
ENDBRANCH   1  28
TORSDOF 10
ENDMDL
