MODEL 1
REMARK VINA RESULT: -7.791992507      0.000      0.000
REMARK  14 active torsions:
REMARK  status: ('A' for Active; 'I' for Inactive)
REMARK    1  A    between atoms: C2_2  and  O1_3 
REMARK    2  A    between atoms: O1_3  and  C3_4 
REMARK    3  A    between atoms: C3_4  and  C4_6 
REMARK    4  A    between atoms: C4_6  and  O3_8 
REMARK    5  A    between atoms: O3_8  and  C6_9 
REMARK    6  A    between atoms: C6_9  and  C7_11 
REMARK    7  A    between atoms: C7_11  and  N1_13 
REMARK    8  A    between atoms: N1_13  and  C9_15 
REMARK    9  A    between atoms: C10_18  and  O5_19 
REMARK   10  A    between atoms: C11_21  and  C12_22 
REMARK   11  A    between atoms: C12_22  and  C13_23 
REMARK       I    between atoms: C13_23  and  N3_25 
REMARK   12  A    between atoms: N4_27  and  C14_29 
REMARK   13  A    between atoms: C14_29  and  S2_31 
REMARK   14  A    between atoms: S2_31  and  C15_32 
ROOT
HETATM    1  C9  UNL     1      25.227  25.631  24.969  1.00  0.00     0.227 A 
HETATM    2  N2  UNL     1      23.989  25.563  25.485  1.00  0.00    -0.301 N 
ATOM      3  H2  UNL     1      23.280  24.869  25.252  1.00  0.00     0.171 HD
HETATM    4  C10 UNL     1      23.847  26.575  26.366  1.00  0.00     0.174 A 
HETATM    5  C11 UNL     1      25.030  27.276  26.385  1.00  0.00     0.116 A 
HETATM    6  O7  UNL     1      25.813  26.679  25.543  1.00  0.00    -0.279 OA
ENDROOT
BRANCH   1   7
HETATM    7  N1  UNL     1      25.783  24.850  24.086  1.00  0.00    -0.342 N 
ATOM      8  H1  UNL     1      26.143  25.243  23.216  1.00  0.00     0.164 HD
BRANCH   7   9
HETATM    9  C7  UNL     1      25.890  23.445  24.328  1.00  0.00     0.181 C 
HETATM   10  C8  UNL     1      24.646  22.696  23.827  1.00  0.00     0.043 C 
BRANCH   9  11
HETATM   11  C6  UNL     1      27.039  22.849  23.597  1.00  0.00     0.282 C 
HETATM   12  O4  UNL     1      27.426  21.721  23.992  1.00  0.00    -0.263 OA
BRANCH  11  13
HETATM   13  O3  UNL     1      27.700  23.411  22.546  1.00  0.00    -0.305 OA
BRANCH  13  14
HETATM   14  C4  UNL     1      27.570  23.056  21.197  1.00  0.00     0.227 C 
HETATM   15  C5  UNL     1      26.693  21.895  20.929  1.00  0.00     0.051 C 
BRANCH  14  16
HETATM   16  C3  UNL     1      28.932  22.727  20.641  1.00  0.00     0.288 C 
HETATM   17  O2  UNL     1      29.714  23.609  20.237  1.00  0.00    -0.262 OA
BRANCH  16  18
HETATM   18  O1  UNL     1      29.337  21.396  20.573  1.00  0.00    -0.320 OA
BRANCH  18  19
HETATM   19  C2  UNL     1      30.467  21.025  19.804  1.00  0.00     0.174 C 
HETATM   20  C1  UNL     1      30.450  19.586  19.382  1.00  0.00     0.034 C 
ENDBRANCH  18  19
ENDBRANCH  16  18
ENDBRANCH  14  16
ENDBRANCH  13  14
ENDBRANCH  11  13
ENDBRANCH   9  11
ENDBRANCH   7   9
ENDBRANCH   1   7
BRANCH   4  21
HETATM   21  O5  UNL     1      22.690  26.817  27.095  1.00  0.00    -0.344 OA
ATOM     22  H5  UNL     1      22.079  27.520  26.906  1.00  0.00     0.219 HD
ENDBRANCH   4  21
BRANCH   5  23
HETATM   23  C12 UNL     1      25.309  28.472  27.219  1.00  0.00     0.174 C 
BRANCH  23  24
HETATM   24  C13 UNL     1      26.330  29.339  26.607  1.00  0.00     0.242 C 
HETATM   25  O6  UNL     1      27.140  29.939  27.351  1.00  0.00    -0.271 OA
HETATM   26  N3  UNL     1      26.368  29.473  25.225  1.00  0.00    -0.268 N 
HETATM   27  N4  UNL     1      27.259  29.288  24.401  1.00  0.00    -0.282 N 
ATOM     28  H3  UNL     1      25.487  29.783  24.817  1.00  0.00     0.190 HD
ATOM     29  H4  UNL     1      26.980  29.475  23.438  1.00  0.00     0.188 HD
BRANCH  27  30
HETATM   30  C14 UNL     1      28.580  28.871  24.539  1.00  0.00     0.153 C 
HETATM   31  S1  UNL     1      28.997  27.354  24.107  1.00  0.00    -0.051 SA
BRANCH  30  32
HETATM   32  S2  UNL     1      29.888  29.912  25.171  1.00  0.00    -0.100 SA
BRANCH  32  33
HETATM   33  C15 UNL     1      29.709  31.617  24.532  1.00  0.00     0.077 C 
HETATM   34  C16 UNL     1      28.702  32.331  25.375  1.00  0.00     0.016 C 
ENDBRANCH  32  33
ENDBRANCH  30  32
ENDBRANCH  27  30
ENDBRANCH  23  24
ENDBRANCH   5  23
TORSDOF 14
ENDMDL
MODEL 2
REMARK VINA RESULT: -7.547399690      2.943      8.551
REMARK  14 active torsions:
REMARK  status: ('A' for Active; 'I' for Inactive)
REMARK    1  A    between atoms: C2_2  and  O1_3 
REMARK    2  A    between atoms: O1_3  and  C3_4 
REMARK    3  A    between atoms: C3_4  and  C4_6 
REMARK    4  A    between atoms: C4_6  and  O3_8 
REMARK    5  A    between atoms: O3_8  and  C6_9 
REMARK    6  A    between atoms: C6_9  and  C7_11 
REMARK    7  A    between atoms: C7_11  and  N1_13 
REMARK    8  A    between atoms: N1_13  and  C9_15 
REMARK    9  A    between atoms: C10_18  and  O5_19 
REMARK   10  A    between atoms: C11_21  and  C12_22 
REMARK   11  A    between atoms: C12_22  and  C13_23 
REMARK       I    between atoms: C13_23  and  N3_25 
REMARK   12  A    between atoms: N4_27  and  C14_29 
REMARK   13  A    between atoms: C14_29  and  S2_31 
REMARK   14  A    between atoms: S2_31  and  C15_32 
ROOT
HETATM    1  C9  UNL     1      25.960  24.993  23.803  1.00  0.00     0.227 A 
HETATM    2  N2  UNL     1      24.705  24.891  24.269  1.00  0.00    -0.301 N 
ATOM      3  H2  UNL     1      24.028  25.650  24.337  1.00  0.00     0.171 HD
HETATM    4  C10 UNL     1      24.496  23.609  24.632  1.00  0.00     0.174 A 
HETATM    5  C11 UNL     1      25.656  22.914  24.381  1.00  0.00     0.116 A 
HETATM    6  O7  UNL     1      26.490  23.775  23.892  1.00  0.00    -0.279 OA
ENDROOT
BRANCH   1   7
HETATM    7  N1  UNL     1      26.574  26.049  23.347  1.00  0.00    -0.342 N 
ATOM      8  H1  UNL     1      26.484  26.302  22.363  1.00  0.00     0.164 HD
BRANCH   7   9
HETATM    9  C7  UNL     1      27.375  26.853  24.217  1.00  0.00     0.181 C 
HETATM   10  C8  UNL     1      28.840  26.887  23.755  1.00  0.00     0.043 C 
BRANCH   9  11
HETATM   11  C6  UNL     1      26.924  28.269  24.223  1.00  0.00     0.282 C 
HETATM   12  O4  UNL     1      27.285  28.974  23.248  1.00  0.00    -0.263 OA
BRANCH  11  13
HETATM   13  O3  UNL     1      26.160  28.864  25.183  1.00  0.00    -0.305 OA
BRANCH  13  14
HETATM   14  C4  UNL     1      26.229  28.630  26.563  1.00  0.00     0.227 C 
HETATM   15  C5  UNL     1      24.991  28.103  27.178  1.00  0.00     0.051 C 
BRANCH  14  16
HETATM   16  C3  UNL     1      26.565  29.921  27.265  1.00  0.00     0.288 C 
HETATM   17  O2  UNL     1      25.770  30.478  28.045  1.00  0.00    -0.262 OA
BRANCH  16  18
HETATM   18  O1  UNL     1      27.804  30.517  27.039  1.00  0.00    -0.320 OA
BRANCH  18  19
HETATM   19  C2  UNL     1      27.888  31.799  26.444  1.00  0.00     0.174 C 
HETATM   20  C1  UNL     1      28.859  31.859  25.302  1.00  0.00     0.034 C 
ENDBRANCH  18  19
ENDBRANCH  16  18
ENDBRANCH  14  16
ENDBRANCH  13  14
ENDBRANCH  11  13
ENDBRANCH   9  11
ENDBRANCH   7   9
ENDBRANCH   1   7
BRANCH   4  21
HETATM   21  O5  UNL     1      23.304  23.133  25.161  1.00  0.00    -0.344 OA
ATOM     22  H5  UNL     1      23.136  22.219  25.361  1.00  0.00     0.219 HD
ENDBRANCH   4  21
BRANCH   5  23
HETATM   23  C12 UNL     1      25.865  21.466  24.635  1.00  0.00     0.174 C 
BRANCH  23  24
HETATM   24  C13 UNL     1      26.094  20.719  23.387  1.00  0.00     0.242 C 
HETATM   25  O6  UNL     1      25.160  20.624  22.558  1.00  0.00    -0.271 OA
HETATM   26  N3  UNL     1      27.336  20.140  23.161  1.00  0.00    -0.268 N 
HETATM   27  N4  UNL     1      28.143  20.245  22.242  1.00  0.00    -0.282 N 
ATOM     28  H3  UNL     1      27.635  19.504  23.900  1.00  0.00     0.190 HD
ATOM     29  H4  UNL     1      28.985  19.681  22.360  1.00  0.00     0.188 HD
BRANCH  27  30
HETATM   30  C14 UNL     1      28.120  20.992  21.068  1.00  0.00     0.153 C 
HETATM   31  S1  UNL     1      28.300  22.613  21.139  1.00  0.00    -0.051 SA
BRANCH  30  32
HETATM   32  S2  UNL     1      27.906  20.281  19.443  1.00  0.00    -0.100 SA
BRANCH  32  33
HETATM   33  C15 UNL     1      29.439  20.460  18.462  1.00  0.00     0.077 C 
HETATM   34  C16 UNL     1      30.568  19.867  19.241  1.00  0.00     0.016 C 
ENDBRANCH  32  33
ENDBRANCH  30  32
ENDBRANCH  27  30
ENDBRANCH  23  24
ENDBRANCH   5  23
TORSDOF 14
ENDMDL
MODEL 3
REMARK VINA RESULT: -7.541569496      3.039      8.624
REMARK  14 active torsions:
REMARK  status: ('A' for Active; 'I' for Inactive)
REMARK    1  A    between atoms: C2_2  and  O1_3 
REMARK    2  A    between atoms: O1_3  and  C3_4 
REMARK    3  A    between atoms: C3_4  and  C4_6 
REMARK    4  A    between atoms: C4_6  and  O3_8 
REMARK    5  A    between atoms: O3_8  and  C6_9 
REMARK    6  A    between atoms: C6_9  and  C7_11 
REMARK    7  A    between atoms: C7_11  and  N1_13 
REMARK    8  A    between atoms: N1_13  and  C9_15 
REMARK    9  A    between atoms: C10_18  and  O5_19 
REMARK   10  A    between atoms: C11_21  and  C12_22 
REMARK   11  A    between atoms: C12_22  and  C13_23 
REMARK       I    between atoms: C13_23  and  N3_25 
REMARK   12  A    between atoms: N4_27  and  C14_29 
REMARK   13  A    between atoms: C14_29  and  S2_31 
REMARK   14  A    between atoms: S2_31  and  C15_32 
ROOT
HETATM    1  C9  UNL     1      25.921  24.888  23.992  1.00  0.00     0.227 A 
HETATM    2  N2  UNL     1      24.599  24.661  24.057  1.00  0.00    -0.301 N 
ATOM      3  H2  UNL     1      23.865  25.361  23.951  1.00  0.00     0.171 HD
HETATM    4  C10 UNL     1      24.411  23.346  24.287  1.00  0.00     0.174 A 
HETATM    5  C11 UNL     1      25.652  22.758  24.366  1.00  0.00     0.116 A 
HETATM    6  O7  UNL     1      26.510  23.710  24.185  1.00  0.00    -0.279 OA
ENDROOT
BRANCH   1   7
HETATM    7  N1  UNL     1      26.543  26.015  23.784  1.00  0.00    -0.342 N 
ATOM      8  H1  UNL     1      27.046  26.162  22.909  1.00  0.00     0.164 HD
BRANCH   7   9
HETATM    9  C7  UNL     1      26.524  27.045  24.775  1.00  0.00     0.181 C 
HETATM   10  C8  UNL     1      26.889  26.493  26.161  1.00  0.00     0.043 C 
BRANCH   9  11
HETATM   11  C6  UNL     1      27.529  28.101  24.487  1.00  0.00     0.282 C 
HETATM   12  O4  UNL     1      27.541  28.556  23.316  1.00  0.00    -0.263 OA
BRANCH  11  13
HETATM   13  O3  UNL     1      28.429  28.616  25.373  1.00  0.00    -0.305 OA
BRANCH  13  14
HETATM   14  C4  UNL     1      28.833  29.954  25.464  1.00  0.00     0.227 C 
HETATM   15  C5  UNL     1      30.235  30.165  25.885  1.00  0.00     0.051 C 
BRANCH  14  16
HETATM   16  C3  UNL     1      27.953  30.666  26.460  1.00  0.00     0.288 C 
HETATM   17  O2  UNL     1      27.808  31.904  26.450  1.00  0.00    -0.262 OA
BRANCH  16  18
HETATM   18  O1  UNL     1      27.277  29.924  27.426  1.00  0.00    -0.320 OA
BRANCH  18  19
HETATM   19  C2  UNL     1      25.863  29.849  27.417  1.00  0.00     0.174 C 
HETATM   20  C1  UNL     1      25.220  30.672  28.494  1.00  0.00     0.034 C 
ENDBRANCH  18  19
ENDBRANCH  16  18
ENDBRANCH  14  16
ENDBRANCH  13  14
ENDBRANCH  11  13
ENDBRANCH   9  11
ENDBRANCH   7   9
ENDBRANCH   1   7
BRANCH   4  21
HETATM   21  O5  UNL     1      23.164  22.747  24.415  1.00  0.00    -0.344 OA
ATOM     22  H5  UNL     1      22.950  21.885  24.079  1.00  0.00     0.219 HD
ENDBRANCH   4  21
BRANCH   5  23
HETATM   23  C12 UNL     1      25.908  21.316  24.611  1.00  0.00     0.174 C 
BRANCH  23  24
HETATM   24  C13 UNL     1      26.223  20.598  23.364  1.00  0.00     0.242 C 
HETATM   25  O6  UNL     1      25.307  20.389  22.536  1.00  0.00    -0.271 OA
HETATM   26  N3  UNL     1      27.525  20.168  23.138  1.00  0.00    -0.268 N 
HETATM   27  N4  UNL     1      28.313  20.365  22.218  1.00  0.00    -0.282 N 
ATOM     28  H3  UNL     1      27.897  19.575  23.880  1.00  0.00     0.190 HD
ATOM     29  H4  UNL     1      29.216  19.905  22.338  1.00  0.00     0.188 HD
BRANCH  27  30
HETATM   30  C14 UNL     1      28.201  21.101  21.042  1.00  0.00     0.153 C 
HETATM   31  S1  UNL     1      28.329  22.727  21.092  1.00  0.00    -0.051 SA
BRANCH  30  32
HETATM   32  S2  UNL     1      27.923  20.368  19.436  1.00  0.00    -0.100 SA
BRANCH  32  33
HETATM   33  C15 UNL     1      29.438  20.478  18.416  1.00  0.00     0.077 C 
HETATM   34  C16 UNL     1      30.583  19.946  19.216  1.00  0.00     0.016 C 
ENDBRANCH  32  33
ENDBRANCH  30  32
ENDBRANCH  27  30
ENDBRANCH  23  24
ENDBRANCH   5  23
TORSDOF 14
ENDMDL
MODEL 4
REMARK VINA RESULT: -7.443012162      2.751      8.083
REMARK  14 active torsions:
REMARK  status: ('A' for Active; 'I' for Inactive)
REMARK    1  A    between atoms: C2_2  and  O1_3 
REMARK    2  A    between atoms: O1_3  and  C3_4 
REMARK    3  A    between atoms: C3_4  and  C4_6 
REMARK    4  A    between atoms: C4_6  and  O3_8 
REMARK    5  A    between atoms: O3_8  and  C6_9 
REMARK    6  A    between atoms: C6_9  and  C7_11 
REMARK    7  A    between atoms: C7_11  and  N1_13 
REMARK    8  A    between atoms: N1_13  and  C9_15 
REMARK    9  A    between atoms: C10_18  and  O5_19 
REMARK   10  A    between atoms: C11_21  and  C12_22 
REMARK   11  A    between atoms: C12_22  and  C13_23 
REMARK       I    between atoms: C13_23  and  N3_25 
REMARK   12  A    between atoms: N4_27  and  C14_29 
REMARK   13  A    between atoms: C14_29  and  S2_31 
REMARK   14  A    between atoms: S2_31  and  C15_32 
ROOT
HETATM    1  C9  UNL     1      25.619  25.124  24.127  1.00  0.00     0.227 A 
HETATM    2  N2  UNL     1      24.725  24.975  25.118  1.00  0.00    -0.301 N 
ATOM      3  H2  UNL     1      24.469  25.684  25.806  1.00  0.00     0.171 HD
HETATM    4  C10 UNL     1      24.224  23.725  25.046  1.00  0.00     0.174 A 
HETATM    5  C11 UNL     1      24.830  23.097  23.984  1.00  0.00     0.116 A 
HETATM    6  O7  UNL     1      25.645  23.964  23.474  1.00  0.00    -0.279 OA
ENDROOT
BRANCH   1   7
HETATM    7  N1  UNL     1      26.335  26.171  23.829  1.00  0.00    -0.342 N 
ATOM      8  H1  UNL     1      26.092  26.737  23.016  1.00  0.00     0.164 HD
BRANCH   7   9
HETATM    9  C7  UNL     1      27.460  26.531  24.635  1.00  0.00     0.181 C 
HETATM   10  C8  UNL     1      28.460  27.389  23.846  1.00  0.00     0.043 C 
BRANCH   9  11
HETATM   11  C6  UNL     1      27.056  27.358  25.802  1.00  0.00     0.282 C 
HETATM   12  O4  UNL     1      26.885  26.748  26.887  1.00  0.00    -0.263 OA
BRANCH  11  13
HETATM   13  O3  UNL     1      26.858  28.708  25.800  1.00  0.00    -0.305 OA
BRANCH  13  14
HETATM   14  C4  UNL     1      27.168  29.594  26.839  1.00  0.00     0.227 C 
HETATM   15  C5  UNL     1      26.016  30.049  27.648  1.00  0.00     0.051 C 
BRANCH  14  16
HETATM   16  C3  UNL     1      27.823  30.822  26.259  1.00  0.00     0.288 C 
HETATM   17  O2  UNL     1      27.918  31.887  26.899  1.00  0.00    -0.262 OA
BRANCH  16  18
HETATM   18  O1  UNL     1      28.340  30.773  24.967  1.00  0.00    -0.320 OA
BRANCH  18  19
HETATM   19  C2  UNL     1      29.720  30.991  24.735  1.00  0.00     0.174 C 
HETATM   20  C1  UNL     1      30.603  30.025  25.468  1.00  0.00     0.034 C 
ENDBRANCH  18  19
ENDBRANCH  16  18
ENDBRANCH  14  16
ENDBRANCH  13  14
ENDBRANCH  11  13
ENDBRANCH   9  11
ENDBRANCH   7   9
ENDBRANCH   1   7
BRANCH   4  21
HETATM   21  O5  UNL     1      23.269  23.216  25.918  1.00  0.00    -0.344 OA
ATOM     22  H5  UNL     1      23.378  23.171  26.861  1.00  0.00     0.219 HD
ENDBRANCH   4  21
BRANCH   5  23
HETATM   23  C12 UNL     1      24.572  21.702  23.546  1.00  0.00     0.174 C 
BRANCH  23  24
HETATM   24  C13 UNL     1      25.701  21.152  22.778  1.00  0.00     0.242 C 
HETATM   25  O6  UNL     1      25.464  20.476  21.750  1.00  0.00    -0.271 OA
HETATM   26  N3  UNL     1      26.999  21.392  23.211  1.00  0.00    -0.268 N 
HETATM   27  N4  UNL     1      27.976  21.890  22.660  1.00  0.00    -0.282 N 
ATOM     28  H3  UNL     1      27.173  21.099  24.172  1.00  0.00     0.190 HD
ATOM     29  H4  UNL     1      28.809  21.932  23.248  1.00  0.00     0.188 HD
BRANCH  27  30
HETATM   30  C14 UNL     1      28.157  22.407  21.381  1.00  0.00     0.153 C 
HETATM   31  S1  UNL     1      28.033  24.015  21.135  1.00  0.00    -0.051 SA
BRANCH  30  32
HETATM   32  S2  UNL     1      28.529  21.405  19.949  1.00  0.00    -0.100 SA
BRANCH  32  33
HETATM   33  C15 UNL     1      30.310  20.987  19.910  1.00  0.00     0.077 C 
HETATM   34  C16 UNL     1      30.451  19.571  19.456  1.00  0.00     0.016 C 
ENDBRANCH  32  33
ENDBRANCH  30  32
ENDBRANCH  27  30
ENDBRANCH  23  24
ENDBRANCH   5  23
TORSDOF 14
ENDMDL
MODEL 5
REMARK VINA RESULT: -7.420813300      2.615      4.224
REMARK  14 active torsions:
REMARK  status: ('A' for Active; 'I' for Inactive)
REMARK    1  A    between atoms: C2_2  and  O1_3 
REMARK    2  A    between atoms: O1_3  and  C3_4 
REMARK    3  A    between atoms: C3_4  and  C4_6 
REMARK    4  A    between atoms: C4_6  and  O3_8 
REMARK    5  A    between atoms: O3_8  and  C6_9 
REMARK    6  A    between atoms: C6_9  and  C7_11 
REMARK    7  A    between atoms: C7_11  and  N1_13 
REMARK    8  A    between atoms: N1_13  and  C9_15 
REMARK    9  A    between atoms: C10_18  and  O5_19 
REMARK   10  A    between atoms: C11_21  and  C12_22 
REMARK   11  A    between atoms: C12_22  and  C13_23 
REMARK       I    between atoms: C13_23  and  N3_25 
REMARK   12  A    between atoms: N4_27  and  C14_29 
REMARK   13  A    between atoms: C14_29  and  S2_31 
REMARK   14  A    between atoms: S2_31  and  C15_32 
ROOT
HETATM    1  C9  UNL     1      28.000  26.621  23.635  1.00  0.00     0.227 A 
HETATM    2  N2  UNL     1      29.245  27.119  23.700  1.00  0.00    -0.301 N 
ATOM      3  H2  UNL     1      30.087  26.676  23.333  1.00  0.00     0.171 HD
HETATM    4  C10 UNL     1      29.188  28.307  24.335  1.00  0.00     0.174 A 
HETATM    5  C11 UNL     1      27.873  28.537  24.666  1.00  0.00     0.116 A 
HETATM    6  O7  UNL     1      27.211  27.513  24.231  1.00  0.00    -0.279 OA
ENDROOT
BRANCH   1   7
HETATM    7  N1  UNL     1      27.600  25.499  23.105  1.00  0.00    -0.342 N 
ATOM      8  H1  UNL     1      27.670  25.361  22.096  1.00  0.00     0.164 HD
BRANCH   7   9
HETATM    9  C7  UNL     1      27.062  24.461  23.929  1.00  0.00     0.181 C 
HETATM   10  C8  UNL     1      25.527  24.461  23.895  1.00  0.00     0.043 C 
BRANCH   9  11
HETATM   11  C6  UNL     1      27.474  23.115  23.452  1.00  0.00     0.282 C 
HETATM   12  O4  UNL     1      27.120  22.140  24.161  1.00  0.00    -0.263 OA
BRANCH  11  13
HETATM   13  O3  UNL     1      28.191  22.848  22.324  1.00  0.00    -0.305 OA
BRANCH  13  14
HETATM   14  C4  UNL     1      27.669  22.544  21.060  1.00  0.00     0.227 C 
HETATM   15  C5  UNL     1      26.804  21.345  21.004  1.00  0.00     0.051 C 
BRANCH  14  16
HETATM   16  C3  UNL     1      28.808  22.321  20.098  1.00  0.00     0.288 C 
HETATM   17  O2  UNL     1      29.817  23.052  20.083  1.00  0.00    -0.262 OA
BRANCH  16  18
HETATM   18  O1  UNL     1      28.737  21.265  19.191  1.00  0.00    -0.320 OA
BRANCH  18  19
HETATM   19  C2  UNL     1      29.862  20.436  18.963  1.00  0.00     0.174 C 
HETATM   20  C1  UNL     1      30.010  19.345  19.982  1.00  0.00     0.034 C 
ENDBRANCH  18  19
ENDBRANCH  16  18
ENDBRANCH  14  16
ENDBRANCH  13  14
ENDBRANCH  11  13
ENDBRANCH   9  11
ENDBRANCH   7   9
ENDBRANCH   1   7
BRANCH   4  21
HETATM   21  O5  UNL     1      30.292  29.112  24.585  1.00  0.00    -0.344 OA
ATOM     22  H5  UNL     1      30.923  29.372  23.924  1.00  0.00     0.219 HD
ENDBRANCH   4  21
BRANCH   5  23
HETATM   23  C12 UNL     1      27.360  29.734  25.379  1.00  0.00     0.174 C 
BRANCH  23  24
HETATM   24  C13 UNL     1      26.694  29.374  26.642  1.00  0.00     0.242 C 
HETATM   25  O6  UNL     1      26.206  30.284  27.351  1.00  0.00    -0.271 OA
HETATM   26  N3  UNL     1      26.624  28.039  27.017  1.00  0.00    -0.268 N 
HETATM   27  N4  UNL     1      25.680  27.308  27.303  1.00  0.00    -0.282 N 
ATOM     28  H3  UNL     1      27.531  27.576  27.063  1.00  0.00     0.190 HD
ATOM     29  H4  UNL     1      25.950  26.354  27.543  1.00  0.00     0.188 HD
BRANCH  27  30
HETATM   30  C14 UNL     1      24.309  27.543  27.361  1.00  0.00     0.153 C 
HETATM   31  S1  UNL     1      23.306  26.716  26.374  1.00  0.00    -0.051 SA
BRANCH  30  32
HETATM   32  S2  UNL     1      23.549  28.715  28.475  1.00  0.00    -0.100 SA
BRANCH  32  33
HETATM   33  C15 UNL     1      21.952  28.069  29.087  1.00  0.00     0.077 C 
HETATM   34  C16 UNL     1      22.090  27.777  30.546  1.00  0.00     0.016 C 
ENDBRANCH  32  33
ENDBRANCH  30  32
ENDBRANCH  27  30
ENDBRANCH  23  24
ENDBRANCH   5  23
TORSDOF 14
ENDMDL
