MODEL 1
REMARK VINA RESULT: -8.009894970      0.000      0.000
REMARK  4 active torsions:
REMARK  status: ('A' for Active; 'I' for Inactive)
REMARK    1  A    between atoms: C2_2  and  C3_3 
REMARK    2  A    between atoms: C3_3  and  C4_4 
REMARK    3  A    between atoms: C5_7  and  C6_8 
REMARK    4  A    between atoms: C14_18  and  O1_19 
ROOT
HETATM    1  C4  UNL     1      11.916   4.146  21.050  1.00  0.00     0.065 A 
HETATM    2  N1  UNL     1      11.049   4.459  22.031  1.00  0.00    -0.345 N 
ATOM      3  H1  UNL     1      10.317   3.836  22.373  1.00  0.00     0.167 HD
HETATM    4  C5  UNL     1      11.272   5.695  22.500  1.00  0.00     0.087 A 
HETATM    5  N2  UNL     1      12.306   6.175  21.798  1.00  0.00    -0.325 N 
ATOM      6  H2  UNL     1      12.717   7.100  21.920  1.00  0.00     0.169 HD
HETATM    7  C14 UNL     1      12.724   5.254  20.904  1.00  0.00     0.164 A 
ENDROOT
BRANCH   4   8
HETATM    8  C6  UNL     1      10.488   6.378  23.606  1.00  0.00     0.054 C 
HETATM    9  C7  UNL     1       9.650   7.334  22.868  1.00  0.00     0.023 C 
HETATM   10  C8  UNL     1       8.971   8.466  23.703  1.00  0.00     0.080 C 
HETATM   11  C9  UNL     1       8.634   7.845  24.916  1.00  0.00    -0.183 C 
HETATM   12  C10 UNL     1       8.203   7.640  26.235  1.00  0.00     0.080 C 
HETATM   13  C11 UNL     1       8.535   6.136  26.511  1.00  0.00     0.011 C 
HETATM   14  C12 UNL     1       9.772   5.625  25.907  1.00  0.00     0.002 C 
HETATM   15  C13 UNL     1       9.894   5.273  24.452  1.00  0.00     0.012 C 
ENDBRANCH   4   8
BRANCH   1  16
HETATM   16  C3  UNL     1      11.989   2.857  20.276  1.00  0.00     0.088 C 
BRANCH  16  17
HETATM   17  C2  UNL     1      11.342   3.022  18.932  1.00  0.00    -0.031 C 
HETATM   18  C1  UNL     1      10.058   3.321  18.804  1.00  0.00     0.007 C 
ENDBRANCH  16  17
ENDBRANCH   1  16
BRANCH   7  19
HETATM   19  O1  UNL     1      13.759   5.394  20.015  1.00  0.00    -0.345 OA
ATOM     20  H1  UNL     1      14.531   5.935  20.130  1.00  0.00     0.219 HD
ENDBRANCH   7  19
TORSDOF 4
ENDMDL
MODEL 2
REMARK VINA RESULT: -7.697318015      2.659      6.170
REMARK  4 active torsions:
REMARK  status: ('A' for Active; 'I' for Inactive)
REMARK    1  A    between atoms: C2_2  and  C3_3 
REMARK    2  A    between atoms: C3_3  and  C4_4 
REMARK    3  A    between atoms: C5_7  and  C6_8 
REMARK    4  A    between atoms: C14_18  and  O1_19 
ROOT
HETATM    1  C4  UNL     1       8.473   7.552  24.614  1.00  0.00     0.065 A 
HETATM    2  N1  UNL     1       9.340   6.603  24.216  1.00  0.00    -0.345 N 
ATOM      3  H1  UNL     1       9.651   5.825  24.798  1.00  0.00     0.167 HD
HETATM    4  C5  UNL     1       9.741   6.811  22.953  1.00  0.00     0.087 A 
HETATM    5  N2  UNL     1       9.112   7.920  22.544  1.00  0.00    -0.325 N 
ATOM      6  H2  UNL     1       9.211   8.341  21.621  1.00  0.00     0.169 HD
HETATM    7  C14 UNL     1       8.329   8.397  23.534  1.00  0.00     0.164 A 
ENDROOT
BRANCH   4   8
HETATM    8  C6  UNL     1      10.715   5.942  22.178  1.00  0.00     0.054 C 
HETATM    9  C7  UNL     1      12.023   6.417  22.652  1.00  0.00     0.023 C 
HETATM   10  C8  UNL     1      13.271   6.002  21.809  1.00  0.00     0.080 C 
HETATM   11  C9  UNL     1      12.978   4.698  21.378  1.00  0.00    -0.183 C 
HETATM   12  C10 UNL     1      13.049   3.467  20.711  1.00  0.00     0.080 C 
HETATM   13  C11 UNL     1      11.703   2.759  21.081  1.00  0.00     0.011 C 
HETATM   14  C12 UNL     1      10.524   3.626  21.190  1.00  0.00     0.002 C 
HETATM   15  C13 UNL     1      10.259   4.512  22.374  1.00  0.00     0.012 C 
ENDBRANCH   4   8
BRANCH   1  16
HETATM   16  C3  UNL     1       7.801   7.666  25.956  1.00  0.00     0.088 C 
BRANCH  16  17
HETATM   17  C2  UNL     1       8.612   6.959  27.004  1.00  0.00    -0.031 C 
HETATM   18  C1  UNL     1       8.283   5.757  27.452  1.00  0.00     0.007 C 
ENDBRANCH  16  17
ENDBRANCH   1  16
BRANCH   7  19
HETATM   19  O1  UNL     1       7.538   9.516  23.478  1.00  0.00    -0.345 OA
ATOM     20  H1  UNL     1       7.495  10.140  22.762  1.00  0.00     0.219 HD
ENDBRANCH   7  19
TORSDOF 4
ENDMDL
MODEL 3
REMARK VINA RESULT: -7.437211685      1.151      2.148
REMARK  4 active torsions:
REMARK  status: ('A' for Active; 'I' for Inactive)
REMARK    1  A    between atoms: C2_2  and  C3_3 
REMARK    2  A    between atoms: C3_3  and  C4_4 
REMARK    3  A    between atoms: C5_7  and  C6_8 
REMARK    4  A    between atoms: C14_18  and  O1_19 
ROOT
HETATM    1  C4  UNL     1      12.005   4.899  21.667  1.00  0.00     0.065 A 
HETATM    2  N1  UNL     1      10.895   4.812  22.424  1.00  0.00    -0.345 N 
ATOM      3  H1  UNL     1      10.204   4.066  22.349  1.00  0.00     0.167 HD
HETATM    4  C5  UNL     1      10.816   5.834  23.289  1.00  0.00     0.087 A 
HETATM    5  N2  UNL     1      11.903   6.585  23.073  1.00  0.00    -0.325 N 
ATOM      6  H2  UNL     1      12.132   7.442  23.577  1.00  0.00     0.169 HD
HETATM    7  C14 UNL     1      12.651   6.042  22.089  1.00  0.00     0.164 A 
ENDROOT
BRANCH   4   8
HETATM    8  C6  UNL     1       9.702   6.060  24.294  1.00  0.00     0.054 C 
HETATM    9  C7  UNL     1      10.287   5.560  25.546  1.00  0.00     0.023 C 
HETATM   10  C8  UNL     1       9.300   5.299  26.729  1.00  0.00     0.080 C 
HETATM   11  C9  UNL     1       8.350   6.327  26.620  1.00  0.00    -0.183 C 
HETATM   12  C10 UNL     1       7.207   7.112  26.823  1.00  0.00     0.080 C 
HETATM   13  C11 UNL     1       7.278   8.183  25.683  1.00  0.00     0.011 C 
HETATM   14  C12 UNL     1       7.802   7.721  24.392  1.00  0.00     0.002 C 
HETATM   15  C13 UNL     1       9.264   7.499  24.127  1.00  0.00     0.012 C 
ENDBRANCH   4   8
BRANCH   1  16
HETATM   16  C3  UNL     1      12.448   3.947  20.588  1.00  0.00     0.088 C 
BRANCH  16  17
HETATM   17  C2  UNL     1      12.321   4.595  19.241  1.00  0.00    -0.031 C 
HETATM   18  C1  UNL     1      11.442   4.178  18.342  1.00  0.00     0.007 C 
ENDBRANCH  16  17
ENDBRANCH   1  16
BRANCH   7  19
HETATM   19  O1  UNL     1      13.834   6.535  21.600  1.00  0.00    -0.345 OA
ATOM     20  H1  UNL     1      14.046   7.450  21.457  1.00  0.00     0.219 HD
ENDBRANCH   7  19
TORSDOF 4
ENDMDL
MODEL 4
REMARK VINA RESULT: -7.363688081      0.890      1.918
REMARK  4 active torsions:
REMARK  status: ('A' for Active; 'I' for Inactive)
REMARK    1  A    between atoms: C2_2  and  C3_3 
REMARK    2  A    between atoms: C3_3  and  C4_4 
REMARK    3  A    between atoms: C5_7  and  C6_8 
REMARK    4  A    between atoms: C14_18  and  O1_19 
ROOT
HETATM    1  C4  UNL     1      11.584   4.408  20.214  1.00  0.00     0.065 A 
HETATM    2  N1  UNL     1      10.528   4.595  21.027  1.00  0.00    -0.345 N 
ATOM      3  H1  UNL     1       9.622   4.139  20.911  1.00  0.00     0.167 HD
HETATM    4  C5  UNL     1      10.819   5.458  22.011  1.00  0.00     0.087 A 
HETATM    5  N2  UNL     1      12.092   5.826  21.814  1.00  0.00    -0.325 N 
ATOM      6  H2  UNL     1      12.609   6.480  22.401  1.00  0.00     0.169 HD
HETATM    7  C14 UNL     1      12.588   5.202  20.725  1.00  0.00     0.164 A 
ENDROOT
BRANCH   4   8
HETATM    8  C6  UNL     1       9.870   5.905  23.109  1.00  0.00     0.054 C 
HETATM    9  C7  UNL     1      10.628   5.609  24.333  1.00  0.00     0.023 C 
HETATM   10  C8  UNL     1       9.824   5.603  25.673  1.00  0.00     0.080 C 
HETATM   11  C9  UNL     1       8.885   6.634  25.518  1.00  0.00    -0.183 C 
HETATM   12  C10 UNL     1       7.797   7.491  25.737  1.00  0.00     0.080 C 
HETATM   13  C11 UNL     1       7.715   8.340  24.425  1.00  0.00     0.011 C 
HETATM   14  C12 UNL     1       8.033   7.636  23.177  1.00  0.00     0.002 C 
HETATM   15  C13 UNL     1       9.436   7.309  22.750  1.00  0.00     0.012 C 
ENDBRANCH   4   8
BRANCH   1  16
HETATM   16  C3  UNL     1      11.653   3.518  19.002  1.00  0.00     0.088 C 
BRANCH  16  17
HETATM   17  C2  UNL     1      10.637   3.948  17.984  1.00  0.00    -0.031 C 
HETATM   18  C1  UNL     1       9.565   3.219  17.712  1.00  0.00     0.007 C 
ENDBRANCH  16  17
ENDBRANCH   1  16
BRANCH   7  19
HETATM   19  O1  UNL     1      13.857   5.334  20.220  1.00  0.00    -0.345 OA
ATOM     20  H1  UNL     1      14.109   5.838  19.456  1.00  0.00     0.219 HD
ENDBRANCH   7  19
TORSDOF 4
ENDMDL
MODEL 5
REMARK VINA RESULT: -7.278269364      2.709      6.352
REMARK  4 active torsions:
REMARK  status: ('A' for Active; 'I' for Inactive)
REMARK    1  A    between atoms: C2_2  and  C3_3 
REMARK    2  A    between atoms: C3_3  and  C4_4 
REMARK    3  A    between atoms: C5_7  and  C6_8 
REMARK    4  A    between atoms: C14_18  and  O1_19 
ROOT
HETATM    1  C4  UNL     1       8.333   7.406  24.924  1.00  0.00     0.065 A 
HETATM    2  N1  UNL     1       9.191   6.403  24.664  1.00  0.00    -0.345 N 
ATOM      3  H1  UNL     1       9.440   5.669  25.328  1.00  0.00     0.167 HD
HETATM    4  C5  UNL     1       9.678   6.492  23.417  1.00  0.00     0.087 A 
HETATM    5  N2  UNL     1       9.113   7.579  22.877  1.00  0.00    -0.325 N 
ATOM      6  H2  UNL     1       9.283   7.917  21.930  1.00  0.00     0.169 HD
HETATM    7  C14 UNL     1       8.285   8.160  23.771  1.00  0.00     0.164 A 
ENDROOT
BRANCH   4   8
HETATM    8  C6  UNL     1      10.670   5.534  22.782  1.00  0.00     0.054 C 
HETATM    9  C7  UNL     1       9.799   4.511  22.187  1.00  0.00     0.023 C 
HETATM   10  C8  UNL     1      10.478   3.171  21.757  1.00  0.00     0.080 C 
HETATM   11  C9  UNL     1      11.736   3.563  21.271  1.00  0.00    -0.183 C 
HETATM   12  C10 UNL     1      13.049   3.518  20.782  1.00  0.00     0.080 C 
HETATM   13  C11 UNL     1      13.499   5.017  20.773  1.00  0.00     0.011 C 
HETATM   14  C12 UNL     1      13.007   5.848  21.878  1.00  0.00     0.002 C 
HETATM   15  C13 UNL     1      11.604   6.382  21.946  1.00  0.00     0.012 C 
ENDBRANCH   4   8
BRANCH   1  16
HETATM   16  C3  UNL     1       7.582   7.651  26.206  1.00  0.00     0.088 C 
BRANCH  16  17
HETATM   17  C2  UNL     1       8.309   7.026  27.361  1.00  0.00    -0.031 C 
HETATM   18  C1  UNL     1       8.178   5.742  27.659  1.00  0.00     0.007 C 
ENDBRANCH  16  17
ENDBRANCH   1  16
BRANCH   7  19
HETATM   19  O1  UNL     1       7.536   9.291  23.570  1.00  0.00    -0.345 OA
ATOM     20  H1  UNL     1       7.835  10.102  23.176  1.00  0.00     0.219 HD
ENDBRANCH   7  19
TORSDOF 4
ENDMDL
