MODEL 1
REMARK VINA RESULT: -6.657539573      0.000      0.000
REMARK  4 active torsions:
REMARK  status: ('A' for Active; 'I' for Inactive)
REMARK    1  A    between atoms: C5_5  and  C7_7 
REMARK    2  A    between atoms: C7_7  and  C8_8 
REMARK    3  A    between atoms: C8_8  and  C9_9 
REMARK    4  A    between atoms: C9_9  and  O1_10 
ROOT
HETATM    1  C1  UNL     1      10.531   7.944  22.715  1.00  0.00     0.017 C 
HETATM    2  C2  UNL     1      10.612   6.421  22.922  1.00  0.00    -0.023 C 
HETATM    3  C3  UNL     1      12.016   6.205  23.481  1.00  0.00     0.017 C 
HETATM    4  C4  UNL     1      10.583   5.830  21.541  1.00  0.00     0.022 C 
HETATM    5  C5  UNL     1       9.917   4.514  21.434  1.00  0.00    -0.019 C 
HETATM    6  C6  UNL     1       9.650   4.254  19.945  1.00  0.00     0.018 C 
HETATM    7  C10 UNL     1       8.582   4.571  22.106  1.00  0.00     0.026 C 
HETATM    8  C11 UNL     1       7.635   5.522  21.438  1.00  0.00     0.038 C 
HETATM    9  C12 UNL     1       7.862   3.214  22.036  1.00  0.00     0.038 C 
HETATM   10  N1  UNL     1       8.734   4.906  23.457  1.00  0.00    -0.404 N 
ATOM     11  H1  UNL     1       8.246   4.364  24.171  1.00  0.00     0.154 HD
HETATM   12  C13 UNL     1       9.546   5.974  23.834  1.00  0.00     0.026 C 
HETATM   13  C14 UNL     1       8.627   7.162  24.175  1.00  0.00     0.038 C 
HETATM   14  C15 UNL     1      10.134   5.605  25.213  1.00  0.00     0.038 C 
ENDROOT
BRANCH   5  15
HETATM   15  C7  UNL     1      10.768   3.402  21.918  1.00  0.00     0.014 C 
BRANCH  15  16
HETATM   16  C8  UNL     1      11.635   2.787  20.841  1.00  0.00     0.027 C 
BRANCH  16  17
HETATM   17  C9  UNL     1      13.040   3.368  21.071  1.00  0.00     0.164 C 
BRANCH  17  18
HETATM   18  O1  UNL     1      13.432   4.156  20.002  1.00  0.00    -0.401 OA
ATOM     19  H1  UNL     1      12.914   4.951  19.956  1.00  0.00     0.209 HD
ENDBRANCH  17  18
ENDBRANCH  16  17
ENDBRANCH  15  16
ENDBRANCH   5  15
TORSDOF 4
ENDMDL
MODEL 2
REMARK VINA RESULT: -6.052291902      2.336      4.616
REMARK  4 active torsions:
REMARK  status: ('A' for Active; 'I' for Inactive)
REMARK    1  A    between atoms: C5_5  and  C7_7 
REMARK    2  A    between atoms: C7_7  and  C8_8 
REMARK    3  A    between atoms: C8_8  and  C9_9 
REMARK    4  A    between atoms: C9_9  and  O1_10 
ROOT
HETATM    1  C1  UNL     1      13.105   3.087  21.357  1.00  0.00     0.017 C 
HETATM    2  C2  UNL     1      12.372   4.420  21.117  1.00  0.00    -0.023 C 
HETATM    3  C3  UNL     1      13.488   5.380  20.713  1.00  0.00     0.017 C 
HETATM    4  C4  UNL     1      11.878   4.850  22.469  1.00  0.00     0.022 C 
HETATM    5  C5  UNL     1      10.599   5.594  22.462  1.00  0.00    -0.019 C 
HETATM    6  C6  UNL     1      10.072   5.613  23.904  1.00  0.00     0.018 C 
HETATM    7  C10 UNL     1       9.589   4.849  21.647  1.00  0.00     0.026 C 
HETATM    8  C11 UNL     1       9.240   3.514  22.232  1.00  0.00     0.038 C 
HETATM    9  C12 UNL     1       8.248   5.599  21.597  1.00  0.00     0.038 C 
HETATM   10  N1  UNL     1      10.045   4.699  20.331  1.00  0.00    -0.404 N 
ATOM     11  H1  UNL     1       9.424   4.918  19.553  1.00  0.00     0.154 HD
HETATM   12  C13 UNL     1      11.342   4.254  20.079  1.00  0.00     0.026 C 
HETATM   13  C14 UNL     1      11.255   2.771  19.671  1.00  0.00     0.038 C 
HETATM   14  C15 UNL     1      11.784   4.932  18.765  1.00  0.00     0.038 C 
ENDROOT
BRANCH   5  15
HETATM   15  C7  UNL     1      10.761   7.006  22.045  1.00  0.00     0.014 C 
BRANCH  15  16
HETATM   16  C8  UNL     1      10.467   8.003  23.145  1.00  0.00     0.027 C 
BRANCH  16  17
HETATM   17  C9  UNL     1       9.503   9.023  22.519  1.00  0.00     0.164 C 
BRANCH  17  18
HETATM   18  O1  UNL     1      10.095  10.272  22.423  1.00  0.00    -0.401 OA
ATOM     19  H1  UNL     1      10.500  10.392  21.571  1.00  0.00     0.209 HD
ENDBRANCH  17  18
ENDBRANCH  16  17
ENDBRANCH  15  16
ENDBRANCH   5  15
TORSDOF 4
ENDMDL
MODEL 3
REMARK VINA RESULT: -5.847792258      1.822      3.533
REMARK  4 active torsions:
REMARK  status: ('A' for Active; 'I' for Inactive)
REMARK    1  A    between atoms: C5_5  and  C7_7 
REMARK    2  A    between atoms: C7_7  and  C8_8 
REMARK    3  A    between atoms: C8_8  and  C9_9 
REMARK    4  A    between atoms: C9_9  and  O1_10 
ROOT
HETATM    1  C1  UNL     1      10.419   5.195  24.498  1.00  0.00     0.017 C 
HETATM    2  C2  UNL     1      10.141   5.362  22.993  1.00  0.00    -0.023 C 
HETATM    3  C3  UNL     1       8.661   5.731  22.936  1.00  0.00     0.017 C 
HETATM    4  C4  UNL     1      10.283   3.985  22.409  1.00  0.00     0.022 C 
HETATM    5  C5  UNL     1      10.805   3.941  21.025  1.00  0.00    -0.019 C 
HETATM    6  C6  UNL     1      11.233   2.494  20.743  1.00  0.00     0.018 C 
HETATM    7  C10 UNL     1      12.040   4.780  20.928  1.00  0.00     0.026 C 
HETATM    8  C11 UNL     1      13.166   4.257  21.767  1.00  0.00     0.038 C 
HETATM    9  C12 UNL     1      12.605   4.777  19.498  1.00  0.00     0.038 C 
HETATM   10  N1  UNL     1      11.752   6.106  21.272  1.00  0.00    -0.404 N 
ATOM     11  H1  UNL     1      12.078   6.866  20.676  1.00  0.00     0.154 HD
HETATM   12  C13 UNL     1      11.022   6.395  22.424  1.00  0.00     0.026 C 
HETATM   13  C14 UNL     1      12.016   6.873  23.499  1.00  0.00     0.038 C 
HETATM   14  C15 UNL     1      10.223   7.679  22.119  1.00  0.00     0.038 C 
ENDROOT
BRANCH   5  15
HETATM   15  C7  UNL     1       9.779   4.290  20.016  1.00  0.00     0.014 C 
BRANCH  15  16
HETATM   16  C8  UNL     1       9.307   3.110  19.194  1.00  0.00     0.027 C 
BRANCH  16  17
HETATM   17  C9  UNL     1       9.555   3.511  17.731  1.00  0.00     0.164 C 
BRANCH  17  18
HETATM   18  O1  UNL     1      10.672   2.867  17.222  1.00  0.00    -0.401 OA
ATOM     19  H1  UNL     1      11.397   3.472  17.119  1.00  0.00     0.209 HD
ENDBRANCH  17  18
ENDBRANCH  16  17
ENDBRANCH  15  16
ENDBRANCH   5  15
TORSDOF 4
ENDMDL
MODEL 4
REMARK VINA RESULT: -5.772548679      2.205      3.827
REMARK  4 active torsions:
REMARK  status: ('A' for Active; 'I' for Inactive)
REMARK    1  A    between atoms: C5_5  and  C7_7 
REMARK    2  A    between atoms: C7_7  and  C8_8 
REMARK    3  A    between atoms: C8_8  and  C9_9 
REMARK    4  A    between atoms: C9_9  and  O1_10 
ROOT
HETATM    1  C1  UNL     1      10.515   5.328  24.597  1.00  0.00     0.017 C 
HETATM    2  C2  UNL     1      10.187   5.524  23.105  1.00  0.00    -0.023 C 
HETATM    3  C3  UNL     1       8.751   6.044  23.115  1.00  0.00     0.017 C 
HETATM    4  C4  UNL     1      10.159   4.141  22.520  1.00  0.00     0.022 C 
HETATM    5  C5  UNL     1      10.610   4.046  21.114  1.00  0.00    -0.019 C 
HETATM    6  C6  UNL     1      10.874   2.563  20.816  1.00  0.00     0.018 C 
HETATM    7  C10 UNL     1      11.919   4.753  20.958  1.00  0.00     0.026 C 
HETATM    8  C11 UNL     1      13.023   4.116  21.746  1.00  0.00     0.038 C 
HETATM    9  C12 UNL     1      12.416   4.695  19.503  1.00  0.00     0.038 C 
HETATM   10  N1  UNL     1      11.785   6.102  21.311  1.00  0.00    -0.404 N 
ATOM     11  H1  UNL     1      12.161   6.825  20.698  1.00  0.00     0.154 HD
HETATM   12  C13 UNL     1      11.143   6.462  22.494  1.00  0.00     0.026 C 
HETATM   13  C14 UNL     1      12.229   6.834  23.520  1.00  0.00     0.038 C 
HETATM   14  C15 UNL     1      10.466   7.823  22.222  1.00  0.00     0.038 C 
ENDROOT
BRANCH   5  15
HETATM   15  C7  UNL     1       9.581   4.500  20.151  1.00  0.00     0.014 C 
BRANCH  15  16
HETATM   16  C8  UNL     1       8.622   3.410  19.725  1.00  0.00     0.027 C 
BRANCH  16  17
HETATM   17  C9  UNL     1       7.246   3.854  20.245  1.00  0.00     0.164 C 
BRANCH  17  18
HETATM   18  O1  UNL     1       6.902   3.162  21.394  1.00  0.00    -0.401 OA
ATOM     19  H1  UNL     1       6.019   2.814  21.332  1.00  0.00     0.209 HD
ENDBRANCH  17  18
ENDBRANCH  16  17
ENDBRANCH  15  16
ENDBRANCH   5  15
TORSDOF 4
ENDMDL
MODEL 5
REMARK VINA RESULT: -5.467794208      1.689      4.189
REMARK  4 active torsions:
REMARK  status: ('A' for Active; 'I' for Inactive)
REMARK    1  A    between atoms: C5_5  and  C7_7 
REMARK    2  A    between atoms: C7_7  and  C8_8 
REMARK    3  A    between atoms: C8_8  and  C9_9 
REMARK    4  A    between atoms: C9_9  and  O1_10 
ROOT
HETATM    1  C1  UNL     1      11.968   2.242  20.590  1.00  0.00     0.017 C 
HETATM    2  C2  UNL     1      11.561   3.727  20.617  1.00  0.00    -0.023 C 
HETATM    3  C3  UNL     1      12.868   4.467  20.341  1.00  0.00     0.017 C 
HETATM    4  C4  UNL     1      11.179   4.008  22.042  1.00  0.00     0.022 C 
HETATM    5  C5  UNL     1      10.105   5.010  22.218  1.00  0.00    -0.019 C 
HETATM    6  C6  UNL     1       9.597   4.889  23.662  1.00  0.00     0.018 C 
HETATM    7  C10 UNL     1       8.952   4.671  21.328  1.00  0.00     0.026 C 
HETATM    8  C11 UNL     1       8.305   3.367  21.684  1.00  0.00     0.038 C 
HETATM    9  C12 UNL     1       7.818   5.702  21.465  1.00  0.00     0.038 C 
HETATM   10  N1  UNL     1       9.361   4.661  19.989  1.00  0.00    -0.404 N 
ATOM     11  H1  UNL     1       8.806   5.150  19.286  1.00  0.00     0.154 HD
HETATM   12  C13 UNL     1      10.520   3.987  19.609  1.00  0.00     0.026 C 
HETATM   13  C14 UNL     1      10.095   2.660  18.953  1.00  0.00     0.038 C 
HETATM   14  C15 UNL     1      11.106   4.772  18.416  1.00  0.00     0.038 C 
ENDROOT
BRANCH   5  15
HETATM   15  C7  UNL     1      10.587   6.400  22.048  1.00  0.00     0.014 C 
BRANCH  15  16
HETATM   16  C8  UNL     1      11.555   6.844  23.123  1.00  0.00     0.027 C 
BRANCH  16  17
HETATM   17  C9  UNL     1      12.452   7.896  22.450  1.00  0.00     0.164 C 
BRANCH  17  18
HETATM   18  O1  UNL     1      13.667   7.345  22.075  1.00  0.00    -0.401 OA
ATOM     19  H1  UNL     1      13.619   6.977  21.201  1.00  0.00     0.209 HD
ENDBRANCH  17  18
ENDBRANCH  16  17
ENDBRANCH  15  16
ENDBRANCH   5  15
TORSDOF 4
ENDMDL
