MODEL 1
REMARK VINA RESULT: -8.298481366      0.000      0.000
REMARK  4 active torsions:
REMARK  status: ('A' for Active; 'I' for Inactive)
REMARK    1  A    between atoms: C3_3  and  C4_4 
REMARK    2  A    between atoms: C3_3  and  C11_11 
REMARK    3  A    between atoms: C4_4  and  C5_5 
REMARK    4  A    between atoms: C11_11  and  O1_12 
ROOT
HETATM    1  C1  UNL     1       9.345  10.054  23.242  1.00  0.00     0.012 C 
HETATM    2  C2  UNL     1       9.528   8.852  23.179  1.00  0.00    -0.110 C 
HETATM    3  C3  UNL     1       9.743   7.444  23.105  1.00  0.00     0.099 C 
ENDROOT
BRANCH   3   4
HETATM    4  C4  UNL     1      11.119   6.935  23.162  1.00  0.00     0.025 C 
BRANCH   4   5
HETATM    5  C5  UNL     1      11.700   6.454  21.860  1.00  0.00    -0.013 C 
HETATM    6  C6  UNL     1      10.930   5.334  21.216  1.00  0.00     0.005 C 
HETATM    7  C7  UNL     1      11.355   4.016  21.869  1.00  0.00     0.000 C 
HETATM    8  C8  UNL     1      12.714   3.654  21.259  1.00  0.00     0.000 C 
HETATM    9  C9  UNL     1      13.510   4.940  21.023  1.00  0.00     0.000 C 
HETATM   10  C10 UNL     1      13.132   5.970  22.083  1.00  0.00     0.005 C 
ENDBRANCH   4   5
ENDBRANCH   3   4
BRANCH   3  11
HETATM   11  C11 UNL     1       8.799   6.661  24.056  1.00  0.00     0.072 C 
HETATM   12  C12 UNL     1       9.496   5.526  24.696  1.00  0.00     0.039 C 
HETATM   13  C13 UNL     1       9.603   5.515  26.172  1.00  0.00     0.003 C 
HETATM   14  C14 UNL     1       8.549   6.266  26.917  1.00  0.00     0.000 C 
HETATM   15  C15 UNL     1       8.529   7.670  26.363  1.00  0.00     0.003 C 
HETATM   16  C16 UNL     1       8.108   7.630  24.937  1.00  0.00     0.039 C 
BRANCH  11  17
HETATM   17  O1  UNL     1       7.816   6.125  23.203  1.00  0.00    -0.389 OA
ATOM     18  H1  UNL     1       7.634   5.267  23.567  1.00  0.00     0.210 HD
ENDBRANCH  11  17
ENDBRANCH   3  11
TORSDOF 4
ENDMDL
MODEL 2
REMARK VINA RESULT: -8.064483316      1.756      5.774
REMARK  4 active torsions:
REMARK  status: ('A' for Active; 'I' for Inactive)
REMARK    1  A    between atoms: C3_3  and  C4_4 
REMARK    2  A    between atoms: C3_3  and  C11_11 
REMARK    3  A    between atoms: C4_4  and  C5_5 
REMARK    4  A    between atoms: C11_11  and  O1_12 
ROOT
HETATM    1  C1  UNL     1      12.421   6.617  22.249  1.00  0.00     0.012 C 
HETATM    2  C2  UNL     1      11.596   5.783  22.576  1.00  0.00    -0.110 C 
HETATM    3  C3  UNL     1      10.629   4.808  22.959  1.00  0.00     0.099 C 
ENDROOT
BRANCH   3   4
HETATM    4  C4  UNL     1       9.434   5.247  23.689  1.00  0.00     0.025 C 
BRANCH   4   5
HETATM    5  C5  UNL     1       9.657   6.271  24.769  1.00  0.00    -0.013 C 
HETATM    6  C6  UNL     1      10.092   5.693  26.087  1.00  0.00     0.005 C 
HETATM    7  C7  UNL     1       8.849   5.205  26.836  1.00  0.00     0.000 C 
HETATM    8  C8  UNL     1       8.180   6.456  27.417  1.00  0.00     0.000 C 
HETATM    9  C9  UNL     1       8.345   7.612  26.427  1.00  0.00     0.000 C 
HETATM   10  C10 UNL     1       8.369   7.059  25.005  1.00  0.00     0.005 C 
ENDBRANCH   4   5
ENDBRANCH   3   4
BRANCH   3  11
HETATM   11  C11 UNL     1      10.272   3.852  21.790  1.00  0.00     0.072 C 
HETATM   12  C12 UNL     1       9.988   4.599  20.548  1.00  0.00     0.039 C 
HETATM   13  C13 UNL     1      10.846   4.349  19.369  1.00  0.00     0.003 C 
HETATM   14  C14 UNL     1      11.509   3.012  19.305  1.00  0.00     0.000 C 
HETATM   15  C15 UNL     1      12.261   2.828  20.601  1.00  0.00     0.003 C 
HETATM   16  C16 UNL     1      11.293   2.780  21.729  1.00  0.00     0.039 C 
BRANCH  11  17
HETATM   17  O1  UNL     1       9.073   3.239  22.198  1.00  0.00    -0.389 OA
ATOM     18  H1  UNL     1       8.480   3.966  22.350  1.00  0.00     0.210 HD
ENDBRANCH  11  17
ENDBRANCH   3  11
TORSDOF 4
ENDMDL
MODEL 3
REMARK VINA RESULT: -7.941415766      1.645      2.845
REMARK  4 active torsions:
REMARK  status: ('A' for Active; 'I' for Inactive)
REMARK    1  A    between atoms: C3_3  and  C4_4 
REMARK    2  A    between atoms: C3_3  and  C11_11 
REMARK    3  A    between atoms: C4_4  and  C5_5 
REMARK    4  A    between atoms: C11_11  and  O1_12 
ROOT
HETATM    1  C1  UNL     1      11.947   7.443  22.448  1.00  0.00     0.012 C 
HETATM    2  C2  UNL     1      11.249   6.448  22.364  1.00  0.00    -0.110 C 
HETATM    3  C3  UNL     1      10.432   5.283  22.265  1.00  0.00     0.099 C 
ENDROOT
BRANCH   3   4
HETATM    4  C4  UNL     1      11.081   3.968  22.217  1.00  0.00     0.025 C 
BRANCH   4   5
HETATM    5  C5  UNL     1      11.088   3.282  20.877  1.00  0.00    -0.013 C 
HETATM    6  C6  UNL     1      12.433   3.258  20.204  1.00  0.00     0.005 C 
HETATM    7  C7  UNL     1      12.643   4.598  19.495  1.00  0.00     0.000 C 
HETATM    8  C8  UNL     1      11.813   4.538  18.208  1.00  0.00     0.000 C 
HETATM    9  C9  UNL     1      10.523   3.762  18.486  1.00  0.00     0.000 C 
HETATM   10  C10 UNL     1      10.105   3.979  19.937  1.00  0.00     0.005 C 
ENDBRANCH   4   5
ENDBRANCH   3   4
BRANCH   3  11
HETATM   11  C11 UNL     1       9.257   5.310  23.278  1.00  0.00     0.072 C 
HETATM   12  C12 UNL     1       9.744   5.339  24.672  1.00  0.00     0.039 C 
HETATM   13  C13 UNL     1       9.382   6.499  25.515  1.00  0.00     0.003 C 
HETATM   14  C14 UNL     1       8.128   7.222  25.143  1.00  0.00     0.000 C 
HETATM   15  C15 UNL     1       8.249   7.598  23.687  1.00  0.00     0.003 C 
HETATM   16  C16 UNL     1       8.300   6.362  22.861  1.00  0.00     0.039 C 
BRANCH  11  17
HETATM   17  O1  UNL     1       8.605   4.078  23.084  1.00  0.00    -0.389 OA
ATOM     18  H1  UNL     1       7.824   4.302  22.593  1.00  0.00     0.210 HD
ENDBRANCH  11  17
ENDBRANCH   3  11
TORSDOF 4
ENDMDL
MODEL 4
REMARK VINA RESULT: -7.699502472      1.916      5.396
REMARK  4 active torsions:
REMARK  status: ('A' for Active; 'I' for Inactive)
REMARK    1  A    between atoms: C3_3  and  C4_4 
REMARK    2  A    between atoms: C3_3  and  C11_11 
REMARK    3  A    between atoms: C4_4  and  C5_5 
REMARK    4  A    between atoms: C11_11  and  O1_12 
ROOT
HETATM    1  C1  UNL     1       7.167   4.785  20.898  1.00  0.00     0.012 C 
HETATM    2  C2  UNL     1       8.258   5.037  21.377  1.00  0.00    -0.110 C 
HETATM    3  C3  UNL     1       9.535   5.332  21.939  1.00  0.00     0.099 C 
ENDROOT
BRANCH   3   4
HETATM    4  C4  UNL     1       9.623   5.635  23.372  1.00  0.00     0.025 C 
BRANCH   4   5
HETATM    5  C5  UNL     1       9.831   7.082  23.731  1.00  0.00    -0.013 C 
HETATM    6  C6  UNL     1       8.616   7.756  24.307  1.00  0.00     0.005 C 
HETATM    7  C7  UNL     1       7.711   8.193  23.151  1.00  0.00     0.000 C 
HETATM    8  C8  UNL     1       8.343   9.463  22.569  1.00  0.00     0.000 C 
HETATM    9  C9  UNL     1       9.868   9.333  22.634  1.00  0.00     0.000 C 
HETATM   10  C10 UNL     1      10.256   7.864  22.489  1.00  0.00     0.005 C 
ENDBRANCH   4   5
ENDBRANCH   3   4
BRANCH   3  11
HETATM   11  C11 UNL     1      10.614   4.308  21.498  1.00  0.00     0.072 C 
HETATM   12  C12 UNL     1      10.583   4.082  20.039  1.00  0.00     0.039 C 
HETATM   13  C13 UNL     1      11.792   4.414  19.254  1.00  0.00     0.003 C 
HETATM   14  C14 UNL     1      13.091   4.376  19.991  1.00  0.00     0.000 C 
HETATM   15  C15 UNL     1      12.940   5.267  21.200  1.00  0.00     0.003 C 
HETATM   16  C16 UNL     1      11.908   4.696  22.107  1.00  0.00     0.039 C 
BRANCH  11  17
HETATM   17  O1  UNL     1      10.225   3.107  22.120  1.00  0.00    -0.389 OA
ATOM     18  H1  UNL     1      10.809   2.454  21.752  1.00  0.00     0.210 HD
ENDBRANCH  11  17
ENDBRANCH   3  11
TORSDOF 4
ENDMDL
MODEL 5
REMARK VINA RESULT: -7.667783841      1.980      3.429
REMARK  4 active torsions:
REMARK  status: ('A' for Active; 'I' for Inactive)
REMARK    1  A    between atoms: C3_3  and  C4_4 
REMARK    2  A    between atoms: C3_3  and  C11_11 
REMARK    3  A    between atoms: C4_4  and  C5_5 
REMARK    4  A    between atoms: C11_11  and  O1_12 
ROOT
HETATM    1  C1  UNL     1      13.024   6.970  22.428  1.00  0.00     0.012 C 
HETATM    2  C2  UNL     1      11.894   6.514  22.438  1.00  0.00    -0.110 C 
HETATM    3  C3  UNL     1      10.573   5.979  22.449  1.00  0.00     0.099 C 
ENDROOT
BRANCH   3   4
HETATM    4  C4  UNL     1      10.387   4.562  22.782  1.00  0.00     0.025 C 
BRANCH   4   5
HETATM    5  C5  UNL     1      10.238   3.623  21.616  1.00  0.00    -0.013 C 
HETATM    6  C6  UNL     1      11.465   2.805  21.320  1.00  0.00     0.005 C 
HETATM    7  C7  UNL     1      12.424   3.657  20.484  1.00  0.00     0.000 C 
HETATM    8  C8  UNL     1      11.870   3.648  19.054  1.00  0.00     0.000 C 
HETATM    9  C9  UNL     1      10.340   3.656  19.114  1.00  0.00     0.000 C 
HETATM   10  C10 UNL     1       9.888   4.416  20.358  1.00  0.00     0.005 C 
ENDBRANCH   4   5
ENDBRANCH   3   4
BRANCH   3  11
HETATM   11  C11 UNL     1       9.584   6.888  23.228  1.00  0.00     0.072 C 
HETATM   12  C12 UNL     1       9.909   8.318  23.049  1.00  0.00     0.039 C 
HETATM   13  C13 UNL     1       8.894   9.192  22.423  1.00  0.00     0.003 C 
HETATM   14  C14 UNL     1       7.471   8.757  22.559  1.00  0.00     0.000 C 
HETATM   15  C15 UNL     1       7.390   7.340  22.046  1.00  0.00     0.003 C 
HETATM   16  C16 UNL     1       8.202   6.453  22.920  1.00  0.00     0.039 C 
BRANCH  11  17
HETATM   17  O1  UNL     1       9.813   6.569  24.579  1.00  0.00    -0.389 OA
ATOM     18  H1  UNL     1      10.639   6.991  24.782  1.00  0.00     0.210 HD
ENDBRANCH  11  17
ENDBRANCH   3  11
TORSDOF 4
ENDMDL
