MODEL 1
REMARK VINA RESULT: -6.008278345      0.000      0.000
REMARK  7 active torsions:
REMARK  status: ('A' for Active; 'I' for Inactive)
REMARK    1  A    between atoms: C2_2  and  O1_3 
REMARK    2  A    between atoms: O1_3  and  C3_4 
REMARK    3  A    between atoms: C3_4  and  C4_6 
REMARK    4  A    between atoms: C5_9  and  S1_10 
REMARK    5  A    between atoms: S1_10  and  C6_11 
REMARK    6  A    between atoms: C6_11  and  C7_12 
REMARK    7  A    between atoms: C10_17  and  N3_18 
ROOT
HETATM    1  C4  UNL     1      -8.130 -15.856   6.880  1.00  0.00     0.131 A 
HETATM    2  N1  UNL     1      -7.687 -15.031   5.942  1.00  0.00    -0.331 N 
ATOM      3  H1  UNL     1      -6.682 -15.002   5.769  1.00  0.00     0.168 HD
HETATM    4  C5  UNL     1      -8.477 -14.231   5.202  1.00  0.00     0.146 A 
HETATM    5  N2  UNL     1      -9.801 -14.257   5.416  1.00  0.00    -0.322 N 
ATOM      6  H2  UNL     1     -10.416 -13.658   4.865  1.00  0.00     0.169 HD
HETATM    7  C10 UNL     1     -10.330 -15.079   6.364  1.00  0.00     0.120 A 
HETATM    8  C11 UNL     1      -9.488 -15.891   7.110  1.00  0.00     0.087 A 
HETATM    9 BR1  UNL     1     -10.213 -17.038   8.431  1.00  0.00    -0.044 Br
ENDROOT
BRANCH   1  10
HETATM   10  C3  UNL     1      -7.210 -16.699   7.649  1.00  0.00     0.311 C 
HETATM   11  O2  UNL     1      -6.638 -16.210   8.657  1.00  0.00    -0.258 OA
BRANCH  10  12
HETATM   12  O1  UNL     1      -6.934 -17.999   7.324  1.00  0.00    -0.317 OA
BRANCH  12  13
HETATM   13  C2  UNL     1      -6.284 -18.900   8.227  1.00  0.00     0.175 C 
HETATM   14  C1  UNL     1      -5.300 -19.777   7.527  1.00  0.00     0.034 C 
ENDBRANCH  12  13
ENDBRANCH  10  12
ENDBRANCH   1  10
BRANCH   4  15
HETATM   15  S1  UNL     1      -7.844 -13.132   3.945  1.00  0.00    -0.093 SA
BRANCH  15  16
HETATM   16  C6  UNL     1      -6.910 -14.095   2.758  1.00  0.00     0.086 C 
BRANCH  16  17
HETATM   17  C7  UNL     1      -7.653 -14.330   1.462  1.00  0.00    -0.013 C 
HETATM   18  C8  UNL     1      -8.597 -15.503   1.558  1.00  0.00     0.010 C 
HETATM   19  C9  UNL     1      -8.436 -13.080   1.134  1.00  0.00     0.010 C 
ENDBRANCH  16  17
ENDBRANCH  15  16
ENDBRANCH   4  15
BRANCH   7  20
HETATM   20  N3  UNL     1     -11.605 -15.075   6.541  1.00  0.00    -0.384 N 
ATOM     21  H32 UNL     1     -12.221 -15.721   6.046  1.00  0.00     0.157 HD
ATOM     22  H31 UNL     1     -12.005 -14.404   7.197  1.00  0.00     0.157 HD
ENDBRANCH   7  20
TORSDOF 7
ENDMDL
MODEL 2
REMARK VINA RESULT: -5.911549607      1.551      2.138
REMARK  7 active torsions:
REMARK  status: ('A' for Active; 'I' for Inactive)
REMARK    1  A    between atoms: C2_2  and  O1_3 
REMARK    2  A    between atoms: O1_3  and  C3_4 
REMARK    3  A    between atoms: C3_4  and  C4_6 
REMARK    4  A    between atoms: C5_9  and  S1_10 
REMARK    5  A    between atoms: S1_10  and  C6_11 
REMARK    6  A    between atoms: C6_11  and  C7_12 
REMARK    7  A    between atoms: C10_17  and  N3_18 
ROOT
HETATM    1  C4  UNL     1      -8.589 -16.684   7.236  1.00  0.00     0.131 A 
HETATM    2  N1  UNL     1      -8.612 -16.204   6.000  1.00  0.00    -0.331 N 
ATOM      3  H1  UNL     1      -7.732 -16.174   5.485  1.00  0.00     0.168 HD
HETATM    4  C5  UNL     1      -9.719 -15.756   5.381  1.00  0.00     0.146 A 
HETATM    5  N2  UNL     1     -10.886 -15.788   6.044  1.00  0.00    -0.322 N 
ATOM      6  H2  UNL     1     -11.736 -15.452   5.591  1.00  0.00     0.169 HD
HETATM    7  C10 UNL     1     -10.941 -16.267   7.318  1.00  0.00     0.120 A 
HETATM    8  C11 UNL     1      -9.781 -16.721   7.927  1.00  0.00     0.087 A 
HETATM    9 BR1  UNL     1      -9.847 -17.390   9.698  1.00  0.00    -0.044 Br
ENDROOT
BRANCH   1  10
HETATM   10  C3  UNL     1      -7.344 -17.155   7.847  1.00  0.00     0.311 C 
HETATM   11  O2  UNL     1      -6.914 -18.298   7.544  1.00  0.00    -0.258 OA
BRANCH  10  12
HETATM   12  O1  UNL     1      -6.618 -16.413   8.738  1.00  0.00    -0.317 OA
BRANCH  12  13
HETATM   13  C2  UNL     1      -5.450 -15.675   8.360  1.00  0.00     0.175 C 
HETATM   14  C1  UNL     1      -5.793 -14.327   7.820  1.00  0.00     0.034 C 
ENDBRANCH  12  13
ENDBRANCH  10  12
ENDBRANCH   1  10
BRANCH   4  15
HETATM   15  S1  UNL     1      -9.711 -15.117   3.714  1.00  0.00    -0.093 SA
BRANCH  15  16
HETATM   16  C6  UNL     1      -8.032 -14.669   3.279  1.00  0.00     0.086 C 
BRANCH  16  17
HETATM   17  C7  UNL     1      -7.791 -14.633   1.787  1.00  0.00    -0.013 C 
HETATM   18  C8  UNL     1      -8.574 -15.700   1.063  1.00  0.00     0.010 C 
HETATM   19  C9  UNL     1      -8.202 -13.272   1.275  1.00  0.00     0.010 C 
ENDBRANCH  16  17
ENDBRANCH  15  16
ENDBRANCH   4  15
BRANCH   7  20
HETATM   20  N3  UNL     1     -12.078 -16.281   7.921  1.00  0.00    -0.384 N 
ATOM     21  H32 UNL     1     -12.725 -17.066   7.836  1.00  0.00     0.157 HD
ATOM     22  H31 UNL     1     -12.334 -15.481   8.500  1.00  0.00     0.157 HD
ENDBRANCH   7  20
TORSDOF 7
ENDMDL
MODEL 3
REMARK VINA RESULT: -5.875899393      1.297      1.380
REMARK  7 active torsions:
REMARK  status: ('A' for Active; 'I' for Inactive)
REMARK    1  A    between atoms: C2_2  and  O1_3 
REMARK    2  A    between atoms: O1_3  and  C3_4 
REMARK    3  A    between atoms: C3_4  and  C4_6 
REMARK    4  A    between atoms: C5_9  and  S1_10 
REMARK    5  A    between atoms: S1_10  and  C6_11 
REMARK    6  A    between atoms: C6_11  and  C7_12 
REMARK    7  A    between atoms: C10_17  and  N3_18 
ROOT
HETATM    1  C4  UNL     1      -8.332 -16.734   7.220  1.00  0.00     0.131 A 
HETATM    2  N1  UNL     1      -8.431 -16.228   5.999  1.00  0.00    -0.331 N 
ATOM      3  H1  UNL     1      -7.574 -16.122   5.456  1.00  0.00     0.168 HD
HETATM    4  C5  UNL     1      -9.588 -15.845   5.427  1.00  0.00     0.146 A 
HETATM    5  N2  UNL     1     -10.726 -15.977   6.127  1.00  0.00    -0.322 N 
ATOM      6  H2  UNL     1     -11.612 -15.693   5.711  1.00  0.00     0.169 HD
HETATM    7  C10 UNL     1     -10.703 -16.489   7.389  1.00  0.00     0.120 A 
HETATM    8  C11 UNL     1      -9.494 -16.873   7.949  1.00  0.00     0.087 A 
HETATM    9 BR1  UNL     1      -9.451 -17.587   9.702  1.00  0.00    -0.044 Br
ENDROOT
BRANCH   1  10
HETATM   10  C3  UNL     1      -7.036 -17.128   7.778  1.00  0.00     0.311 C 
HETATM   11  O2  UNL     1      -6.516 -16.410   8.670  1.00  0.00    -0.258 OA
BRANCH  10  12
HETATM   12  O1  UNL     1      -6.354 -18.244   7.376  1.00  0.00    -0.317 OA
BRANCH  12  13
HETATM   13  C2  UNL     1      -6.003 -19.302   8.275  1.00  0.00     0.175 C 
HETATM   14  C1  UNL     1      -5.168 -20.345   7.610  1.00  0.00     0.034 C 
ENDBRANCH  12  13
ENDBRANCH  10  12
ENDBRANCH   1  10
BRANCH   4  15
HETATM   15  S1  UNL     1      -9.682 -15.168   3.779  1.00  0.00    -0.093 SA
BRANCH  15  16
HETATM   16  C6  UNL     1      -8.059 -14.574   3.309  1.00  0.00     0.086 C 
BRANCH  16  17
HETATM   17  C7  UNL     1      -7.813 -14.624   1.817  1.00  0.00    -0.013 C 
HETATM   18  C8  UNL     1      -8.642 -15.690   1.146  1.00  0.00     0.010 C 
HETATM   19  C9  UNL     1      -8.160 -13.274   1.235  1.00  0.00     0.010 C 
ENDBRANCH  16  17
ENDBRANCH  15  16
ENDBRANCH   4  15
BRANCH   7  20
HETATM   20  N3  UNL     1     -11.815 -16.600   8.028  1.00  0.00    -0.384 N 
ATOM     21  H32 UNL     1     -12.553 -15.898   7.954  1.00  0.00     0.157 HD
ATOM     22  H31 UNL     1     -11.957 -17.416   8.624  1.00  0.00     0.157 HD
ENDBRANCH   7  20
TORSDOF 7
ENDMDL
MODEL 4
REMARK VINA RESULT: -5.875070082      3.591      5.717
REMARK  7 active torsions:
REMARK  status: ('A' for Active; 'I' for Inactive)
REMARK    1  A    between atoms: C2_2  and  O1_3 
REMARK    2  A    between atoms: O1_3  and  C3_4 
REMARK    3  A    between atoms: C3_4  and  C4_6 
REMARK    4  A    between atoms: C5_9  and  S1_10 
REMARK    5  A    between atoms: S1_10  and  C6_11 
REMARK    6  A    between atoms: C6_11  and  C7_12 
REMARK    7  A    between atoms: C10_17  and  N3_18 
ROOT
HETATM    1  C4  UNL     1      -8.300 -13.715   4.703  1.00  0.00     0.131 A 
HETATM    2  N1  UNL     1      -9.275 -14.141   5.494  1.00  0.00    -0.331 N 
ATOM      3  H1  UNL     1      -9.361 -13.715   6.416  1.00  0.00     0.168 HD
HETATM    4  C5  UNL     1     -10.159 -15.099   5.158  1.00  0.00     0.146 A 
HETATM    5  N2  UNL     1     -10.060 -15.671   3.948  1.00  0.00    -0.322 N 
ATOM      6  H2  UNL     1     -10.721 -16.399   3.676  1.00  0.00     0.169 HD
HETATM    7  C10 UNL     1      -9.084 -15.285   3.081  1.00  0.00     0.120 A 
HETATM    8  C11 UNL     1      -8.188 -14.295   3.458  1.00  0.00     0.087 A 
HETATM    9 BR1  UNL     1      -6.827 -13.750   2.260  1.00  0.00    -0.044 Br
ENDROOT
BRANCH   1  10
HETATM   10  C3  UNL     1      -7.373 -12.666   5.136  1.00  0.00     0.311 C 
HETATM   11  O2  UNL     1      -7.598 -11.477   4.791  1.00  0.00    -0.258 OA
BRANCH  10  12
HETATM   12  O1  UNL     1      -6.265 -12.913   5.900  1.00  0.00    -0.317 OA
BRANCH  12  13
HETATM   13  C2  UNL     1      -6.318 -13.021   7.327  1.00  0.00     0.175 C 
HETATM   14  C1  UNL     1      -5.803 -14.337   7.805  1.00  0.00     0.034 C 
ENDBRANCH  12  13
ENDBRANCH  10  12
ENDBRANCH   1  10
BRANCH   4  15
HETATM   15  S1  UNL     1     -11.460 -15.648   6.251  1.00  0.00    -0.093 SA
BRANCH  15  16
HETATM   16  C6  UNL     1     -11.058 -17.291   6.842  1.00  0.00     0.086 C 
BRANCH  16  17
HETATM   17  C7  UNL     1     -11.614 -17.582   8.219  1.00  0.00    -0.013 C 
HETATM   18  C8  UNL     1     -10.654 -17.180   9.310  1.00  0.00     0.010 C 
HETATM   19  C9  UNL     1     -12.907 -16.817   8.377  1.00  0.00     0.010 C 
ENDBRANCH  16  17
ENDBRANCH  15  16
ENDBRANCH   4  15
BRANCH   7  20
HETATM   20  N3  UNL     1      -9.022 -15.858   1.930  1.00  0.00    -0.384 N 
ATOM     21  H32 UNL     1      -9.347 -16.814   1.783  1.00  0.00     0.157 HD
ATOM     22  H31 UNL     1      -8.635 -15.333   1.144  1.00  0.00     0.157 HD
ENDBRANCH   7  20
TORSDOF 7
ENDMDL
MODEL 5
REMARK VINA RESULT: -5.871248757      2.703      3.991
REMARK  7 active torsions:
REMARK  status: ('A' for Active; 'I' for Inactive)
REMARK    1  A    between atoms: C2_2  and  O1_3 
REMARK    2  A    between atoms: O1_3  and  C3_4 
REMARK    3  A    between atoms: C3_4  and  C4_6 
REMARK    4  A    between atoms: C5_9  and  S1_10 
REMARK    5  A    between atoms: S1_10  and  C6_11 
REMARK    6  A    between atoms: C6_11  and  C7_12 
REMARK    7  A    between atoms: C10_17  and  N3_18 
ROOT
HETATM    1  C4  UNL     1     -10.051 -16.716   8.156  1.00  0.00     0.131 A 
HETATM    2  N1  UNL     1     -10.244 -15.949   7.092  1.00  0.00    -0.331 N 
ATOM      3  H1  UNL     1     -11.198 -15.653   6.885  1.00  0.00     0.168 HD
HETATM    4  C5  UNL     1      -9.263 -15.534   6.269  1.00  0.00     0.146 A 
HETATM    5  N2  UNL     1      -8.002 -15.914   6.526  1.00  0.00    -0.322 N 
ATOM      6  H2  UNL     1      -7.246 -15.610   5.913  1.00  0.00     0.169 HD
HETATM    7  C10 UNL     1      -7.727 -16.704   7.601  1.00  0.00     0.120 A 
HETATM    8  C11 UNL     1      -8.760 -17.114   8.430  1.00  0.00     0.087 A 
HETATM    9 BR1  UNL     1      -8.387 -18.212   9.927  1.00  0.00    -0.044 Br
ENDROOT
BRANCH   1  10
HETATM   10  C3  UNL     1     -11.168 -17.131   9.008  1.00  0.00     0.311 C 
HETATM   11  O2  UNL     1     -11.222 -16.699  10.189  1.00  0.00    -0.258 OA
BRANCH  10  12
HETATM   12  O1  UNL     1     -12.163 -17.970   8.587  1.00  0.00    -0.317 OA
BRANCH  12  13
HETATM   13  C2  UNL     1     -13.427 -17.493   8.111  1.00  0.00     0.175 C 
HETATM   14  C1  UNL     1     -13.455 -17.377   6.623  1.00  0.00     0.034 C 
ENDBRANCH  12  13
ENDBRANCH  10  12
ENDBRANCH   1  10
BRANCH   4  15
HETATM   15  S1  UNL     1      -9.562 -14.499   4.845  1.00  0.00    -0.093 SA
BRANCH  15  16
HETATM   16  C6  UNL     1      -8.053 -14.393   3.886  1.00  0.00     0.086 C 
BRANCH  16  17
HETATM   17  C7  UNL     1      -8.240 -14.775   2.434  1.00  0.00    -0.013 C 
HETATM   18  C8  UNL     1      -9.589 -15.402   2.186  1.00  0.00     0.010 C 
HETATM   19  C9  UNL     1      -8.102 -13.526   1.596  1.00  0.00     0.010 C 
ENDBRANCH  16  17
ENDBRANCH  15  16
ENDBRANCH   4  15
BRANCH   7  20
HETATM   20  N3  UNL     1      -6.504 -17.048   7.814  1.00  0.00    -0.384 N 
ATOM     21  H32 UNL     1      -5.742 -16.369   7.802  1.00  0.00     0.157 HD
ATOM     22  H31 UNL     1      -6.299 -18.030   8.000  1.00  0.00     0.157 HD
ENDBRANCH   7  20
TORSDOF 7
ENDMDL
