MODEL 1
REMARK VINA RESULT: -6.723816568      0.000      0.000
REMARK  6 active torsions:
REMARK  status: ('A' for Active; 'I' for Inactive)
REMARK    1  A    between atoms: C2_2  and  C3_3 
REMARK    2  A    between atoms: C3_3  and  C4_4 
REMARK    3  A    between atoms: C3_3  and  N1_6 
REMARK    4  A    between atoms: N1_6  and  C6_8 
REMARK    5  A    between atoms: C8_12  and  N3_13 
REMARK    6  A    between atoms: N3_13  and  C9_15 
ROOT
HETATM    1  C6  UNL     1      -9.606 -15.987   7.187  1.00  0.00     0.678 A 
HETATM    2  N2  UNL     1      -8.271 -15.840   7.133  1.00  0.00    -0.200 N 
ATOM      3  H2  UNL     1      -7.698 -16.509   7.648  1.00  0.00     0.183 HD
HETATM    4  C7  UNL     1      -7.640 -14.874   6.448  1.00  0.00     0.137 A 
HETATM    5  C8  UNL     1      -8.455 -13.974   5.753  1.00  0.00     0.065 A 
HETATM    6  C13 UNL     1      -9.825 -14.117   5.802  1.00  0.00     0.137 A 
HETATM    7  N5  UNL     1     -10.390 -15.117   6.516  1.00  0.00    -0.200 N 
ATOM      8  H5  UNL     1     -11.405 -15.213   6.547  1.00  0.00     0.183 HD
ENDROOT
BRANCH   5   9
HETATM    9  N3  UNL     1      -7.820 -12.947   5.022  1.00  0.00    -0.344 N 
ATOM     10  H3  UNL     1      -7.598 -12.046   5.446  1.00  0.00     0.167 HD
BRANCH   9  11
HETATM   11  C9  UNL     1      -7.501 -13.237   3.640  1.00  0.00     0.081 C 
HETATM   12  N4  UNL     1      -6.426 -13.640   3.144  1.00  0.00    -0.376 N 
HETATM   13  C10 UNL     1      -6.490 -13.813   1.736  1.00  0.00     0.176 C 
ATOM     14  H4  UNL     1      -5.588 -13.825   3.695  1.00  0.00     0.160 HD
HETATM   15  C11 UNL     1      -7.961 -13.820   1.422  1.00  0.00     0.182 C 
HETATM   16  F1  UNL     1      -8.228 -13.133   0.242  1.00  0.00    -0.228 F 
HETATM   17 BR1  UNL     1      -8.620 -15.611   1.267  1.00  0.00    -0.046 Br
HETATM   18  C12 UNL     1      -8.524 -13.065   2.588  1.00  0.00     0.133 C 
ENDBRANCH   9  11
ENDBRANCH   5   9
BRANCH   1  19
HETATM   19  N1  UNL     1     -10.163 -16.924   7.854  1.00  0.00    -0.221 N 
ATOM     20  H1  UNL     1      -9.679 -17.817   7.946  1.00  0.00     0.178 HD
BRANCH  19  21
HETATM   21  C3  UNL     1     -11.458 -16.765   8.484  1.00  0.00     0.098 C 
BRANCH  21  22
HETATM   22  C2  UNL     1     -11.271 -16.801  10.000  1.00  0.00     0.021 C 
HETATM   23  C1  UNL     1      -9.991 -17.530  10.339  1.00  0.00     0.007 C 
ENDBRANCH  21  22
BRANCH  21  24
HETATM   24  C4  UNL     1     -12.401 -17.861   8.041  1.00  0.00     0.021 C 
HETATM   25  C5  UNL     1     -13.238 -17.458   6.870  1.00  0.00     0.007 C 
ENDBRANCH  21  24
ENDBRANCH  19  21
ENDBRANCH   1  19
TORSDOF 6
ENDMDL
MODEL 2
REMARK VINA RESULT: -6.620093412      0.875      1.993
REMARK  6 active torsions:
REMARK  status: ('A' for Active; 'I' for Inactive)
REMARK    1  A    between atoms: C2_2  and  C3_3 
REMARK    2  A    between atoms: C3_3  and  C4_4 
REMARK    3  A    between atoms: C3_3  and  N1_6 
REMARK    4  A    between atoms: N1_6  and  C6_8 
REMARK    5  A    between atoms: C8_12  and  N3_13 
REMARK    6  A    between atoms: N3_13  and  C9_15 
ROOT
HETATM    1  C6  UNL     1     -10.433 -16.378   6.554  1.00  0.00     0.678 A 
HETATM    2  N2  UNL     1     -10.823 -15.093   6.498  1.00  0.00    -0.200 N 
ATOM      3  H2  UNL     1     -11.762 -14.867   6.828  1.00  0.00     0.183 HD
HETATM    4  C7  UNL     1     -10.063 -14.087   6.040  1.00  0.00     0.137 A 
HETATM    5  C8  UNL     1      -8.782 -14.431   5.596  1.00  0.00     0.065 A 
HETATM    6  C13 UNL     1      -8.373 -15.746   5.649  1.00  0.00     0.137 A 
HETATM    7  N5  UNL     1      -9.197 -16.707   6.124  1.00  0.00    -0.200 N 
ATOM      8  H5  UNL     1      -8.885 -17.678   6.158  1.00  0.00     0.183 HD
ENDROOT
BRANCH   5   9
HETATM    9  N3  UNL     1      -7.958 -13.394   5.108  1.00  0.00    -0.344 N 
ATOM     10  H3  UNL     1      -7.630 -12.640   5.712  1.00  0.00     0.167 HD
BRANCH   9  11
HETATM   11  C9  UNL     1      -7.601 -13.456   3.706  1.00  0.00     0.081 C 
HETATM   12  N4  UNL     1      -6.489 -13.682   3.182  1.00  0.00    -0.376 N 
HETATM   13  C10 UNL     1      -6.524 -13.661   1.762  1.00  0.00     0.176 C 
ATOM     14  H4  UNL     1      -5.641 -13.864   3.720  1.00  0.00     0.160 HD
HETATM   15  C11 UNL     1      -7.985 -13.761   1.420  1.00  0.00     0.182 C 
HETATM   16  F1  UNL     1      -8.307 -12.943   0.341  1.00  0.00    -0.228 F 
HETATM   17 BR1  UNL     1      -8.468 -15.566   1.002  1.00  0.00    -0.046 Br
HETATM   18  C12 UNL     1      -8.627 -13.234   2.666  1.00  0.00     0.133 C 
ENDBRANCH   9  11
ENDBRANCH   5   9
BRANCH   1  19
HETATM   19  N1  UNL     1     -11.194 -17.304   6.998  1.00  0.00    -0.221 N 
ATOM     20  H1  UNL     1     -11.714 -17.875   6.332  1.00  0.00     0.178 HD
BRANCH  19  21
HETATM   21  C3  UNL     1     -11.345 -17.572   8.414  1.00  0.00     0.098 C 
BRANCH  21  22
HETATM   22  C2  UNL     1     -12.403 -16.628   8.980  1.00  0.00     0.021 C 
HETATM   23  C1  UNL     1     -13.670 -16.733   8.163  1.00  0.00     0.007 C 
ENDBRANCH  21  22
BRANCH  21  24
HETATM   24  C4  UNL     1     -10.027 -17.383   9.132  1.00  0.00     0.021 C 
HETATM   25  C5  UNL     1     -10.182 -17.374  10.619  1.00  0.00     0.007 C 
ENDBRANCH  21  24
ENDBRANCH  19  21
ENDBRANCH   1  19
TORSDOF 6
ENDMDL
MODEL 3
REMARK VINA RESULT: -6.606904681      3.248      7.198
REMARK  6 active torsions:
REMARK  status: ('A' for Active; 'I' for Inactive)
REMARK    1  A    between atoms: C2_2  and  C3_3 
REMARK    2  A    between atoms: C3_3  and  C4_4 
REMARK    3  A    between atoms: C3_3  and  N1_6 
REMARK    4  A    between atoms: N1_6  and  C6_8 
REMARK    5  A    between atoms: C8_12  and  N3_13 
REMARK    6  A    between atoms: N3_13  and  C9_15 
ROOT
HETATM    1  C6  UNL     1      -8.241 -14.456   4.603  1.00  0.00     0.678 A 
HETATM    2  N2  UNL     1      -9.325 -15.248   4.519  1.00  0.00    -0.200 N 
ATOM      3  H2  UNL     1      -9.895 -15.184   3.676  1.00  0.00     0.183 HD
HETATM    4  C7  UNL     1      -9.707 -16.116   5.468  1.00  0.00     0.137 A 
HETATM    5  C8  UNL     1      -8.903 -16.178   6.611  1.00  0.00     0.065 A 
HETATM    6  C13 UNL     1      -7.790 -15.370   6.706  1.00  0.00     0.137 A 
HETATM    7  N5  UNL     1      -7.468 -14.517   5.707  1.00  0.00    -0.200 N 
ATOM      8  H5  UNL     1      -6.644 -13.922   5.789  1.00  0.00     0.183 HD
ENDROOT
BRANCH   5   9
HETATM    9  N3  UNL     1      -9.279 -17.083   7.627  1.00  0.00    -0.344 N 
ATOM     10  H3  UNL     1      -8.614 -17.743   8.030  1.00  0.00     0.167 HD
BRANCH   9  11
HETATM   11  C9  UNL     1     -10.657 -17.026   8.067  1.00  0.00     0.081 C 
HETATM   12  N4  UNL     1     -11.163 -16.370   9.004  1.00  0.00    -0.376 N 
HETATM   13  C10 UNL     1     -12.562 -16.571   9.137  1.00  0.00     0.176 C 
ATOM     14  H4  UNL     1     -10.624 -15.752   9.611  1.00  0.00     0.160 HD
HETATM   15  C11 UNL     1     -12.978 -17.205   7.838  1.00  0.00     0.182 C 
HETATM   16  F1  UNL     1     -13.930 -18.199   8.045  1.00  0.00    -0.228 F 
HETATM   17 BR1  UNL     1     -13.689 -15.898   6.634  1.00  0.00    -0.046 Br
HETATM   18  C12 UNL     1     -11.693 -17.821   7.375  1.00  0.00     0.133 C 
ENDBRANCH   9  11
ENDBRANCH   5   9
BRANCH   1  19
HETATM   19  N1  UNL     1      -7.917 -13.642   3.673  1.00  0.00    -0.221 N 
ATOM     20  H1  UNL     1      -8.117 -12.649   3.797  1.00  0.00     0.178 HD
BRANCH  19  21
HETATM   21  C3  UNL     1      -7.276 -14.077   2.449  1.00  0.00     0.098 C 
BRANCH  21  22
HETATM   22  C2  UNL     1      -6.217 -13.048   2.060  1.00  0.00     0.021 C 
HETATM   23  C1  UNL     1      -4.968 -13.754   1.587  1.00  0.00     0.007 C 
ENDBRANCH  21  22
BRANCH  21  24
HETATM   24  C4  UNL     1      -8.296 -14.232   1.343  1.00  0.00     0.021 C 
HETATM   25  C5  UNL     1      -8.540 -15.662   0.985  1.00  0.00     0.007 C 
ENDBRANCH  21  24
ENDBRANCH  19  21
ENDBRANCH   1  19
TORSDOF 6
ENDMDL
MODEL 4
REMARK VINA RESULT: -6.347052186      4.312      6.998
REMARK  6 active torsions:
REMARK  status: ('A' for Active; 'I' for Inactive)
REMARK    1  A    between atoms: C2_2  and  C3_3 
REMARK    2  A    between atoms: C3_3  and  C4_4 
REMARK    3  A    between atoms: C3_3  and  N1_6 
REMARK    4  A    between atoms: N1_6  and  C6_8 
REMARK    5  A    between atoms: C8_12  and  N3_13 
REMARK    6  A    between atoms: N3_13  and  C9_15 
ROOT
HETATM    1  C6  UNL     1      -8.581 -15.140   5.128  1.00  0.00     0.678 A 
HETATM    2  N2  UNL     1      -7.614 -14.723   5.965  1.00  0.00    -0.200 N 
ATOM      3  H2  UNL     1      -7.122 -13.861   5.729  1.00  0.00     0.183 HD
HETATM    4  C7  UNL     1      -7.253 -15.361   7.088  1.00  0.00     0.137 A 
HETATM    5  C8  UNL     1      -7.947 -16.540   7.382  1.00  0.00     0.065 A 
HETATM    6  C13 UNL     1      -8.940 -16.976   6.530  1.00  0.00     0.137 A 
HETATM    7  N5  UNL     1      -9.248 -16.278   5.414  1.00  0.00    -0.200 N 
ATOM      8  H5  UNL     1      -9.983 -16.610   4.789  1.00  0.00     0.183 HD
ENDROOT
BRANCH   5   9
HETATM    9  N3  UNL     1      -7.590 -17.235   8.557  1.00  0.00    -0.344 N 
ATOM     10  H3  UNL     1      -8.189 -17.234   9.383  1.00  0.00     0.167 HD
BRANCH   9  11
HETATM   11  C9  UNL     1      -6.330 -17.947   8.531  1.00  0.00     0.081 C 
HETATM   12  N4  UNL     1      -5.339 -17.830   9.284  1.00  0.00    -0.376 N 
HETATM   13  C10 UNL     1      -4.274 -18.707   8.948  1.00  0.00     0.176 C 
ATOM     14  H4  UNL     1      -5.300 -17.171  10.062  1.00  0.00     0.160 HD
HETATM   15  C11 UNL     1      -4.899 -19.731   8.042  1.00  0.00     0.182 C 
HETATM   16  F1  UNL     1      -4.043 -20.069   6.997  1.00  0.00    -0.228 F 
HETATM   17 BR1  UNL     1      -5.358 -21.315   9.013  1.00  0.00    -0.046 Br
HETATM   18  C12 UNL     1      -6.081 -18.982   7.506  1.00  0.00     0.133 C 
ENDBRANCH   9  11
ENDBRANCH   5   9
BRANCH   1  19
HETATM   19  N1  UNL     1      -8.890 -14.498   4.068  1.00  0.00    -0.221 N 
ATOM     20  H1  UNL     1      -9.547 -13.720   4.138  1.00  0.00     0.178 HD
BRANCH  19  21
HETATM   21  C3  UNL     1      -8.343 -14.833   2.769  1.00  0.00     0.098 C 
BRANCH  21  22
HETATM   22  C2  UNL     1      -7.873 -13.548   2.091  1.00  0.00     0.021 C 
HETATM   23  C1  UNL     1      -6.364 -13.525   2.032  1.00  0.00     0.007 C 
ENDBRANCH  21  22
BRANCH  21  24
HETATM   24  C4  UNL     1      -9.383 -15.531   1.921  1.00  0.00     0.021 C 
HETATM   25  C5  UNL     1      -8.829 -16.018   0.621  1.00  0.00     0.007 C 
ENDBRANCH  21  24
ENDBRANCH  19  21
ENDBRANCH   1  19
TORSDOF 6
ENDMDL
MODEL 5
REMARK VINA RESULT: -6.245288384      2.992      6.912
REMARK  6 active torsions:
REMARK  status: ('A' for Active; 'I' for Inactive)
REMARK    1  A    between atoms: C2_2  and  C3_3 
REMARK    2  A    between atoms: C3_3  and  C4_4 
REMARK    3  A    between atoms: C3_3  and  N1_6 
REMARK    4  A    between atoms: N1_6  and  C6_8 
REMARK    5  A    between atoms: C8_12  and  N3_13 
REMARK    6  A    between atoms: N3_13  and  C9_15 
ROOT
HETATM    1  C6  UNL     1      -8.016 -14.326   5.318  1.00  0.00     0.678 A 
HETATM    2  N2  UNL     1      -7.338 -15.218   6.061  1.00  0.00    -0.200 N 
ATOM      3  H2  UNL     1      -6.337 -15.316   5.890  1.00  0.00     0.183 HD
HETATM    4  C7  UNL     1      -7.887 -15.988   7.012  1.00  0.00     0.137 A 
HETATM    5  C8  UNL     1      -9.262 -15.830   7.221  1.00  0.00     0.065 A 
HETATM    6  C13 UNL     1      -9.965 -14.918   6.464  1.00  0.00     0.137 A 
HETATM    7  N5  UNL     1      -9.342 -14.176   5.521  1.00  0.00    -0.200 N 
ATOM      8  H5  UNL     1      -9.872 -13.505   4.965  1.00  0.00     0.183 HD
ENDROOT
BRANCH   5   9
HETATM    9  N3  UNL     1      -9.869 -16.626   8.216  1.00  0.00    -0.344 N 
ATOM     10  H3  UNL     1      -9.331 -17.026   8.985  1.00  0.00     0.167 HD
BRANCH   9  11
HETATM   11  C9  UNL     1     -11.294 -16.847   8.089  1.00  0.00     0.081 C 
HETATM   12  N4  UNL     1     -12.190 -16.755   8.956  1.00  0.00    -0.376 N 
HETATM   13  C10 UNL     1     -13.486 -17.050   8.456  1.00  0.00     0.176 C 
ATOM     14  H4  UNL     1     -12.008 -16.496   9.926  1.00  0.00     0.160 HD
HETATM   15  C11 UNL     1     -13.339 -16.979   6.961  1.00  0.00     0.182 C 
HETATM   16  F1  UNL     1     -14.073 -17.982   6.334  1.00  0.00    -0.228 F 
HETATM   17 BR1  UNL     1     -13.911 -15.277   6.297  1.00  0.00    -0.046 Br
HETATM   18  C12 UNL     1     -11.874 -17.238   6.787  1.00  0.00     0.133 C 
ENDBRANCH   9  11
ENDBRANCH   5   9
BRANCH   1  19
HETATM   19  N1  UNL     1      -7.449 -13.614   4.421  1.00  0.00    -0.221 N 
ATOM     20  H1  UNL     1      -6.654 -13.032   4.685  1.00  0.00     0.178 HD
BRANCH  19  21
HETATM   21  C3  UNL     1      -7.895 -13.601   3.043  1.00  0.00     0.098 C 
BRANCH  21  22
HETATM   22  C2  UNL     1      -8.024 -15.043   2.558  1.00  0.00     0.021 C 
HETATM   23  C1  UNL     1      -9.426 -15.288   2.051  1.00  0.00     0.007 C 
ENDBRANCH  21  22
BRANCH  21  24
HETATM   24  C4  UNL     1      -6.918 -12.837   2.177  1.00  0.00     0.021 C 
HETATM   25  C5  UNL     1      -5.724 -13.654   1.801  1.00  0.00     0.007 C 
ENDBRANCH  21  24
ENDBRANCH  19  21
ENDBRANCH   1  19
TORSDOF 6
ENDMDL
