MODEL 1
REMARK VINA RESULT: -6.580243800      0.000      0.000
REMARK  11 active torsions:
REMARK  status: ('A' for Active; 'I' for Inactive)
REMARK    1  A    between atoms: C3_3  and  C4_4 
REMARK    2  A    between atoms: C5_5  and  N1_6 
REMARK    3  A    between atoms: N1_6  and  C6_8 
REMARK    4  A    between atoms: C6_8  and  O1_12 
REMARK    5  A    between atoms: O1_12  and  N3_13 
REMARK    6  A    between atoms: C9_18  and  N5_19 
REMARK    7  A    between atoms: N5_19  and  C10_21 
REMARK    8  A    between atoms: C10_21  and  C11_22 
REMARK    9  A    between atoms: C11_22  and  C12_23 
REMARK   10  A    between atoms: C12_23  and  C13_24 
REMARK   11  A    between atoms: C13_24  and  C14_25 
ROOT
HETATM    1  C1  UNL     1      -4.357 -11.806   8.647  1.00  0.00     0.113 C 
HETATM    2  C2  UNL     1      -5.132 -12.974   8.214  1.00  0.00    -0.097 C 
HETATM    3  C3  UNL     1      -5.784 -13.945   7.872  1.00  0.00    -0.014 C 
ENDROOT
BRANCH   3   4
HETATM    4  C4  UNL     1      -6.564 -15.063   7.480  1.00  0.00     0.008 C 
HETATM    5  C5  UNL     1      -7.236 -16.006   7.138  1.00  0.00     0.028 C 
BRANCH   5   6
HETATM    6  N1  UNL     1      -8.026 -17.087   6.752  1.00  0.00    -0.279 N 
ATOM      7  H1  UNL     1      -7.718 -17.725   6.020  1.00  0.00     0.180 HD
BRANCH   6   8
HETATM    8  C6  UNL     1      -9.270 -17.276   7.404  1.00  0.00     0.249 C 
HETATM    9  N2  UNL     1      -9.454 -17.107   8.669  1.00  0.00    -0.363 N 
ATOM     10  H22 UNL     1      -8.669 -16.819   9.254  1.00  0.00     0.159 HD
ATOM     11  H21 UNL     1     -10.349 -17.243   9.139  1.00  0.00     0.159 HD
BRANCH   8  12
HETATM   12  O1  UNL     1     -10.345 -17.670   6.605  1.00  0.00    -0.183 OA
BRANCH  12  13
HETATM   13  N3  UNL     1     -11.624 -17.274   6.928  1.00  0.00    -0.079 N 
HETATM   14  C7  UNL     1     -12.606 -18.006   7.703  1.00  0.00     0.196 C 
HETATM   15  C8  UNL     1     -13.539 -16.928   8.162  1.00  0.00     0.161 C 
HETATM   16  N4  UNL     1     -13.314 -15.847   7.249  1.00  0.00    -0.223 N 
HETATM   17  C9  UNL     1     -12.237 -16.043   6.555  1.00  0.00     0.696 C 
ATOM     18  H4  UNL     1     -13.921 -15.032   7.156  1.00  0.00     0.177 HD
BRANCH  17  19
HETATM   19  N5  UNL     1     -11.729 -15.168   5.565  1.00  0.00    -0.225 N 
ATOM     20  H5  UNL     1     -11.835 -15.405   4.579  1.00  0.00     0.177 HD
BRANCH  19  21
HETATM   21  C10 UNL     1     -11.067 -13.952   5.937  1.00  0.00     0.138 C 
BRANCH  21  22
HETATM   22  C11 UNL     1      -9.589 -14.039   5.536  1.00  0.00     0.020 C 
BRANCH  22  23
HETATM   23  C12 UNL     1      -9.420 -14.723   4.230  1.00  0.00     0.002 C 
BRANCH  23  24
HETATM   24  C13 UNL     1      -8.081 -14.752   3.611  1.00  0.00     0.008 C 
BRANCH  24  25
HETATM   25  C14 UNL     1      -7.941 -14.504   2.163  1.00  0.00    -0.051 C 
HETATM   26  C15 UNL     1      -8.413 -15.535   1.209  1.00  0.00     0.014 C 
HETATM   27  C16 UNL     1      -8.697 -13.191   1.850  1.00  0.00     0.014 C 
HETATM   28  C17 UNL     1      -6.479 -14.169   1.806  1.00  0.00     0.014 C 
ENDBRANCH  24  25
ENDBRANCH  23  24
ENDBRANCH  22  23
ENDBRANCH  21  22
ENDBRANCH  19  21
ENDBRANCH  17  19
ENDBRANCH  12  13
ENDBRANCH   8  12
ENDBRANCH   6   8
ENDBRANCH   5   6
ENDBRANCH   3   4
TORSDOF 11
ENDMDL
MODEL 2
REMARK VINA RESULT: -6.383228514      2.240      6.316
REMARK  11 active torsions:
REMARK  status: ('A' for Active; 'I' for Inactive)
REMARK    1  A    between atoms: C3_3  and  C4_4 
REMARK    2  A    between atoms: C5_5  and  N1_6 
REMARK    3  A    between atoms: N1_6  and  C6_8 
REMARK    4  A    between atoms: C6_8  and  O1_12 
REMARK    5  A    between atoms: O1_12  and  N3_13 
REMARK    6  A    between atoms: C9_18  and  N5_19 
REMARK    7  A    between atoms: N5_19  and  C10_21 
REMARK    8  A    between atoms: C10_21  and  C11_22 
REMARK    9  A    between atoms: C11_22  and  C12_23 
REMARK   10  A    between atoms: C12_23  and  C13_24 
REMARK   11  A    between atoms: C13_24  and  C14_25 
ROOT
HETATM    1  C1  UNL     1      -2.335 -13.885   0.521  1.00  0.00     0.113 C 
HETATM    2  C2  UNL     1      -3.678 -13.765   1.097  1.00  0.00    -0.097 C 
HETATM    3  C3  UNL     1      -4.793 -13.684   1.582  1.00  0.00    -0.014 C 
ENDROOT
BRANCH   3   4
HETATM    4  C4  UNL     1      -6.082 -13.596   2.168  1.00  0.00     0.008 C 
HETATM    5  C5  UNL     1      -7.179 -13.536   2.668  1.00  0.00     0.028 C 
BRANCH   5   6
HETATM    6  N1  UNL     1      -8.453 -13.474   3.229  1.00  0.00    -0.279 N 
ATOM      7  H1  UNL     1      -9.101 -12.729   2.974  1.00  0.00     0.180 HD
BRANCH   6   8
HETATM    8  C6  UNL     1      -8.826 -14.473   4.162  1.00  0.00     0.249 C 
HETATM    9  N2  UNL     1      -9.135 -15.683   3.839  1.00  0.00    -0.363 N 
ATOM     10  H22 UNL     1      -9.116 -15.957   2.857  1.00  0.00     0.159 HD
ATOM     11  H21 UNL     1      -9.403 -16.401   4.511  1.00  0.00     0.159 HD
BRANCH   8  12
HETATM   12  O1  UNL     1      -8.851 -14.097   5.507  1.00  0.00    -0.183 OA
BRANCH  12  13
HETATM   13  N3  UNL     1      -7.681 -14.059   6.232  1.00  0.00    -0.079 N 
HETATM   14  C7  UNL     1      -6.757 -12.950   6.361  1.00  0.00     0.196 C 
HETATM   15  C8  UNL     1      -6.015 -13.278   7.620  1.00  0.00     0.161 C 
HETATM   16  N4  UNL     1      -6.208 -14.688   7.791  1.00  0.00    -0.223 N 
HETATM   17  C9  UNL     1      -7.146 -15.126   7.010  1.00  0.00     0.696 C 
ATOM     18  H4  UNL     1      -5.679 -15.269   8.442  1.00  0.00     0.177 HD
BRANCH  17  19
HETATM   19  N5  UNL     1      -7.585 -16.469   6.931  1.00  0.00    -0.225 N 
ATOM     20  H5  UNL     1      -7.675 -16.918   6.019  1.00  0.00     0.177 HD
BRANCH  19  21
HETATM   21  C10 UNL     1      -7.905 -17.203   8.119  1.00  0.00     0.138 C 
BRANCH  21  22
HETATM   22  C11 UNL     1      -9.406 -17.069   8.406  1.00  0.00     0.020 C 
BRANCH  22  23
HETATM   23  C12 UNL     1     -10.192 -16.973   7.151  1.00  0.00     0.002 C 
BRANCH  23  24
HETATM   24  C13 UNL     1     -11.324 -16.029   7.093  1.00  0.00     0.008 C 
BRANCH  24  25
HETATM   25  C14 UNL     1     -12.691 -16.510   7.371  1.00  0.00    -0.051 C 
HETATM   26  C15 UNL     1     -13.183 -16.507   8.769  1.00  0.00     0.014 C 
HETATM   27  C16 UNL     1     -13.660 -15.646   6.528  1.00  0.00     0.014 C 
HETATM   28  C17 UNL     1     -12.895 -17.930   6.805  1.00  0.00     0.014 C 
ENDBRANCH  24  25
ENDBRANCH  23  24
ENDBRANCH  22  23
ENDBRANCH  21  22
ENDBRANCH  19  21
ENDBRANCH  17  19
ENDBRANCH  12  13
ENDBRANCH   8  12
ENDBRANCH   6   8
ENDBRANCH   5   6
ENDBRANCH   3   4
TORSDOF 11
ENDMDL
MODEL 3
REMARK VINA RESULT: -6.380826240      2.654      6.628
REMARK  11 active torsions:
REMARK  status: ('A' for Active; 'I' for Inactive)
REMARK    1  A    between atoms: C3_3  and  C4_4 
REMARK    2  A    between atoms: C5_5  and  N1_6 
REMARK    3  A    between atoms: N1_6  and  C6_8 
REMARK    4  A    between atoms: C6_8  and  O1_12 
REMARK    5  A    between atoms: O1_12  and  N3_13 
REMARK    6  A    between atoms: C9_18  and  N5_19 
REMARK    7  A    between atoms: N5_19  and  C10_21 
REMARK    8  A    between atoms: C10_21  and  C11_22 
REMARK    9  A    between atoms: C11_22  and  C12_23 
REMARK   10  A    between atoms: C12_23  and  C13_24 
REMARK   11  A    between atoms: C13_24  and  C14_25 
ROOT
HETATM    1  C1  UNL     1      -9.064 -15.653   1.124  1.00  0.00     0.113 C 
HETATM    2  C2  UNL     1      -8.585 -14.974   2.333  1.00  0.00    -0.097 C 
HETATM    3  C3  UNL     1      -8.196 -14.424   3.347  1.00  0.00    -0.014 C 
ENDROOT
BRANCH   3   4
HETATM    4  C4  UNL     1      -7.733 -13.804   4.537  1.00  0.00     0.008 C 
HETATM    5  C5  UNL     1      -7.332 -13.267   5.540  1.00  0.00     0.028 C 
BRANCH   5   6
HETATM    6  N1  UNL     1      -6.851 -12.652   6.695  1.00  0.00    -0.279 N 
ATOM      7  H1  UNL     1      -7.356 -11.878   7.124  1.00  0.00     0.180 HD
BRANCH   6   8
HETATM    8  C6  UNL     1      -5.641 -13.130   7.257  1.00  0.00     0.249 C 
HETATM    9  N2  UNL     1      -4.481 -12.963   6.719  1.00  0.00    -0.363 N 
ATOM     10  H22 UNL     1      -4.409 -12.458   5.836  1.00  0.00     0.159 HD
ATOM     11  H21 UNL     1      -3.610 -13.306   7.123  1.00  0.00     0.159 HD
BRANCH   8  12
HETATM   12  O1  UNL     1      -5.740 -13.821   8.466  1.00  0.00    -0.183 OA
BRANCH  12  13
HETATM   13  N3  UNL     1      -5.402 -15.154   8.526  1.00  0.00    -0.079 N 
HETATM   14  C7  UNL     1      -4.124 -15.726   8.900  1.00  0.00     0.196 C 
HETATM   15  C8  UNL     1      -4.486 -17.127   9.289  1.00  0.00     0.161 C 
HETATM   16  N4  UNL     1      -5.749 -17.359   8.654  1.00  0.00    -0.223 N 
HETATM   17  C9  UNL     1      -6.264 -16.249   8.225  1.00  0.00     0.696 C 
ATOM     18  H4  UNL     1      -6.186 -18.275   8.553  1.00  0.00     0.177 HD
BRANCH  17  19
HETATM   19  N5  UNL     1      -7.503 -16.125   7.553  1.00  0.00    -0.225 N 
ATOM     20  H5  UNL     1      -8.041 -15.264   7.640  1.00  0.00     0.177 HD
BRANCH  19  21
HETATM   21  C10 UNL     1      -8.008 -17.201   6.751  1.00  0.00     0.138 C 
BRANCH  21  22
HETATM   22  C11 UNL     1      -9.269 -16.733   6.015  1.00  0.00     0.020 C 
BRANCH  22  23
HETATM   23  C12 UNL     1     -10.053 -15.777   6.836  1.00  0.00     0.002 C 
BRANCH  23  24
HETATM   24  C13 UNL     1     -11.508 -15.984   6.971  1.00  0.00     0.008 C 
BRANCH  24  25
HETATM   25  C14 UNL     1     -12.027 -16.834   8.059  1.00  0.00    -0.051 C 
HETATM   26  C15 UNL     1     -13.300 -16.459   8.718  1.00  0.00     0.014 C 
HETATM   27  C16 UNL     1     -12.196 -18.260   7.483  1.00  0.00     0.014 C 
HETATM   28  C17 UNL     1     -10.964 -17.018   9.161  1.00  0.00     0.014 C 
ENDBRANCH  24  25
ENDBRANCH  23  24
ENDBRANCH  22  23
ENDBRANCH  21  22
ENDBRANCH  19  21
ENDBRANCH  17  19
ENDBRANCH  12  13
ENDBRANCH   8  12
ENDBRANCH   6   8
ENDBRANCH   5   6
ENDBRANCH   3   4
TORSDOF 11
ENDMDL
MODEL 4
REMARK VINA RESULT: -6.330342464      2.017      3.338
REMARK  11 active torsions:
REMARK  status: ('A' for Active; 'I' for Inactive)
REMARK    1  A    between atoms: C3_3  and  C4_4 
REMARK    2  A    between atoms: C5_5  and  N1_6 
REMARK    3  A    between atoms: N1_6  and  C6_8 
REMARK    4  A    between atoms: C6_8  and  O1_12 
REMARK    5  A    between atoms: O1_12  and  N3_13 
REMARK    6  A    between atoms: C9_18  and  N5_19 
REMARK    7  A    between atoms: N5_19  and  C10_21 
REMARK    8  A    between atoms: C10_21  and  C11_22 
REMARK    9  A    between atoms: C11_22  and  C12_23 
REMARK   10  A    between atoms: C12_23  and  C13_24 
REMARK   11  A    between atoms: C13_24  and  C14_25 
ROOT
HETATM    1  C1  UNL     1      -4.863 -19.019   8.234  1.00  0.00     0.113 C 
HETATM    2  C2  UNL     1      -6.213 -18.621   8.650  1.00  0.00    -0.097 C 
HETATM    3  C3  UNL     1      -7.326 -18.276   9.004  1.00  0.00    -0.014 C 
ENDROOT
BRANCH   3   4
HETATM    4  C4  UNL     1      -8.619 -17.852   9.407  1.00  0.00     0.008 C 
HETATM    5  C5  UNL     1      -9.720 -17.483   9.738  1.00  0.00     0.028 C 
BRANCH   5   6
HETATM    6  N1  UNL     1     -10.984 -17.040  10.121  1.00  0.00    -0.279 N 
ATOM      7  H1  UNL     1     -11.242 -16.984  11.106  1.00  0.00     0.180 HD
BRANCH   6   8
HETATM    8  C6  UNL     1     -11.901 -16.667   9.108  1.00  0.00     0.249 C 
HETATM    9  N2  UNL     1     -13.045 -16.116   9.338  1.00  0.00    -0.363 N 
ATOM     10  H22 UNL     1     -13.323 -15.929  10.301  1.00  0.00     0.159 HD
ATOM     11  H21 UNL     1     -13.706 -15.848   8.609  1.00  0.00     0.159 HD
BRANCH   8  12
HETATM   12  O1  UNL     1     -11.520 -16.923   7.789  1.00  0.00    -0.183 OA
BRANCH  12  13
HETATM   13  N3  UNL     1     -11.571 -15.916   6.851  1.00  0.00    -0.079 N 
HETATM   14  C7  UNL     1     -12.695 -15.541   6.017  1.00  0.00     0.196 C 
HETATM   15  C8  UNL     1     -12.364 -14.134   5.624  1.00  0.00     0.161 C 
HETATM   16  N4  UNL     1     -10.950 -14.029   5.826  1.00  0.00    -0.223 N 
HETATM   17  C9  UNL     1     -10.504 -15.032   6.517  1.00  0.00     0.696 C 
ATOM     18  H4  UNL     1     -10.370 -13.267   5.474  1.00  0.00     0.177 HD
BRANCH  17  19
HETATM   19  N5  UNL     1      -9.154 -15.234   6.892  1.00  0.00    -0.225 N 
ATOM     20  H5  UNL     1      -8.920 -15.384   7.873  1.00  0.00     0.177 HD
BRANCH  19  21
HETATM   21  C10 UNL     1      -8.115 -15.229   5.906  1.00  0.00     0.138 C 
BRANCH  21  22
HETATM   22  C11 UNL     1      -7.640 -13.788   5.681  1.00  0.00     0.020 C 
BRANCH  22  23
HETATM   23  C12 UNL     1      -7.792 -13.382   4.262  1.00  0.00     0.002 C 
BRANCH  23  24
HETATM   24  C13 UNL     1      -8.374 -14.345   3.306  1.00  0.00     0.008 C 
BRANCH  24  25
HETATM   25  C14 UNL     1      -7.907 -14.355   1.906  1.00  0.00    -0.051 C 
HETATM   26  C15 UNL     1      -8.263 -15.503   1.040  1.00  0.00     0.014 C 
HETATM   27  C16 UNL     1      -8.451 -13.071   1.235  1.00  0.00     0.014 C 
HETATM   28  C17 UNL     1      -6.377 -14.173   1.840  1.00  0.00     0.014 C 
ENDBRANCH  24  25
ENDBRANCH  23  24
ENDBRANCH  22  23
ENDBRANCH  21  22
ENDBRANCH  19  21
ENDBRANCH  17  19
ENDBRANCH  12  13
ENDBRANCH   8  12
ENDBRANCH   6   8
ENDBRANCH   5   6
ENDBRANCH   3   4
TORSDOF 11
ENDMDL
MODEL 5
REMARK VINA RESULT: -6.268816691      2.306      3.149
REMARK  11 active torsions:
REMARK  status: ('A' for Active; 'I' for Inactive)
REMARK    1  A    between atoms: C3_3  and  C4_4 
REMARK    2  A    between atoms: C5_5  and  N1_6 
REMARK    3  A    between atoms: N1_6  and  C6_8 
REMARK    4  A    between atoms: C6_8  and  O1_12 
REMARK    5  A    between atoms: O1_12  and  N3_13 
REMARK    6  A    between atoms: C9_18  and  N5_19 
REMARK    7  A    between atoms: N5_19  and  C10_21 
REMARK    8  A    between atoms: C10_21  and  C11_22 
REMARK    9  A    between atoms: C11_22  and  C12_23 
REMARK   10  A    between atoms: C12_23  and  C13_24 
REMARK   11  A    between atoms: C13_24  and  C14_25 
ROOT
HETATM    1  C1  UNL     1      -3.582 -21.969   8.227  1.00  0.00     0.113 C 
HETATM    2  C2  UNL     1      -4.488 -20.833   8.024  1.00  0.00    -0.097 C 
HETATM    3  C3  UNL     1      -5.252 -19.901   7.847  1.00  0.00    -0.014 C 
ENDROOT
BRANCH   3   4
HETATM    4  C4  UNL     1      -6.160 -18.829   7.652  1.00  0.00     0.008 C 
HETATM    5  C5  UNL     1      -6.939 -17.919   7.500  1.00  0.00     0.028 C 
BRANCH   5   6
HETATM    6  N1  UNL     1      -7.853 -16.882   7.322  1.00  0.00    -0.279 N 
ATOM      7  H1  UNL     1      -7.563 -15.995   6.910  1.00  0.00     0.180 HD
BRANCH   6   8
HETATM    8  C6  UNL     1      -9.193 -17.090   7.730  1.00  0.00     0.249 C 
HETATM    9  N2  UNL     1      -9.578 -17.104   8.961  1.00  0.00    -0.363 N 
ATOM     10  H22 UNL     1      -8.891 -16.958   9.701  1.00  0.00     0.159 HD
ATOM     11  H21 UNL     1     -10.543 -17.253   9.255  1.00  0.00     0.159 HD
BRANCH   8  12
HETATM   12  O1  UNL     1     -10.135 -17.288   6.718  1.00  0.00    -0.183 OA
BRANCH  12  13
HETATM   13  N3  UNL     1     -11.476 -17.123   6.984  1.00  0.00    -0.079 N 
HETATM   14  C7  UNL     1     -12.429 -18.138   7.387  1.00  0.00     0.196 C 
HETATM   15  C8  UNL     1     -13.523 -17.335   8.021  1.00  0.00     0.161 C 
HETATM   16  N4  UNL     1     -13.348 -16.014   7.496  1.00  0.00    -0.223 N 
HETATM   17  C9  UNL     1     -12.196 -15.895   6.913  1.00  0.00     0.696 C 
ATOM     18  H4  UNL     1     -14.037 -15.266   7.571  1.00  0.00     0.177 HD
BRANCH  17  19
HETATM   19  N5  UNL     1     -11.709 -14.721   6.290  1.00  0.00    -0.225 N 
ATOM     20  H5  UNL     1     -12.005 -13.807   6.634  1.00  0.00     0.177 HD
BRANCH  19  21
HETATM   21  C10 UNL     1     -10.805 -14.805   5.181  1.00  0.00     0.138 C 
BRANCH  21  22
HETATM   22  C11 UNL     1      -9.515 -14.048   5.524  1.00  0.00     0.020 C 
BRANCH  22  23
HETATM   23  C12 UNL     1      -8.401 -14.442   4.627  1.00  0.00     0.002 C 
BRANCH  23  24
HETATM   24  C13 UNL     1      -7.997 -13.520   3.549  1.00  0.00     0.008 C 
BRANCH  24  25
HETATM   25  C14 UNL     1      -7.740 -14.048   2.194  1.00  0.00    -0.051 C 
HETATM   26  C15 UNL     1      -8.258 -15.389   1.837  1.00  0.00     0.014 C 
HETATM   27  C16 UNL     1      -8.331 -13.031   1.189  1.00  0.00     0.014 C 
HETATM   28  C17 UNL     1      -6.231 -14.027   1.878  1.00  0.00     0.014 C 
ENDBRANCH  24  25
ENDBRANCH  23  24
ENDBRANCH  22  23
ENDBRANCH  21  22
ENDBRANCH  19  21
ENDBRANCH  17  19
ENDBRANCH  12  13
ENDBRANCH   8  12
ENDBRANCH   6   8
ENDBRANCH   5   6
ENDBRANCH   3   4
TORSDOF 11
ENDMDL
