MODEL 1
REMARK VINA RESULT: -8.204476735      0.000      0.000
REMARK  7 active torsions:
REMARK  status: ('A' for Active; 'I' for Inactive)
REMARK    1  A    between atoms: O1_1  and  C1_3 
REMARK    2  A    between atoms: C1_3  and  C2_4 
REMARK    3  A    between atoms: N1_5  and  C3_7 
REMARK    4  A    between atoms: C4_8  and  C5_9 
REMARK    5  A    between atoms: C5_9  and  O2_10 
REMARK    6  A    between atoms: N2_14  and  C7_15 
REMARK    7  A    between atoms: C7_15  and  C8_16 
ROOT
HETATM    1  C3  UNL     1      -9.813 -16.957   8.087  1.00  0.00     0.060 A 
HETATM    2  C4  UNL     1      -8.671 -16.822   7.311  1.00  0.00     0.044 A 
HETATM    3  C6  UNL     1      -8.740 -16.234   6.052  1.00  0.00     0.107 A 
HETATM    4  N2  UNL     1      -9.859 -15.766   5.505  1.00  0.00    -0.340 N 
HETATM    5  C14 UNL     1     -10.981 -15.879   6.234  1.00  0.00     0.136 A 
HETATM    6  N3  UNL     1     -12.280 -15.508   6.014  1.00  0.00    -0.285 N 
ATOM      7  H3  UNL     1     -12.619 -15.050   5.169  1.00  0.00     0.188 HD
HETATM    8  N4  UNL     1     -13.032 -15.829   7.053  1.00  0.00    -0.309 N 
ATOM      9  H4  UNL     1     -14.034 -15.654   7.126  1.00  0.00     0.186 HD
HETATM   10  C15 UNL     1     -12.284 -16.417   7.998  1.00  0.00     0.124 A 
HETATM   11  C16 UNL     1     -10.999 -16.442   7.473  1.00  0.00     0.054 A 
ENDROOT
BRANCH   4  12
HETATM   12  C7  UNL     1      -9.918 -15.179   4.207  1.00  0.00     0.134 C 
BRANCH  12  13
HETATM   13  C8  UNL     1      -8.608 -14.853   3.551  1.00  0.00     0.004 C 
HETATM   14  C9  UNL     1      -8.147 -13.432   3.721  1.00  0.00     0.006 C 
HETATM   15  C10 UNL     1      -6.919 -13.316   2.800  1.00  0.00     0.000 C 
HETATM   16  C11 UNL     1      -7.477 -13.201   1.412  1.00  0.00     0.000 C 
HETATM   17  C12 UNL     1      -8.428 -14.292   1.107  1.00  0.00     0.000 C 
HETATM   18  C13 UNL     1      -8.544 -15.353   2.163  1.00  0.00     0.006 C 
ENDBRANCH  12  13
ENDBRANCH   4  12
BRANCH   2  19
HETATM   19  C5  UNL     1      -7.334 -17.250   7.817  1.00  0.00     0.342 C 
HETATM   20  F1  UNL     1      -6.864 -18.299   7.060  1.00  0.00    -0.214 F 
BRANCH  19  21
HETATM   21  O2  UNL     1      -6.377 -16.273   7.804  1.00  0.00    -0.363 OA
ATOM     22  H2  UNL     1      -6.384 -15.718   7.033  1.00  0.00     0.213 HD
ENDBRANCH  19  21
ENDBRANCH   2  19
BRANCH   1  23
HETATM   23  N1  UNL     1      -9.890 -17.490   9.169  1.00  0.00    -0.366 N 
HETATM   24  C2  UNL     1      -9.537 -17.922  10.378  1.00  0.00     0.087 C 
ATOM     25  H1  UNL     1     -10.852 -17.827   9.133  1.00  0.00     0.165 HD
BRANCH  24  26
HETATM   26  C1  UNL     1     -10.188 -17.211  11.580  1.00  0.00     0.208 C 
BRANCH  26  27
HETATM   27  O1  UNL     1     -11.466 -16.824  11.179  1.00  0.00    -0.396 OA
ATOM     28  H1  UNL     1     -11.363 -16.061  10.622  1.00  0.00     0.209 HD
ENDBRANCH  26  27
ENDBRANCH  24  26
ENDBRANCH   1  23
TORSDOF 7
ENDMDL
MODEL 2
REMARK VINA RESULT: -7.882337092      2.042      3.089
REMARK  7 active torsions:
REMARK  status: ('A' for Active; 'I' for Inactive)
REMARK    1  A    between atoms: O1_1  and  C1_3 
REMARK    2  A    between atoms: C1_3  and  C2_4 
REMARK    3  A    between atoms: N1_5  and  C3_7 
REMARK    4  A    between atoms: C4_8  and  C5_9 
REMARK    5  A    between atoms: C5_9  and  O2_10 
REMARK    6  A    between atoms: N2_14  and  C7_15 
REMARK    7  A    between atoms: C7_15  and  C8_16 
ROOT
HETATM    1  C3  UNL     1     -10.165 -16.813   8.322  1.00  0.00     0.060 A 
HETATM    2  C4  UNL     1     -11.308 -16.381   7.665  1.00  0.00     0.044 A 
HETATM    3  C6  UNL     1     -11.209 -15.574   6.537  1.00  0.00     0.107 A 
HETATM    4  N2  UNL     1     -10.058 -15.164   6.008  1.00  0.00    -0.340 N 
HETATM    5  C14 UNL     1      -8.934 -15.569   6.620  1.00  0.00     0.136 A 
HETATM    6  N3  UNL     1      -7.605 -15.366   6.363  1.00  0.00    -0.285 N 
ATOM      7  H3  UNL     1      -7.240 -14.812   5.590  1.00  0.00     0.188 HD
HETATM    8  N4  UNL     1      -6.862 -15.992   7.260  1.00  0.00    -0.309 N 
ATOM      9  H4  UNL     1      -5.843 -15.990   7.279  1.00  0.00     0.186 HD
HETATM   10  C15 UNL     1      -7.647 -16.631   8.141  1.00  0.00     0.124 A 
HETATM   11  C16 UNL     1      -8.944 -16.359   7.729  1.00  0.00     0.054 A 
ENDROOT
BRANCH   4  12
HETATM   12  C7  UNL     1      -9.973 -14.324   4.859  1.00  0.00     0.134 C 
BRANCH  12  13
HETATM   13  C8  UNL     1      -8.734 -14.446   4.021  1.00  0.00     0.004 C 
HETATM   14  C9  UNL     1      -8.021 -13.151   3.748  1.00  0.00     0.006 C 
HETATM   15  C10 UNL     1      -6.934 -13.523   2.722  1.00  0.00     0.000 C 
HETATM   16  C11 UNL     1      -7.657 -13.656   1.414  1.00  0.00     0.000 C 
HETATM   17  C12 UNL     1      -8.812 -14.574   1.512  1.00  0.00     0.000 C 
HETATM   18  C13 UNL     1      -8.954 -15.285   2.826  1.00  0.00     0.006 C 
ENDBRANCH  12  13
ENDBRANCH   4  12
BRANCH   2  19
HETATM   19  C5  UNL     1     -12.666 -16.808   8.111  1.00  0.00     0.342 C 
HETATM   20  F1  UNL     1     -12.767 -18.180   8.046  1.00  0.00    -0.214 F 
BRANCH  19  21
HETATM   21  O2  UNL     1     -12.997 -16.433   9.384  1.00  0.00    -0.363 OA
ATOM     22  H2  UNL     1     -13.926 -16.303   9.533  1.00  0.00     0.213 HD
ENDBRANCH  19  21
ENDBRANCH   2  19
BRANCH   1  23
HETATM   23  N1  UNL     1     -10.120 -17.474   9.334  1.00  0.00    -0.366 N 
HETATM   24  C2  UNL     1      -9.636 -18.034  10.440  1.00  0.00     0.087 C 
ATOM     25  H1  UNL     1     -11.072 -17.839   9.351  1.00  0.00     0.165 HD
BRANCH  24  26
HETATM   26  C1  UNL     1     -10.180 -17.495  11.778  1.00  0.00     0.208 C 
BRANCH  26  27
HETATM   27  O1  UNL     1     -11.301 -16.723  11.479  1.00  0.00    -0.396 OA
ATOM     28  H1  UNL     1     -11.916 -16.839  12.194  1.00  0.00     0.209 HD
ENDBRANCH  26  27
ENDBRANCH  24  26
ENDBRANCH   1  23
TORSDOF 7
ENDMDL
MODEL 3
REMARK VINA RESULT: -7.758942061      3.730      7.193
REMARK  7 active torsions:
REMARK  status: ('A' for Active; 'I' for Inactive)
REMARK    1  A    between atoms: O1_1  and  C1_3 
REMARK    2  A    between atoms: C1_3  and  C2_4 
REMARK    3  A    between atoms: N1_5  and  C3_7 
REMARK    4  A    between atoms: C4_8  and  C5_9 
REMARK    5  A    between atoms: C5_9  and  O2_10 
REMARK    6  A    between atoms: N2_14  and  C7_15 
REMARK    7  A    between atoms: C7_15  and  C8_16 
ROOT
HETATM    1  C3  UNL     1      -7.876 -14.244   3.353  1.00  0.00     0.060 A 
HETATM    2  C4  UNL     1      -9.068 -14.891   3.063  1.00  0.00     0.044 A 
HETATM    3  C6  UNL     1     -10.088 -14.945   4.008  1.00  0.00     0.107 A 
HETATM    4  N2  UNL     1     -10.015 -14.402   5.221  1.00  0.00    -0.340 N 
HETATM    5  C14 UNL     1      -8.874 -13.765   5.529  1.00  0.00     0.136 A 
HETATM    6  N3  UNL     1      -8.452 -13.091   6.643  1.00  0.00    -0.285 N 
ATOM      7  H3  UNL     1      -9.001 -12.970   7.493  1.00  0.00     0.188 HD
HETATM    8  N4  UNL     1      -7.230 -12.620   6.460  1.00  0.00    -0.309 N 
ATOM      9  H4  UNL     1      -6.702 -12.083   7.148  1.00  0.00     0.186 HD
HETATM   10  C15 UNL     1      -6.788 -12.950   5.238  1.00  0.00     0.124 A 
HETATM   11  C16 UNL     1      -7.829 -13.668   4.663  1.00  0.00     0.054 A 
ENDROOT
BRANCH   4  12
HETATM   12  C7  UNL     1     -11.063 -14.478   6.184  1.00  0.00     0.134 C 
BRANCH  12  13
HETATM   13  C8  UNL     1     -11.647 -15.835   6.444  1.00  0.00     0.004 C 
HETATM   14  C9  UNL     1     -13.146 -15.911   6.362  1.00  0.00     0.006 C 
HETATM   15  C10 UNL     1     -13.486 -17.326   6.865  1.00  0.00     0.000 C 
HETATM   16  C11 UNL     1     -13.351 -17.257   8.357  1.00  0.00     0.000 C 
HETATM   17  C12 UNL     1     -12.041 -16.710   8.769  1.00  0.00     0.000 C 
HETATM   18  C13 UNL     1     -11.070 -16.465   7.650  1.00  0.00     0.006 C 
ENDBRANCH  12  13
ENDBRANCH   4  12
BRANCH   2  19
HETATM   19  C5  UNL     1      -9.315 -15.497   1.723  1.00  0.00     0.342 C 
HETATM   20  F1  UNL     1      -9.201 -14.532   0.748  1.00  0.00    -0.214 F 
BRANCH  19  21
HETATM   21  O2  UNL     1      -8.467 -16.519   1.390  1.00  0.00    -0.363 OA
ATOM     22  H2  UNL     1      -7.593 -16.447   1.759  1.00  0.00     0.213 HD
ENDBRANCH  19  21
ENDBRANCH   2  19
BRANCH   1  23
HETATM   23  N1  UNL     1      -6.903 -14.170   2.640  1.00  0.00    -0.366 N 
HETATM   24  C2  UNL     1      -6.081 -13.731   1.689  1.00  0.00     0.087 C 
ATOM     25  H1  UNL     1      -6.358 -14.952   3.000  1.00  0.00     0.165 HD
BRANCH  24  26
HETATM   26  C1  UNL     1      -4.785 -13.046   2.164  1.00  0.00     0.208 C 
BRANCH  26  27
HETATM   27  O1  UNL     1      -4.488 -12.050   1.236  1.00  0.00    -0.396 OA
ATOM     28  H1  UNL     1      -5.282 -11.885   0.743  1.00  0.00     0.209 HD
ENDBRANCH  26  27
ENDBRANCH  24  26
ENDBRANCH   1  23
TORSDOF 7
ENDMDL
MODEL 4
REMARK VINA RESULT: -7.528872549      2.211      3.381
REMARK  7 active torsions:
REMARK  status: ('A' for Active; 'I' for Inactive)
REMARK    1  A    between atoms: O1_1  and  C1_3 
REMARK    2  A    between atoms: C1_3  and  C2_4 
REMARK    3  A    between atoms: N1_5  and  C3_7 
REMARK    4  A    between atoms: C4_8  and  C5_9 
REMARK    5  A    between atoms: C5_9  and  O2_10 
REMARK    6  A    between atoms: N2_14  and  C7_15 
REMARK    7  A    between atoms: C7_15  and  C8_16 
ROOT
HETATM    1  C3  UNL     1      -9.820 -16.448   7.939  1.00  0.00     0.060 A 
HETATM    2  C4  UNL     1     -10.715 -15.862   7.057  1.00  0.00     0.044 A 
HETATM    3  C6  UNL     1     -10.262 -15.004   6.060  1.00  0.00     0.107 A 
HETATM    4  N2  UNL     1      -8.984 -14.685   5.870  1.00  0.00    -0.340 N 
HETATM    5  C14 UNL     1      -8.092 -15.240   6.707  1.00  0.00     0.136 A 
HETATM    6  N3  UNL     1      -6.730 -15.161   6.807  1.00  0.00    -0.285 N 
ATOM      7  H3  UNL     1      -6.132 -14.603   6.198  1.00  0.00     0.188 HD
HETATM    8  N4  UNL     1      -6.298 -15.912   7.806  1.00  0.00    -0.309 N 
ATOM      9  H4  UNL     1      -5.320 -16.017   8.078  1.00  0.00     0.186 HD
HETATM   10  C15 UNL     1      -7.333 -16.517   8.407  1.00  0.00     0.124 A 
HETATM   11  C16 UNL     1      -8.453 -16.088   7.709  1.00  0.00     0.054 A 
ENDROOT
BRANCH   4  12
HETATM   12  C7  UNL     1      -8.536 -13.792   4.853  1.00  0.00     0.134 C 
BRANCH  12  13
HETATM   13  C8  UNL     1      -9.005 -14.068   3.455  1.00  0.00     0.004 C 
HETATM   14  C9  UNL     1      -9.337 -15.505   3.165  1.00  0.00     0.006 C 
HETATM   15  C10 UNL     1      -9.583 -15.543   1.646  1.00  0.00     0.000 C 
HETATM   16  C11 UNL     1      -8.217 -15.504   1.025  1.00  0.00     0.000 C 
HETATM   17  C12 UNL     1      -7.411 -14.373   1.534  1.00  0.00     0.000 C 
HETATM   18  C13 UNL     1      -8.140 -13.427   2.443  1.00  0.00     0.006 C 
ENDBRANCH  12  13
ENDBRANCH   4  12
BRANCH   2  19
HETATM   19  C5  UNL     1     -12.173 -16.171   7.112  1.00  0.00     0.342 C 
HETATM   20  F1  UNL     1     -12.403 -17.423   6.586  1.00  0.00    -0.214 F 
BRANCH  19  21
HETATM   21  O2  UNL     1     -12.717 -16.148   8.368  1.00  0.00    -0.363 OA
ATOM     22  H2  UNL     1     -13.091 -16.973   8.656  1.00  0.00     0.213 HD
ENDBRANCH  19  21
ENDBRANCH   2  19
BRANCH   1  23
HETATM   23  N1  UNL     1     -10.092 -17.168   8.871  1.00  0.00    -0.366 N 
HETATM   24  C2  UNL     1      -9.928 -17.952   9.934  1.00  0.00     0.087 C 
ATOM     25  H1  UNL     1     -11.108 -17.186   8.792  1.00  0.00     0.165 HD
BRANCH  24  26
HETATM   26  C1  UNL     1     -10.381 -17.376  11.290  1.00  0.00     0.208 C 
BRANCH  26  27
HETATM   27  O1  UNL     1     -11.554 -16.660  11.055  1.00  0.00    -0.396 OA
ATOM     28  H1  UNL     1     -11.732 -16.718  10.124  1.00  0.00     0.209 HD
ENDBRANCH  26  27
ENDBRANCH  24  26
ENDBRANCH   1  23
TORSDOF 7
ENDMDL
MODEL 5
REMARK VINA RESULT: -7.523192900      3.218      6.990
REMARK  7 active torsions:
REMARK  status: ('A' for Active; 'I' for Inactive)
REMARK    1  A    between atoms: O1_1  and  C1_3 
REMARK    2  A    between atoms: C1_3  and  C2_4 
REMARK    3  A    between atoms: N1_5  and  C3_7 
REMARK    4  A    between atoms: C4_8  and  C5_9 
REMARK    5  A    between atoms: C5_9  and  O2_10 
REMARK    6  A    between atoms: N2_14  and  C7_15 
REMARK    7  A    between atoms: C7_15  and  C8_16 
ROOT
HETATM    1  C3  UNL     1      -7.382 -13.810   3.295  1.00  0.00     0.060 A 
HETATM    2  C4  UNL     1      -7.869 -13.437   4.539  1.00  0.00     0.044 A 
HETATM    3  C6  UNL     1      -9.093 -13.921   4.990  1.00  0.00     0.107 A 
HETATM    4  N2  UNL     1      -9.871 -14.751   4.299  1.00  0.00    -0.340 N 
HETATM    5  C14 UNL     1      -9.424 -15.133   3.091  1.00  0.00     0.136 A 
HETATM    6  N3  UNL     1      -9.928 -15.965   2.129  1.00  0.00    -0.285 N 
ATOM      7  H3  UNL     1     -10.815 -16.462   2.195  1.00  0.00     0.188 HD
HETATM    8  N4  UNL     1      -9.100 -16.033   1.100  1.00  0.00    -0.309 N 
ATOM      9  H4  UNL     1      -9.256 -16.589   0.259  1.00  0.00     0.186 HD
HETATM   10  C15 UNL     1      -8.024 -15.264   1.324  1.00  0.00     0.124 A 
HETATM   11  C16 UNL     1      -8.238 -14.705   2.577  1.00  0.00     0.054 A 
ENDROOT
BRANCH   4  12
HETATM   12  C7  UNL     1     -11.130 -15.227   4.768  1.00  0.00     0.134 C 
BRANCH  12  13
HETATM   13  C8  UNL     1     -11.187 -15.707   6.188  1.00  0.00     0.004 C 
HETATM   14  C9  UNL     1     -10.292 -16.874   6.502  1.00  0.00     0.006 C 
HETATM   15  C10 UNL     1     -10.690 -17.287   7.931  1.00  0.00     0.000 C 
HETATM   16  C11 UNL     1     -11.982 -18.036   7.778  1.00  0.00     0.000 C 
HETATM   17  C12 UNL     1     -12.982 -17.261   7.014  1.00  0.00     0.000 C 
HETATM   18  C13 UNL     1     -12.576 -15.858   6.667  1.00  0.00     0.006 C 
ENDBRANCH  12  13
ENDBRANCH   4  12
BRANCH   2  19
HETATM   19  C5  UNL     1      -7.079 -12.557   5.449  1.00  0.00     0.342 C 
HETATM   20  F1  UNL     1      -7.839 -12.224   6.548  1.00  0.00    -0.214 F 
BRANCH  19  21
HETATM   21  O2  UNL     1      -5.913 -13.106   5.907  1.00  0.00    -0.363 OA
ATOM     22  H2  UNL     1      -5.317 -12.490   6.318  1.00  0.00     0.213 HD
ENDBRANCH  19  21
ENDBRANCH   2  19
BRANCH   1  23
HETATM   23  N1  UNL     1      -6.362 -13.423   2.774  1.00  0.00    -0.366 N 
HETATM   24  C2  UNL     1      -5.063 -13.294   2.512  1.00  0.00     0.087 C 
ATOM     25  H1  UNL     1      -6.747 -12.771   2.091  1.00  0.00     0.165 HD
BRANCH  24  26
HETATM   26  C1  UNL     1      -4.570 -13.880   1.175  1.00  0.00     0.208 C 
BRANCH  26  27
HETATM   27  O1  UNL     1      -3.888 -12.861   0.512  1.00  0.00    -0.396 OA
ATOM     28  H1  UNL     1      -2.969 -13.102   0.506  1.00  0.00     0.209 HD
ENDBRANCH  26  27
ENDBRANCH  24  26
ENDBRANCH   1  23
TORSDOF 7
ENDMDL
