MODEL 1
REMARK VINA RESULT: -6.761320643      0.000      0.000
REMARK  8 active torsions:
REMARK  status: ('A' for Active; 'I' for Inactive)
REMARK    1  A    between atoms: C11_11  and  O1_12 
REMARK    2  A    between atoms: O1_12  and  C12_13 
REMARK    3  A    between atoms: C15_17  and  O3_18 
REMARK    4  A    between atoms: O3_18  and  C16_19 
REMARK    5  A    between atoms: C16_19  and  C17_21 
REMARK    6  A    between atoms: C20_24  and  O5_25 
REMARK    7  A    between atoms: C20_24  and  C21_27 
REMARK    8  A    between atoms: C21_27  and  O6_28 
ROOT
HETATM    1  C1  UNL     1      27.118  29.144  22.529  1.00  0.00     0.017 C 
HETATM    2  C2  UNL     1      27.286  28.999  23.837  1.00  0.00    -0.059 C 
HETATM    3  C3  UNL     1      28.684  29.017  24.337  1.00  0.00     0.043 C 
HETATM    4  C4  UNL     1      28.799  29.048  25.839  1.00  0.00     0.027 C 
HETATM    5  C5  UNL     1      29.371  30.298  26.408  1.00  0.00     0.009 C 
HETATM    6  C6  UNL     1      28.715  31.600  26.094  1.00  0.00     0.010 C 
HETATM    7  C7  UNL     1      27.532  31.791  26.984  1.00  0.00     0.018 A 
HETATM    8  C8  UNL     1      26.779  33.021  27.048  1.00  0.00    -0.025 A 
HETATM    9  C9  UNL     1      25.732  32.558  26.400  1.00  0.00    -0.022 A 
HETATM   10  C10 UNL     1      26.358  31.273  26.236  1.00  0.00     0.046 A 
HETATM   11  C11 UNL     1      25.741  30.058  26.801  1.00  0.00     0.150 C 
HETATM   12  C14 UNL     1      26.303  28.784  26.136  1.00  0.00     0.087 C 
HETATM   13  C15 UNL     1      26.076  28.835  24.662  1.00  0.00     0.170 C 
HETATM   14  C20 UNL     1      27.670  28.414  26.554  1.00  0.00     0.091 C 
ENDROOT
BRANCH  13  15
HETATM   15  O3  UNL     1      25.400  27.662  24.182  1.00  0.00    -0.308 OA
BRANCH  15  16
HETATM   16  C16 UNL     1      24.859  26.729  25.041  1.00  0.00     0.283 C 
HETATM   17  O4  UNL     1      25.328  25.566  25.042  1.00  0.00    -0.260 OA
BRANCH  16  18
HETATM   18  C17 UNL     1      23.768  27.038  25.942  1.00  0.00     0.078 C 
HETATM   19  C18 UNL     1      23.230  26.090  26.679  1.00  0.00    -0.025 C 
HETATM   20  C19 UNL     1      22.109  26.343  27.622  1.00  0.00     0.036 C 
ENDBRANCH  16  18
ENDBRANCH  15  16
ENDBRANCH  13  15
BRANCH  11  21
HETATM   21  O1  UNL     1      25.822  29.954  28.189  1.00  0.00    -0.315 OA
BRANCH  21  22
HETATM   22  C12 UNL     1      24.742  30.217  29.017  1.00  0.00     0.255 C 
HETATM   23  C13 UNL     1      23.604  29.283  29.188  1.00  0.00     0.126 C 
HETATM   24  O2  UNL     1      24.777  31.325  29.638  1.00  0.00    -0.266 OA
ENDBRANCH  21  22
ENDBRANCH  11  21
BRANCH  14  25
HETATM   25  O5  UNL     1      27.806  28.664  27.933  1.00  0.00    -0.387 OA
ATOM     26  H5  UNL     1      27.128  28.190  28.399  1.00  0.00     0.210 HD
ENDBRANCH  14  25
BRANCH  14  27
HETATM   27  C21 UNL     1      27.791  26.890  26.475  1.00  0.00     0.202 C 
BRANCH  27  28
HETATM   28  O6  UNL     1      27.031  26.201  27.379  1.00  0.00    -0.398 OA
ATOM     29  H6  UNL     1      27.254  25.282  27.474  1.00  0.00     0.209 HD
ENDBRANCH  27  28
ENDBRANCH  14  27
TORSDOF 8
ENDMDL
MODEL 2
REMARK VINA RESULT: -6.341373027      7.059      9.960
REMARK  8 active torsions:
REMARK  status: ('A' for Active; 'I' for Inactive)
REMARK    1  A    between atoms: C11_11  and  O1_12 
REMARK    2  A    between atoms: O1_12  and  C12_13 
REMARK    3  A    between atoms: C15_17  and  O3_18 
REMARK    4  A    between atoms: O3_18  and  C16_19 
REMARK    5  A    between atoms: C16_19  and  C17_21 
REMARK    6  A    between atoms: C20_24  and  O5_25 
REMARK    7  A    between atoms: C20_24  and  C21_27 
REMARK    8  A    between atoms: C21_27  and  O6_28 
ROOT
HETATM    1  C1  UNL     1      21.457  27.255  29.535  1.00  0.00     0.017 C 
HETATM    2  C2  UNL     1      21.222  26.336  30.463  1.00  0.00    -0.059 C 
HETATM    3  C3  UNL     1      21.967  26.471  31.740  1.00  0.00     0.043 C 
HETATM    4  C4  UNL     1      21.515  25.521  32.818  1.00  0.00     0.027 C 
HETATM    5  C5  UNL     1      20.867  26.158  33.996  1.00  0.00     0.009 C 
HETATM    6  C6  UNL     1      19.668  27.020  33.782  1.00  0.00     0.010 C 
HETATM    7  C7  UNL     1      18.455  26.162  33.636  1.00  0.00     0.018 A 
HETATM    8  C8  UNL     1      17.113  26.690  33.582  1.00  0.00    -0.025 A 
HETATM    9  C9  UNL     1      16.947  26.475  32.296  1.00  0.00    -0.022 A 
HETATM   10  C10 UNL     1      18.276  25.935  32.179  1.00  0.00     0.046 A 
HETATM   11  C11 UNL     1      18.488  24.546  31.731  1.00  0.00     0.150 C 
HETATM   12  C14 UNL     1      19.936  24.328  31.246  1.00  0.00     0.087 C 
HETATM   13  C15 UNL     1      20.250  25.277  30.138  1.00  0.00     0.170 C 
HETATM   14  C20 UNL     1      20.948  24.249  32.318  1.00  0.00     0.091 C 
ENDROOT
BRANCH  13  15
HETATM   15  O3  UNL     1      20.748  24.598  28.974  1.00  0.00    -0.308 OA
BRANCH  15  16
HETATM   16  C16 UNL     1      19.963  24.393  27.858  1.00  0.00     0.283 C 
HETATM   17  O4  UNL     1      19.208  25.318  27.473  1.00  0.00    -0.260 OA
BRANCH  16  18
HETATM   18  C17 UNL     1      19.973  23.150  27.115  1.00  0.00     0.078 C 
HETATM   19  C18 UNL     1      19.605  22.029  27.698  1.00  0.00    -0.025 C 
HETATM   20  C19 UNL     1      19.594  20.721  26.990  1.00  0.00     0.036 C 
ENDBRANCH  16  18
ENDBRANCH  15  16
ENDBRANCH  13  15
BRANCH  11  21
HETATM   21  O1  UNL     1      18.140  23.572  32.666  1.00  0.00    -0.315 OA
BRANCH  21  22
HETATM   22  C12 UNL     1      16.903  22.948  32.665  1.00  0.00     0.255 C 
HETATM   23  C13 UNL     1      15.982  22.968  33.826  1.00  0.00     0.126 C 
HETATM   24  O2  UNL     1      16.589  22.342  31.593  1.00  0.00    -0.266 OA
ENDBRANCH  21  22
ENDBRANCH  11  21
BRANCH  14  25
HETATM   25  O5  UNL     1      20.404  23.536  33.403  1.00  0.00    -0.387 OA
ATOM     26  H5  UNL     1      20.595  22.612  33.289  1.00  0.00     0.210 HD
ENDBRANCH  14  25
BRANCH  14  27
HETATM   27  C21 UNL     1      22.072  23.329  31.838  1.00  0.00     0.202 C 
BRANCH  27  28
HETATM   28  O6  UNL     1      22.798  22.735  32.833  1.00  0.00    -0.398 OA
ATOM     29  H6  UNL     1      23.741  22.774  32.721  1.00  0.00     0.209 HD
ENDBRANCH  27  28
ENDBRANCH  14  27
TORSDOF 8
ENDMDL
MODEL 3
REMARK VINA RESULT: -6.211258588      4.818      9.773
REMARK  8 active torsions:
REMARK  status: ('A' for Active; 'I' for Inactive)
REMARK    1  A    between atoms: C11_11  and  O1_12 
REMARK    2  A    between atoms: O1_12  and  C12_13 
REMARK    3  A    between atoms: C15_17  and  O3_18 
REMARK    4  A    between atoms: O3_18  and  C16_19 
REMARK    5  A    between atoms: C16_19  and  C17_21 
REMARK    6  A    between atoms: C20_24  and  O5_25 
REMARK    7  A    between atoms: C20_24  and  C21_27 
REMARK    8  A    between atoms: C21_27  and  O6_28 
ROOT
HETATM    1  C1  UNL     1      19.301  25.089  29.826  1.00  0.00     0.017 C 
HETATM    2  C2  UNL     1      20.051  24.031  29.550  1.00  0.00    -0.059 C 
HETATM    3  C3  UNL     1      19.779  22.796  30.329  1.00  0.00     0.043 C 
HETATM    4  C4  UNL     1      20.522  21.582  29.836  1.00  0.00     0.027 C 
HETATM    5  C5  UNL     1      19.672  20.507  29.258  1.00  0.00     0.009 C 
HETATM    6  C6  UNL     1      18.770  20.837  28.116  1.00  0.00     0.010 C 
HETATM    7  C7  UNL     1      19.552  20.838  26.845  1.00  0.00     0.018 A 
HETATM    8  C8  UNL     1      18.946  20.957  25.541  1.00  0.00    -0.025 A 
HETATM    9  C9  UNL     1      19.340  22.194  25.334  1.00  0.00    -0.022 A 
HETATM   10  C10 UNL     1      19.983  22.242  26.620  1.00  0.00     0.046 A 
HETATM   11  C11 UNL     1      21.435  22.477  26.728  1.00  0.00     0.150 C 
HETATM   12  C14 UNL     1      21.824  22.939  28.148  1.00  0.00     0.087 C 
HETATM   13  C15 UNL     1      21.076  24.181  28.502  1.00  0.00     0.170 C 
HETATM   14  C20 UNL     1      21.811  21.878  29.174  1.00  0.00     0.091 C 
ENDROOT
BRANCH  13  15
HETATM   15  O3  UNL     1      21.955  25.235  28.928  1.00  0.00    -0.308 OA
BRANCH  15  16
HETATM   16  C16 UNL     1      22.396  26.212  28.059  1.00  0.00     0.283 C 
HETATM   17  O4  UNL     1      21.620  26.615  27.160  1.00  0.00    -0.260 OA
BRANCH  16  18
HETATM   18  C17 UNL     1      23.722  26.789  28.142  1.00  0.00     0.078 C 
HETATM   19  C18 UNL     1      24.399  27.049  27.045  1.00  0.00    -0.025 C 
HETATM   20  C19 UNL     1      25.763  27.641  27.063  1.00  0.00     0.036 C 
ENDBRANCH  16  18
ENDBRANCH  15  16
ENDBRANCH  13  15
BRANCH  11  21
HETATM   21  O1  UNL     1      22.231  21.402  26.335  1.00  0.00    -0.315 OA
BRANCH  21  22
HETATM   22  C12 UNL     1      23.124  21.485  25.279  1.00  0.00     0.255 C 
HETATM   23  C13 UNL     1      22.709  21.415  23.858  1.00  0.00     0.126 C 
HETATM   24  O2  UNL     1      24.346  21.626  25.596  1.00  0.00    -0.266 OA
ENDBRANCH  21  22
ENDBRANCH  11  21
BRANCH  14  25
HETATM   25  O5  UNL     1      22.314  20.693  28.606  1.00  0.00    -0.387 OA
ATOM     26  H5  UNL     1      23.102  20.897  28.116  1.00  0.00     0.210 HD
ENDBRANCH  14  25
BRANCH  14  27
HETATM   27  C21 UNL     1      22.870  22.225  30.223  1.00  0.00     0.202 C 
BRANCH  27  28
HETATM   28  O6  UNL     1      23.649  21.177  30.629  1.00  0.00    -0.398 OA
ATOM     29  H6  UNL     1      24.433  21.035  30.112  1.00  0.00     0.209 HD
ENDBRANCH  27  28
ENDBRANCH  14  27
TORSDOF 8
ENDMDL
MODEL 4
REMARK VINA RESULT: -6.163043550      4.780      9.763
REMARK  8 active torsions:
REMARK  status: ('A' for Active; 'I' for Inactive)
REMARK    1  A    between atoms: C11_11  and  O1_12 
REMARK    2  A    between atoms: O1_12  and  C12_13 
REMARK    3  A    between atoms: C15_17  and  O3_18 
REMARK    4  A    between atoms: O3_18  and  C16_19 
REMARK    5  A    between atoms: C16_19  and  C17_21 
REMARK    6  A    between atoms: C20_24  and  O5_25 
REMARK    7  A    between atoms: C20_24  and  C21_27 
REMARK    8  A    between atoms: C21_27  and  O6_28 
ROOT
HETATM    1  C1  UNL     1      18.893  25.323  30.195  1.00  0.00     0.017 C 
HETATM    2  C2  UNL     1      19.745  24.322  30.012  1.00  0.00    -0.059 C 
HETATM    3  C3  UNL     1      19.511  23.091  30.809  1.00  0.00     0.043 C 
HETATM    4  C4  UNL     1      20.384  21.929  30.414  1.00  0.00     0.027 C 
HETATM    5  C5  UNL     1      19.670  20.773  29.808  1.00  0.00     0.009 C 
HETATM    6  C6  UNL     1      18.837  20.997  28.591  1.00  0.00     0.010 C 
HETATM    7  C7  UNL     1      19.714  21.028  27.384  1.00  0.00     0.018 A 
HETATM    8  C8  UNL     1      19.203  21.062  26.034  1.00  0.00    -0.025 A 
HETATM    9  C9  UNL     1      19.513  22.321  25.817  1.00  0.00    -0.022 A 
HETATM   10  C10 UNL     1      20.047  22.456  27.146  1.00  0.00     0.046 A 
HETATM   11  C11 UNL     1      21.463  22.811  27.356  1.00  0.00     0.150 C 
HETATM   12  C14 UNL     1      21.702  23.342  28.785  1.00  0.00     0.087 C 
HETATM   13  C15 UNL     1      20.833  24.528  29.040  1.00  0.00     0.170 C 
HETATM   14  C20 UNL     1      21.694  22.311  29.842  1.00  0.00     0.091 C 
ENDROOT
BRANCH  13  15
HETATM   15  O3  UNL     1      21.590  25.660  29.496  1.00  0.00    -0.308 OA
BRANCH  15  16
HETATM   16  C16 UNL     1      21.910  26.709  28.658  1.00  0.00     0.283 C 
HETATM   17  O4  UNL     1      21.651  26.604  27.436  1.00  0.00    -0.260 OA
BRANCH  16  18
HETATM   18  C17 UNL     1      22.536  27.925  29.134  1.00  0.00     0.078 C 
HETATM   19  C18 UNL     1      23.468  28.513  28.416  1.00  0.00    -0.025 C 
HETATM   20  C19 UNL     1      24.148  29.762  28.849  1.00  0.00     0.036 C 
ENDBRANCH  16  18
ENDBRANCH  15  16
ENDBRANCH  13  15
BRANCH  11  21
HETATM   21  O1  UNL     1      22.370  21.794  27.061  1.00  0.00    -0.315 OA
BRANCH  21  22
HETATM   22  C12 UNL     1      23.048  21.731  25.854  1.00  0.00     0.255 C 
HETATM   23  C13 UNL     1      23.070  20.522  24.997  1.00  0.00     0.126 C 
HETATM   24  O2  UNL     1      23.668  22.786  25.510  1.00  0.00    -0.266 OA
ENDBRANCH  21  22
ENDBRANCH  11  21
BRANCH  14  25
HETATM   25  O5  UNL     1      22.332  21.156  29.353  1.00  0.00    -0.387 OA
ATOM     26  H5  UNL     1      21.946  20.922  28.517  1.00  0.00     0.210 HD
ENDBRANCH  14  25
BRANCH  14  27
HETATM   27  C21 UNL     1      22.636  22.772  30.956  1.00  0.00     0.202 C 
BRANCH  27  28
HETATM   28  O6  UNL     1      23.348  21.773  31.562  1.00  0.00    -0.398 OA
ATOM     29  H6  UNL     1      23.611  21.953  32.457  1.00  0.00     0.209 HD
ENDBRANCH  27  28
ENDBRANCH  14  27
TORSDOF 8
ENDMDL
MODEL 5
REMARK VINA RESULT: -6.078039279      5.371      9.221
REMARK  8 active torsions:
REMARK  status: ('A' for Active; 'I' for Inactive)
REMARK    1  A    between atoms: C11_11  and  O1_12 
REMARK    2  A    between atoms: O1_12  and  C12_13 
REMARK    3  A    between atoms: C15_17  and  O3_18 
REMARK    4  A    between atoms: O3_18  and  C16_19 
REMARK    5  A    between atoms: C16_19  and  C17_21 
REMARK    6  A    between atoms: C20_24  and  O5_25 
REMARK    7  A    between atoms: C20_24  and  C21_27 
REMARK    8  A    between atoms: C21_27  and  O6_28 
ROOT
HETATM    1  C1  UNL     1      22.894  18.722  27.197  1.00  0.00     0.017 C 
HETATM    2  C2  UNL     1      22.136  19.767  26.890  1.00  0.00    -0.059 C 
HETATM    3  C3  UNL     1      20.666  19.570  26.962  1.00  0.00     0.043 C 
HETATM    4  C4  UNL     1      19.868  20.837  26.798  1.00  0.00     0.027 C 
HETATM    5  C5  UNL     1      19.114  21.274  28.003  1.00  0.00     0.009 C 
HETATM    6  C6  UNL     1      19.859  21.507  29.275  1.00  0.00     0.010 C 
HETATM    7  C7  UNL     1      20.497  22.857  29.241  1.00  0.00     0.018 A 
HETATM    8  C8  UNL     1      21.151  23.453  30.381  1.00  0.00    -0.025 A 
HETATM    9  C9  UNL     1      22.372  23.289  29.922  1.00  0.00    -0.022 A 
HETATM   10  C10 UNL     1      21.877  22.654  28.730  1.00  0.00     0.046 A 
HETATM   11  C11 UNL     1      22.144  23.235  27.401  1.00  0.00     0.150 C 
HETATM   12  C14 UNL     1      21.937  22.193  26.282  1.00  0.00     0.087 C 
HETATM   13  C15 UNL     1      22.823  21.015  26.513  1.00  0.00     0.170 C 
HETATM   14  C20 UNL     1      20.528  21.876  25.978  1.00  0.00     0.091 C 
ENDROOT
BRANCH  13  15
HETATM   15  O3  UNL     1      23.629  20.714  25.362  1.00  0.00    -0.308 OA
BRANCH  15  16
HETATM   16  C16 UNL     1      24.947  21.112  25.272  1.00  0.00     0.283 C 
HETATM   17  O4  UNL     1      25.809  20.500  25.946  1.00  0.00    -0.260 OA
BRANCH  16  18
HETATM   18  C17 UNL     1      25.374  22.211  24.430  1.00  0.00     0.078 C 
HETATM   19  C18 UNL     1      25.036  23.445  24.733  1.00  0.00    -0.025 C 
HETATM   20  C19 UNL     1      25.443  24.615  23.911  1.00  0.00     0.036 C 
ENDBRANCH  16  18
ENDBRANCH  15  16
ENDBRANCH  13  15
BRANCH  11  21
HETATM   21  O1  UNL     1      21.427  24.397  27.117  1.00  0.00    -0.315 OA
BRANCH  21  22
HETATM   22  C12 UNL     1      21.959  25.663  27.306  1.00  0.00     0.255 C 
HETATM   23  C13 UNL     1      23.249  26.097  26.721  1.00  0.00     0.126 C 
HETATM   24  O2  UNL     1      21.269  26.452  28.024  1.00  0.00    -0.266 OA
ENDBRANCH  21  22
ENDBRANCH  11  21
BRANCH  14  25
HETATM   25  O5  UNL     1      19.771  23.061  26.050  1.00  0.00    -0.387 OA
ATOM     26  H5  UNL     1      20.233  23.749  25.585  1.00  0.00     0.210 HD
ENDBRANCH  14  25
BRANCH  14  27
HETATM   27  C21 UNL     1      20.437  21.508  24.495  1.00  0.00     0.202 C 
BRANCH  27  28
HETATM   28  O6  UNL     1      21.468  21.963  23.721  1.00  0.00    -0.398 OA
ATOM     29  H6  UNL     1      21.841  22.793  23.995  1.00  0.00     0.209 HD
ENDBRANCH  27  28
ENDBRANCH  14  27
TORSDOF 8
ENDMDL
