MODEL 1
REMARK VINA RESULT: -7.009445038      0.000      0.000
REMARK  6 active torsions:
REMARK  status: ('A' for Active; 'I' for Inactive)
REMARK    1  A    between atoms: C8_9  and  O2_10 
REMARK    2  A    between atoms: O2_10  and  C9_11 
REMARK    3  A    between atoms: C13_17  and  C14_18 
REMARK    4  A    between atoms: C18_23  and  C19_24 
REMARK    5  A    between atoms: C19_24  and  O6_25 
REMARK    6  A    between atoms: C20_27  and  O7_28 
ROOT
HETATM    1  C1  UNL     1      23.125  26.864  26.710  1.00  0.00     0.036 C 
HETATM    2  C2  UNL     1      24.370  26.272  26.162  1.00  0.00    -0.023 C 
HETATM    3  C3  UNL     1      25.548  26.842  26.323  1.00  0.00    -0.018 C 
HETATM    4  C4  UNL     1      26.947  26.580  25.947  1.00  0.00     0.184 C 
HETATM    5  O1  UNL     1      27.366  27.338  27.031  1.00  0.00    -0.363 OA
HETATM    6  C5  UNL     1      26.190  28.040  26.946  1.00  0.00     0.091 C 
HETATM    7  C6  UNL     1      25.564  28.293  28.292  1.00  0.00     0.052 C 
HETATM    8  C7  UNL     1      26.139  29.129  25.947  1.00  0.00     0.078 C 
HETATM    9  C8  UNL     1      26.675  30.453  26.414  1.00  0.00     0.178 C 
HETATM   10  C11 UNL     1      28.184  30.555  26.395  1.00  0.00     0.124 A 
HETATM   11  C12 UNL     1      28.917  30.692  27.706  1.00  0.00     0.052 C 
HETATM   12  O4  UNL     1      28.630  31.594  25.420  1.00  0.00    -0.352 OA
HETATM   13  C13 UNL     1      28.833  30.152  25.237  1.00  0.00     0.159 A 
HETATM   14  C17 UNL     1      27.892  29.556  24.239  1.00  0.00     0.178 C 
HETATM   15  O5  UNL     1      28.070  29.779  23.076  1.00  0.00    -0.293 OA
HETATM   16  C18 UNL     1      26.743  28.695  24.654  1.00  0.00     0.083 C 
HETATM   17  C20 UNL     1      27.263  27.280  24.647  1.00  0.00     0.170 C 
ENDROOT
BRANCH   9  18
HETATM   18  O2  UNL     1      26.184  30.784  27.696  1.00  0.00    -0.313 OA
BRANCH  18  19
HETATM   19  C9  UNL     1      25.350  31.868  27.956  1.00  0.00     0.255 C 
HETATM   20  C10 UNL     1      25.454  33.054  27.095  1.00  0.00     0.126 C 
HETATM   21  O3  UNL     1      24.557  31.754  28.920  1.00  0.00    -0.266 OA
ENDBRANCH  18  19
ENDBRANCH   9  18
BRANCH  16  22
HETATM   22  C19 UNL     1      25.677  28.882  23.562  1.00  0.00     0.184 C 
BRANCH  22  23
HETATM   23  O6  UNL     1      26.350  28.949  22.353  1.00  0.00    -0.400 OA
ATOM     24  H6  UNL     1      25.794  29.437  21.756  1.00  0.00     0.209 HD
ENDBRANCH  22  23
ENDBRANCH  16  22
BRANCH  13  25
HETATM   25  C14 UNL     1      30.270  29.836  25.144  1.00  0.00     0.023 C 
HETATM   26  C15 UNL     1      30.987  30.951  24.374  1.00  0.00     0.013 C 
HETATM   27  C16 UNL     1      30.609  28.503  24.515  1.00  0.00     0.013 C 
ENDBRANCH  13  25
BRANCH  17  28
HETATM   28  O7  UNL     1      26.759  26.543  23.566  1.00  0.00    -0.391 OA
ATOM     29  H7  UNL     1      26.284  27.113  22.974  1.00  0.00     0.210 HD
ENDBRANCH  17  28
TORSDOF 6
ENDMDL
MODEL 2
REMARK VINA RESULT: -6.151830516      6.018      8.640
REMARK  6 active torsions:
REMARK  status: ('A' for Active; 'I' for Inactive)
REMARK    1  A    between atoms: C8_9  and  O2_10 
REMARK    2  A    between atoms: O2_10  and  C9_11 
REMARK    3  A    between atoms: C13_17  and  C14_18 
REMARK    4  A    between atoms: C18_23  and  C19_24 
REMARK    5  A    between atoms: C19_24  and  O6_25 
REMARK    6  A    between atoms: C20_27  and  O7_28 
ROOT
HETATM    1  C1  UNL     1      19.338  20.407  30.236  1.00  0.00     0.036 C 
HETATM    2  C2  UNL     1      20.596  20.721  29.515  1.00  0.00    -0.023 C 
HETATM    3  C3  UNL     1      21.275  21.830  29.739  1.00  0.00    -0.018 C 
HETATM    4  C4  UNL     1      22.506  22.473  29.250  1.00  0.00     0.184 C 
HETATM    5  O1  UNL     1      22.606  23.163  30.450  1.00  0.00    -0.363 OA
HETATM    6  C5  UNL     1      21.242  23.070  30.573  1.00  0.00     0.091 C 
HETATM    7  C6  UNL     1      20.806  22.717  31.970  1.00  0.00     0.052 C 
HETATM    8  C7  UNL     1      20.441  24.071  29.833  1.00  0.00     0.078 C 
HETATM    9  C8  UNL     1      20.228  25.375  30.547  1.00  0.00     0.178 C 
HETATM   10  C11 UNL     1      21.407  26.322  30.478  1.00  0.00     0.124 A 
HETATM   11  C12 UNL     1      22.142  26.654  31.753  1.00  0.00     0.052 C 
HETATM   12  O4  UNL     1      21.044  27.561  29.729  1.00  0.00    -0.352 OA
HETATM   13  C13 UNL     1      21.974  26.539  29.232  1.00  0.00     0.159 A 
HETATM   14  C17 UNL     1      21.370  25.670  28.176  1.00  0.00     0.178 C 
HETATM   15  O5  UNL     1      21.207  26.126  27.081  1.00  0.00    -0.293 OA
HETATM   16  C18 UNL     1      20.969  24.257  28.451  1.00  0.00     0.083 C 
HETATM   17  C20 UNL     1      22.171  23.413  28.116  1.00  0.00     0.170 C 
ENDROOT
BRANCH   9  18
HETATM   18  O2  UNL     1      19.849  25.171  31.892  1.00  0.00    -0.313 OA
BRANCH  18  19
HETATM   19  C9  UNL     1      18.670  25.655  32.452  1.00  0.00     0.255 C 
HETATM   20  C10 UNL     1      18.762  26.556  33.609  1.00  0.00     0.126 C 
HETATM   21  O3  UNL     1      17.598  25.284  31.921  1.00  0.00    -0.266 OA
ENDBRANCH  18  19
ENDBRANCH   9  18
BRANCH  16  22
HETATM   22  C19 UNL     1      19.816  23.964  27.476  1.00  0.00     0.184 C 
BRANCH  22  23
HETATM   23  O6  UNL     1      19.074  25.129  27.371  1.00  0.00    -0.400 OA
ATOM     24  H6  UNL     1      19.667  25.807  27.069  1.00  0.00     0.209 HD
ENDBRANCH  22  23
ENDBRANCH  16  22
BRANCH  13  25
HETATM   25  C14 UNL     1      23.311  27.118  29.006  1.00  0.00     0.023 C 
HETATM   26  C15 UNL     1      23.200  28.646  28.943  1.00  0.00     0.013 C 
HETATM   27  C16 UNL     1      24.040  26.624  27.777  1.00  0.00     0.013 C 
ENDBRANCH  13  25
BRANCH  17  28
HETATM   28  O7  UNL     1      21.990  22.692  26.928  1.00  0.00    -0.391 OA
ATOM     29  H7  UNL     1      22.620  22.973  26.275  1.00  0.00     0.210 HD
ENDBRANCH  17  28
TORSDOF 6
ENDMDL
MODEL 3
REMARK VINA RESULT: -5.973724469      6.735      9.736
REMARK  6 active torsions:
REMARK  status: ('A' for Active; 'I' for Inactive)
REMARK    1  A    between atoms: C8_9  and  O2_10 
REMARK    2  A    between atoms: O2_10  and  C9_11 
REMARK    3  A    between atoms: C13_17  and  C14_18 
REMARK    4  A    between atoms: C18_23  and  C19_24 
REMARK    5  A    between atoms: C19_24  and  O6_25 
REMARK    6  A    between atoms: C20_27  and  O7_28 
ROOT
HETATM    1  C1  UNL     1      20.379  18.776  27.987  1.00  0.00     0.036 C 
HETATM    2  C2  UNL     1      21.474  19.661  27.519  1.00  0.00    -0.023 C 
HETATM    3  C3  UNL     1      21.842  20.736  28.188  1.00  0.00    -0.018 C 
HETATM    4  C4  UNL     1      22.835  21.815  28.057  1.00  0.00     0.184 C 
HETATM    5  O1  UNL     1      22.802  21.994  29.433  1.00  0.00    -0.363 OA
HETATM    6  C5  UNL     1      21.518  21.507  29.427  1.00  0.00     0.091 C 
HETATM    7  C6  UNL     1      21.255  20.546  30.555  1.00  0.00     0.052 C 
HETATM    8  C7  UNL     1      20.448  22.466  29.075  1.00  0.00     0.078 C 
HETATM    9  C8  UNL     1      19.927  23.293  30.216  1.00  0.00     0.178 C 
HETATM   10  C11 UNL     1      20.807  24.467  30.585  1.00  0.00     0.124 A 
HETATM   11  C12 UNL     1      21.484  24.468  31.932  1.00  0.00     0.052 C 
HETATM   12  O4  UNL     1      20.095  25.756  30.341  1.00  0.00    -0.352 OA
HETATM   13  C13 UNL     1      21.240  25.285  29.552  1.00  0.00     0.159 A 
HETATM   14  C17 UNL     1      20.842  24.760  28.210  1.00  0.00     0.178 C 
HETATM   15  O5  UNL     1      20.514  25.540  27.362  1.00  0.00    -0.293 OA
HETATM   16  C18 UNL     1      20.844  23.298  27.902  1.00  0.00     0.083 C 
HETATM   17  C20 UNL     1      22.211  22.994  27.347  1.00  0.00     0.170 C 
ENDROOT
BRANCH   9  18
HETATM   18  O2  UNL     1      19.678  22.498  31.356  1.00  0.00    -0.313 OA
BRANCH  18  19
HETATM   19  C9  UNL     1      18.480  22.509  32.067  1.00  0.00     0.255 C 
HETATM   20  C10 UNL     1      18.392  21.722  33.304  1.00  0.00     0.126 C 
HETATM   21  O3  UNL     1      17.548  23.200  31.594  1.00  0.00    -0.266 OA
ENDBRANCH  18  19
ENDBRANCH   9  18
BRANCH  16  22
HETATM   22  C19 UNL     1      19.768  23.108  26.820  1.00  0.00     0.184 C 
BRANCH  22  23
HETATM   23  O6  UNL     1      19.056  21.969  27.159  1.00  0.00    -0.400 OA
ATOM     24  H6  UNL     1      19.369  21.271  26.596  1.00  0.00     0.209 HD
ENDBRANCH  22  23
ENDBRANCH  16  22
BRANCH  13  25
HETATM   25  C14 UNL     1      22.362  26.236  29.646  1.00  0.00     0.023 C 
HETATM   26  C15 UNL     1      21.837  27.601  30.102  1.00  0.00     0.013 C 
HETATM   27  C16 UNL     1      23.177  26.416  28.384  1.00  0.00     0.013 C 
ENDBRANCH  13  25
BRANCH  17  28
HETATM   28  O7  UNL     1      22.176  22.761  25.965  1.00  0.00    -0.391 OA
ATOM     29  H7  UNL     1      23.045  22.548  25.647  1.00  0.00     0.210 HD
ENDBRANCH  17  28
TORSDOF 6
ENDMDL
MODEL 4
REMARK VINA RESULT: -5.823417200      7.809     10.983
REMARK  6 active torsions:
REMARK  status: ('A' for Active; 'I' for Inactive)
REMARK    1  A    between atoms: C8_9  and  O2_10 
REMARK    2  A    between atoms: O2_10  and  C9_11 
REMARK    3  A    between atoms: C13_17  and  C14_18 
REMARK    4  A    between atoms: C18_23  and  C19_24 
REMARK    5  A    between atoms: C19_24  and  O6_25 
REMARK    6  A    between atoms: C20_27  and  O7_28 
ROOT
HETATM    1  C1  UNL     1      23.135  21.339  27.013  1.00  0.00     0.036 C 
HETATM    2  C2  UNL     1      22.634  20.052  26.470  1.00  0.00    -0.023 C 
HETATM    3  C3  UNL     1      23.180  19.475  25.416  1.00  0.00    -0.018 C 
HETATM    4  C4  UNL     1      22.979  18.258  24.613  1.00  0.00     0.184 C 
HETATM    5  O1  UNL     1      24.313  18.305  24.233  1.00  0.00    -0.363 OA
HETATM    6  C5  UNL     1      24.279  19.664  24.421  1.00  0.00     0.091 C 
HETATM    7  C6  UNL     1      25.503  20.185  25.127  1.00  0.00     0.052 C 
HETATM    8  C7  UNL     1      23.727  20.473  23.312  1.00  0.00     0.078 C 
HETATM    9  C8  UNL     1      24.708  20.836  22.234  1.00  0.00     0.178 C 
HETATM   10  C11 UNL     1      24.981  19.727  21.241  1.00  0.00     0.124 A 
HETATM   11  C12 UNL     1      26.362  19.122  21.194  1.00  0.00     0.052 C 
HETATM   12  O4  UNL     1      24.518  20.116  19.876  1.00  0.00    -0.352 OA
HETATM   13  C13 UNL     1      23.883  19.078  20.697  1.00  0.00     0.159 A 
HETATM   14  C17 UNL     1      22.596  19.530  21.311  1.00  0.00     0.178 C 
HETATM   15  O5  UNL     1      21.631  19.637  20.610  1.00  0.00    -0.293 OA
HETATM   16  C18 UNL     1      22.486  19.850  22.767  1.00  0.00     0.083 C 
HETATM   17  C20 UNL     1      22.076  18.567  23.442  1.00  0.00     0.170 C 
ENDROOT
BRANCH   9  18
HETATM   18  O2  UNL     1      25.923  21.306  22.780  1.00  0.00    -0.313 OA
BRANCH  18  19
HETATM   19  C9  UNL     1      26.410  22.598  22.599  1.00  0.00     0.255 C 
HETATM   20  C10 UNL     1      26.404  23.516  23.746  1.00  0.00     0.126 C 
HETATM   21  O3  UNL     1      26.825  22.890  21.454  1.00  0.00    -0.266 OA
ENDBRANCH  18  19
ENDBRANCH   9  18
BRANCH  16  22
HETATM   22  C19 UNL     1      21.364  20.896  22.870  1.00  0.00     0.184 C 
BRANCH  22  23
HETATM   23  O6  UNL     1      21.914  22.015  23.475  1.00  0.00    -0.400 OA
ATOM     24  H6  UNL     1      22.857  21.909  23.444  1.00  0.00     0.209 HD
ENDBRANCH  22  23
ENDBRANCH  16  22
BRANCH  13  25
HETATM   25  C14 UNL     1      23.930  17.772  20.014  1.00  0.00     0.023 C 
HETATM   26  C15 UNL     1      23.642  17.968  18.522  1.00  0.00     0.013 C 
HETATM   27  C16 UNL     1      23.002  16.711  20.562  1.00  0.00     0.013 C 
ENDBRANCH  13  25
BRANCH  17  28
HETATM   28  O7  UNL     1      20.738  18.599  23.859  1.00  0.00    -0.391 OA
ATOM     29  H7  UNL     1      20.160  18.546  23.108  1.00  0.00     0.210 HD
ENDBRANCH  17  28
TORSDOF 6
ENDMDL
MODEL 5
REMARK VINA RESULT: -5.730377491      8.079     12.102
REMARK  6 active torsions:
REMARK  status: ('A' for Active; 'I' for Inactive)
REMARK    1  A    between atoms: C8_9  and  O2_10 
REMARK    2  A    between atoms: O2_10  and  C9_11 
REMARK    3  A    between atoms: C13_17  and  C14_18 
REMARK    4  A    between atoms: C18_23  and  C19_24 
REMARK    5  A    between atoms: C19_24  and  O6_25 
REMARK    6  A    between atoms: C20_27  and  O7_28 
ROOT
HETATM    1  C1  UNL     1      21.712  27.262  29.623  1.00  0.00     0.036 C 
HETATM    2  C2  UNL     1      21.719  26.869  31.054  1.00  0.00    -0.023 C 
HETATM    3  C3  UNL     1      21.554  25.618  31.439  1.00  0.00    -0.018 C 
HETATM    4  C4  UNL     1      21.500  24.864  32.702  1.00  0.00     0.184 C 
HETATM    5  O1  UNL     1      21.899  23.722  32.022  1.00  0.00    -0.363 OA
HETATM    6  C5  UNL     1      21.333  24.247  30.887  1.00  0.00     0.091 C 
HETATM    7  C6  UNL     1      22.194  24.059  29.667  1.00  0.00     0.052 C 
HETATM    8  C7  UNL     1      19.872  24.071  30.733  1.00  0.00     0.078 C 
HETATM    9  C8  UNL     1      19.444  22.770  30.117  1.00  0.00     0.178 C 
HETATM   10  C11 UNL     1      19.448  21.598  31.075  1.00  0.00     0.124 A 
HETATM   11  C12 UNL     1      20.428  20.476  30.840  1.00  0.00     0.052 C 
HETATM   12  O4  UNL     1      18.064  21.070  31.267  1.00  0.00    -0.352 OA
HETATM   13  C13 UNL     1      18.828  21.779  32.302  1.00  0.00     0.159 A 
HETATM   14  C17 UNL     1      18.367  23.187  32.501  1.00  0.00     0.178 C 
HETATM   15  O5  UNL     1      17.329  23.377  33.066  1.00  0.00    -0.293 OA
HETATM   16  C18 UNL     1      19.164  24.354  32.016  1.00  0.00     0.083 C 
HETATM   17  C20 UNL     1      20.065  24.744  33.159  1.00  0.00     0.170 C 
ENDROOT
BRANCH   9  18
HETATM   18  O2  UNL     1      20.215  22.463  28.974  1.00  0.00    -0.313 OA
BRANCH  18  19
HETATM   19  C9  UNL     1      19.697  22.382  27.684  1.00  0.00     0.255 C 
HETATM   20  C10 UNL     1      19.111  21.110  27.243  1.00  0.00     0.126 C 
HETATM   21  O3  UNL     1      19.768  23.417  26.980  1.00  0.00    -0.266 OA
ENDBRANCH  18  19
ENDBRANCH   9  18
BRANCH  16  22
HETATM   22  C19 UNL     1      18.136  25.463  31.738  1.00  0.00     0.184 C 
BRANCH  22  23
HETATM   23  O6  UNL     1      18.343  25.884  30.434  1.00  0.00    -0.400 OA
ATOM     24  H6  UNL     1      18.644  25.127  29.946  1.00  0.00     0.209 HD
ENDBRANCH  22  23
ENDBRANCH  16  22
BRANCH  13  25
HETATM   25  C14 UNL     1      19.029  20.917  33.481  1.00  0.00     0.023 C 
HETATM   26  C15 UNL     1      17.716  20.204  33.820  1.00  0.00     0.013 C 
HETATM   27  C16 UNL     1      19.549  21.612  34.720  1.00  0.00     0.013 C 
ENDBRANCH  13  25
BRANCH  17  28
HETATM   28  O7  UNL     1      19.651  25.936  33.769  1.00  0.00    -0.391 OA
ATOM     29  H7  UNL     1      19.659  25.840  34.714  1.00  0.00     0.210 HD
ENDBRANCH  17  28
TORSDOF 6
ENDMDL
