MODEL 1
REMARK VINA RESULT: -9.122823128      0.000      0.000
REMARK  6 active torsions:
REMARK  status: ('A' for Active; 'I' for Inactive)
REMARK    1  A    between atoms: C9_12  and  C10_13 
REMARK    2  A    between atoms: C10_13  and  C11_14 
REMARK    3  A    between atoms: C14_17  and  C16_19 
REMARK    4  A    between atoms: C16_19  and  N1_20 
REMARK    5  A    between atoms: C18_27  and  C19_28 
REMARK    6  A    between atoms: C19_28  and  O6_29 
ROOT
HETATM    1  C1  UNL     1      27.609  28.830  22.989  1.00  0.00     0.040 C 
HETATM    2  C2  UNL     1      27.778  29.865  24.080  1.00  0.00     0.133 C 
HETATM    3  O1  UNL     1      28.926  29.648  24.852  1.00  0.00    -0.315 OA
HETATM    4  C3  UNL     1      28.698  30.146  26.130  1.00  0.00     0.268 C 
HETATM    5  O2  UNL     1      29.574  30.267  27.052  1.00  0.00    -0.264 OA
HETATM    6  C4  UNL     1      27.253  30.519  26.257  1.00  0.00     0.057 C 
HETATM    7  C5  UNL     1      27.053  31.981  26.109  1.00  0.00     0.027 C 
HETATM    8  C6  UNL     1      26.667  29.711  25.127  1.00  0.00     0.035 C 
HETATM    9  C7  UNL     1      26.703  28.314  25.675  1.00  0.00     0.041 C 
HETATM   10  C8  UNL     1      26.824  28.402  27.156  1.00  0.00     0.128 C 
HETATM   11  O3  UNL     1      25.763  27.830  27.836  1.00  0.00    -0.380 OA
HETATM   12  C9  UNL     1      24.692  28.708  27.618  1.00  0.00     0.129 C 
HETATM   13  C18 UNL     1      25.227  30.062  27.686  1.00  0.00     0.046 C 
HETATM   14  C20 UNL     1      26.717  29.867  27.471  1.00  0.00     0.041 C 
ENDROOT
BRANCH  12  15
HETATM   15  C10 UNL     1      23.527  28.275  28.380  1.00  0.00     0.047 C 
BRANCH  15  16
HETATM   16  C11 UNL     1      23.236  26.835  28.555  1.00  0.00     0.088 C 
HETATM   17  C12 UNL     1      22.620  26.183  27.332  1.00  0.00     0.018 C 
HETATM   18  C13 UNL     1      22.153  24.790  27.777  1.00  0.00     0.041 C 
HETATM   19  C14 UNL     1      20.896  24.968  28.588  1.00  0.00     0.090 C 
HETATM   20  C15 UNL     1      20.792  23.931  29.696  1.00  0.00     0.048 C 
HETATM   21  O4  UNL     1      20.950  26.229  29.222  1.00  0.00    -0.308 OA
HETATM   22  C17 UNL     1      22.149  26.767  29.594  1.00  0.00     0.264 C 
HETATM   23  O5  UNL     1      22.413  27.208  30.729  1.00  0.00    -0.265 OA
BRANCH  19  24
HETATM   24  C16 UNL     1      19.658  24.823  27.729  1.00  0.00     0.267 C 
BRANCH  24  25
HETATM   25  N1  UNL     1      19.687  23.594  26.968  1.00  0.00    -0.076 N 
ATOM     26  H13 UNL     1      20.586  23.120  27.058  1.00  0.00     0.274 HD
ATOM     27  H12 UNL     1      19.091  22.880  27.387  1.00  0.00     0.274 HD
ATOM     28  H11 UNL     1      19.446  23.758  25.991  1.00  0.00     0.274 HD
ENDBRANCH  24  25
ENDBRANCH  19  24
ENDBRANCH  15  16
ENDBRANCH  12  15
BRANCH  13  29
HETATM   29  C19 UNL     1      24.948  30.870  28.918  1.00  0.00     0.171 C 
BRANCH  29  30
HETATM   30  O6  UNL     1      24.700  32.220  28.575  1.00  0.00    -0.400 OA
ATOM     31  H6  UNL     1      25.514  32.709  28.553  1.00  0.00     0.209 HD
ENDBRANCH  29  30
ENDBRANCH  13  29
TORSDOF 6
ENDMDL
MODEL 2
REMARK VINA RESULT: -8.798085637      3.109      8.273
REMARK  6 active torsions:
REMARK  status: ('A' for Active; 'I' for Inactive)
REMARK    1  A    between atoms: C9_12  and  C10_13 
REMARK    2  A    between atoms: C10_13  and  C11_14 
REMARK    3  A    between atoms: C14_17  and  C16_19 
REMARK    4  A    between atoms: C16_19  and  N1_20 
REMARK    5  A    between atoms: C18_27  and  C19_28 
REMARK    6  A    between atoms: C19_28  and  O6_29 
ROOT
HETATM    1  C1  UNL     1      20.145  21.205  29.365  1.00  0.00     0.040 C 
HETATM    2  C2  UNL     1      20.219  22.381  30.315  1.00  0.00     0.133 C 
HETATM    3  O1  UNL     1      18.986  23.027  30.466  1.00  0.00    -0.315 OA
HETATM    4  C3  UNL     1      19.222  24.364  30.762  1.00  0.00     0.268 C 
HETATM    5  O2  UNL     1      18.341  25.217  31.121  1.00  0.00    -0.264 OA
HETATM    6  C4  UNL     1      20.681  24.651  30.588  1.00  0.00     0.057 C 
HETATM    7  C5  UNL     1      21.391  24.675  31.891  1.00  0.00     0.027 C 
HETATM    8  C6  UNL     1      21.079  23.495  29.706  1.00  0.00     0.035 C 
HETATM    9  C7  UNL     1      20.500  23.887  28.378  1.00  0.00     0.041 C 
HETATM   10  C8  UNL     1      20.246  25.355  28.400  1.00  0.00     0.128 C 
HETATM   11  O3  UNL     1      20.958  26.057  27.444  1.00  0.00    -0.380 OA
HETATM   12  C9  UNL     1      22.284  26.024  27.898  1.00  0.00     0.129 C 
HETATM   13  C18 UNL     1      22.246  26.189  29.346  1.00  0.00     0.046 C 
HETATM   14  C20 UNL     1      20.815  25.830  29.706  1.00  0.00     0.041 C 
ENDROOT
BRANCH  12  15
HETATM   15  C10 UNL     1      23.131  26.830  27.028  1.00  0.00     0.047 C 
BRANCH  15  16
HETATM   16  C11 UNL     1      24.595  26.615  26.993  1.00  0.00     0.088 C 
HETATM   17  C12 UNL     1      25.401  27.899  27.042  1.00  0.00     0.018 C 
HETATM   18  C13 UNL     1      26.853  27.505  26.735  1.00  0.00     0.041 C 
HETATM   19  C14 UNL     1      26.952  27.239  25.256  1.00  0.00     0.090 C 
HETATM   20  C15 UNL     1      27.957  26.140  24.949  1.00  0.00     0.048 C 
HETATM   21  O4  UNL     1      25.697  26.775  24.803  1.00  0.00    -0.308 OA
HETATM   22  C17 UNL     1      24.886  26.050  25.630  1.00  0.00     0.264 C 
HETATM   23  O5  UNL     1      24.368  24.954  25.342  1.00  0.00    -0.265 OA
BRANCH  19  24
HETATM   24  C16 UNL     1      27.400  28.472  24.501  1.00  0.00     0.267 C 
BRANCH  24  25
HETATM   25  N1  UNL     1      27.084  28.372  23.094  1.00  0.00    -0.076 N 
ATOM     26  H13 UNL     1      27.889  28.062  22.551  1.00  0.00     0.274 HD
ATOM     27  H12 UNL     1      26.458  27.588  22.906  1.00  0.00     0.274 HD
ATOM     28  H11 UNL     1      26.705  29.248  22.736  1.00  0.00     0.274 HD
ENDBRANCH  24  25
ENDBRANCH  19  24
ENDBRANCH  15  16
ENDBRANCH  12  15
BRANCH  13  29
HETATM   29  C19 UNL     1      22.643  27.517  29.915  1.00  0.00     0.171 C 
BRANCH  29  30
HETATM   30  O6  UNL     1      21.509  28.351  30.057  1.00  0.00    -0.400 OA
ATOM     31  H6  UNL     1      21.428  28.928  29.306  1.00  0.00     0.209 HD
ENDBRANCH  29  30
ENDBRANCH  13  29
TORSDOF 6
ENDMDL
MODEL 3
REMARK VINA RESULT: -8.713280410      2.998      7.996
REMARK  6 active torsions:
REMARK  status: ('A' for Active; 'I' for Inactive)
REMARK    1  A    between atoms: C9_12  and  C10_13 
REMARK    2  A    between atoms: C10_13  and  C11_14 
REMARK    3  A    between atoms: C14_17  and  C16_19 
REMARK    4  A    between atoms: C16_19  and  N1_20 
REMARK    5  A    between atoms: C18_27  and  C19_28 
REMARK    6  A    between atoms: C19_28  and  O6_29 
ROOT
HETATM    1  C1  UNL     1      22.058  22.067  31.236  1.00  0.00     0.040 C 
HETATM    2  C2  UNL     1      21.514  23.459  31.474  1.00  0.00     0.133 C 
HETATM    3  O1  UNL     1      20.147  23.557  31.183  1.00  0.00    -0.315 OA
HETATM    4  C3  UNL     1      19.874  24.862  30.788  1.00  0.00     0.268 C 
HETATM    5  O2  UNL     1      18.711  25.358  30.602  1.00  0.00    -0.264 OA
HETATM    6  C4  UNL     1      21.165  25.598  30.610  1.00  0.00     0.057 C 
HETATM    7  C5  UNL     1      21.464  26.463  31.778  1.00  0.00     0.027 C 
HETATM    8  C6  UNL     1      22.117  24.439  30.458  1.00  0.00     0.035 C 
HETATM    9  C7  UNL     1      21.814  23.951  29.071  1.00  0.00     0.041 C 
HETATM   10  C8  UNL     1      21.124  25.048  28.337  1.00  0.00     0.128 C 
HETATM   11  O3  UNL     1      21.809  25.484  27.217  1.00  0.00    -0.380 OA
HETATM   12  C9  UNL     1      22.913  26.181  27.730  1.00  0.00     0.129 C 
HETATM   13  C18 UNL     1      22.447  26.926  28.893  1.00  0.00     0.046 C 
HETATM   14  C20 UNL     1      21.155  26.224  29.271  1.00  0.00     0.041 C 
ENDROOT
BRANCH  12  15
HETATM   15  C10 UNL     1      23.667  26.793  26.643  1.00  0.00     0.047 C 
BRANCH  15  16
HETATM   16  C11 UNL     1      25.146  26.765  26.645  1.00  0.00     0.088 C 
HETATM   17  C12 UNL     1      25.782  28.142  26.616  1.00  0.00     0.018 C 
HETATM   18  C13 UNL     1      27.279  27.917  26.358  1.00  0.00     0.041 C 
HETATM   19  C14 UNL     1      27.445  27.568  24.903  1.00  0.00     0.090 C 
HETATM   20  C15 UNL     1      28.588  26.588  24.688  1.00  0.00     0.048 C 
HETATM   21  O4  UNL     1      26.270  26.918  24.465  1.00  0.00    -0.308 OA
HETATM   22  C17 UNL     1      25.539  26.152  25.328  1.00  0.00     0.264 C 
HETATM   23  O5  UNL     1      25.170  24.982  25.109  1.00  0.00    -0.265 OA
BRANCH  19  24
HETATM   24  C16 UNL     1      27.752  28.795  24.071  1.00  0.00     0.267 C 
BRANCH  24  25
HETATM   25  N1  UNL     1      26.820  28.933  22.974  1.00  0.00    -0.076 N 
ATOM     26  H13 UNL     1      26.206  29.736  23.104  1.00  0.00     0.274 HD
ATOM     27  H12 UNL     1      27.290  29.231  22.119  1.00  0.00     0.274 HD
ATOM     28  H11 UNL     1      26.289  28.074  22.830  1.00  0.00     0.274 HD
ENDBRANCH  24  25
ENDBRANCH  19  24
ENDBRANCH  15  16
ENDBRANCH  12  15
BRANCH  13  29
HETATM   29  C19 UNL     1      22.251  28.405  28.751  1.00  0.00     0.171 C 
BRANCH  29  30
HETATM   30  O6  UNL     1      23.365  29.102  29.274  1.00  0.00    -0.400 OA
ATOM     31  H6  UNL     1      23.688  28.670  30.056  1.00  0.00     0.209 HD
ENDBRANCH  29  30
ENDBRANCH  13  29
TORSDOF 6
ENDMDL
MODEL 4
REMARK VINA RESULT: -8.236072316      3.834      5.765
REMARK  6 active torsions:
REMARK  status: ('A' for Active; 'I' for Inactive)
REMARK    1  A    between atoms: C9_12  and  C10_13 
REMARK    2  A    between atoms: C10_13  and  C11_14 
REMARK    3  A    between atoms: C14_17  and  C16_19 
REMARK    4  A    between atoms: C16_19  and  N1_20 
REMARK    5  A    between atoms: C18_27  and  C19_28 
REMARK    6  A    between atoms: C19_28  and  O6_29 
ROOT
HETATM    1  C1  UNL     1      25.107  30.225  28.417  1.00  0.00     0.040 C 
HETATM    2  C2  UNL     1      26.487  30.543  27.885  1.00  0.00     0.133 C 
HETATM    3  O1  UNL     1      26.491  31.660  27.039  1.00  0.00    -0.315 OA
HETATM    4  C3  UNL     1      27.527  31.515  26.123  1.00  0.00     0.268 C 
HETATM    5  O2  UNL     1      27.931  32.408  25.305  1.00  0.00    -0.264 OA
HETATM    6  C4  UNL     1      28.096  30.135  26.245  1.00  0.00     0.057 C 
HETATM    7  C5  UNL     1      29.354  30.132  27.030  1.00  0.00     0.027 C 
HETATM    8  C6  UNL     1      26.953  29.433  26.933  1.00  0.00     0.035 C 
HETATM    9  C7  UNL     1      25.949  29.286  25.827  1.00  0.00     0.041 C 
HETATM   10  C8  UNL     1      26.667  29.434  24.531  1.00  0.00     0.128 C 
HETATM   11  O3  UNL     1      26.592  28.312  23.723  1.00  0.00    -0.380 OA
HETATM   12  C9  UNL     1      27.410  27.367  24.358  1.00  0.00     0.129 C 
HETATM   13  C18 UNL     1      28.576  28.080  24.864  1.00  0.00     0.046 C 
HETATM   14  C20 UNL     1      28.120  29.528  24.897  1.00  0.00     0.041 C 
ENDROOT
BRANCH  12  15
HETATM   15  C10 UNL     1      27.508  26.162  23.543  1.00  0.00     0.047 C 
BRANCH  15  16
HETATM   16  C11 UNL     1      26.341  25.268  23.379  1.00  0.00     0.088 C 
HETATM   17  C12 UNL     1      25.791  24.736  24.688  1.00  0.00     0.018 C 
HETATM   18  C13 UNL     1      24.778  23.644  24.317  1.00  0.00     0.041 C 
HETATM   19  C14 UNL     1      25.554  22.426  23.893  1.00  0.00     0.090 C 
HETATM   20  C15 UNL     1      24.830  21.649  22.804  1.00  0.00     0.048 C 
HETATM   21  O4  UNL     1      26.781  22.851  23.336  1.00  0.00    -0.308 OA
HETATM   22  C17 UNL     1      26.866  24.045  22.678  1.00  0.00     0.264 C 
HETATM   23  O5  UNL     1      27.346  24.200  21.538  1.00  0.00    -0.265 OA
BRANCH  19  24
HETATM   24  C16 UNL     1      25.764  21.473  25.051  1.00  0.00     0.267 C 
BRANCH  24  25
HETATM   25  N1  UNL     1      24.703  21.589  26.026  1.00  0.00    -0.076 N 
ATOM     26  H13 UNL     1      24.608  22.547  26.363  1.00  0.00     0.274 HD
ATOM     27  H12 UNL     1      23.784  21.484  25.594  1.00  0.00     0.274 HD
ATOM     28  H11 UNL     1      24.832  20.932  26.795  1.00  0.00     0.274 HD
ENDBRANCH  24  25
ENDBRANCH  19  24
ENDBRANCH  15  16
ENDBRANCH  12  15
BRANCH  13  29
HETATM   29  C19 UNL     1      29.873  27.926  24.129  1.00  0.00     0.171 C 
BRANCH  29  30
HETATM   30  O6  UNL     1      30.583  29.149  24.120  1.00  0.00    -0.400 OA
ATOM     31  H6  UNL     1      30.429  29.626  24.927  1.00  0.00     0.209 HD
ENDBRANCH  29  30
ENDBRANCH  13  29
TORSDOF 6
ENDMDL
MODEL 5
REMARK VINA RESULT: -8.143349638      1.933      2.887
REMARK  6 active torsions:
REMARK  status: ('A' for Active; 'I' for Inactive)
REMARK    1  A    between atoms: C9_12  and  C10_13 
REMARK    2  A    between atoms: C10_13  and  C11_14 
REMARK    3  A    between atoms: C14_17  and  C16_19 
REMARK    4  A    between atoms: C16_19  and  N1_20 
REMARK    5  A    between atoms: C18_27  and  C19_28 
REMARK    6  A    between atoms: C19_28  and  O6_29 
ROOT
HETATM    1  C1  UNL     1      27.000  24.952  22.786  1.00  0.00     0.040 C 
HETATM    2  C2  UNL     1      27.451  26.395  22.848  1.00  0.00     0.133 C 
HETATM    3  O1  UNL     1      28.795  26.521  23.221  1.00  0.00    -0.315 OA
HETATM    4  C3  UNL     1      28.959  27.738  23.873  1.00  0.00     0.268 C 
HETATM    5  O2  UNL     1      30.075  28.261  24.209  1.00  0.00    -0.264 OA
HETATM    6  C4  UNL     1      27.613  28.342  24.123  1.00  0.00     0.057 C 
HETATM    7  C5  UNL     1      27.295  29.398  23.130  1.00  0.00     0.027 C 
HETATM    8  C6  UNL     1      26.742  27.118  24.001  1.00  0.00     0.035 C 
HETATM    9  C7  UNL     1      27.026  26.389  25.282  1.00  0.00     0.041 C 
HETATM   10  C8  UNL     1      27.608  27.362  26.247  1.00  0.00     0.128 C 
HETATM   11  O3  UNL     1      26.852  27.528  27.394  1.00  0.00    -0.380 OA
HETATM   12  C9  UNL     1      25.721  28.240  26.969  1.00  0.00     0.129 C 
HETATM   13  C18 UNL     1      26.175  29.225  25.996  1.00  0.00     0.046 C 
HETATM   14  C20 UNL     1      27.527  28.694  25.557  1.00  0.00     0.041 C 
ENDROOT
BRANCH  12  15
HETATM   15  C10 UNL     1      24.885  28.579  28.114  1.00  0.00     0.047 C 
BRANCH  15  16
HETATM   16  C11 UNL     1      23.468  28.157  28.163  1.00  0.00     0.088 C 
HETATM   17  C12 UNL     1      22.970  27.851  29.562  1.00  0.00     0.018 C 
HETATM   18  C13 UNL     1      21.595  27.189  29.394  1.00  0.00     0.041 C 
HETATM   19  C14 UNL     1      21.822  25.776  28.928  1.00  0.00     0.090 C 
HETATM   20  C15 UNL     1      20.717  25.309  27.993  1.00  0.00     0.048 C 
HETATM   21  O4  UNL     1      23.021  25.740  28.182  1.00  0.00    -0.308 OA
HETATM   22  C17 UNL     1      23.419  26.829  27.457  1.00  0.00     0.264 C 
HETATM   23  O5  UNL     1      23.746  26.806  26.255  1.00  0.00    -0.265 OA
BRANCH  19  24
HETATM   24  C16 UNL     1      21.856  24.808  30.091  1.00  0.00     0.267 C 
BRANCH  24  25
HETATM   25  N1  UNL     1      22.535  23.582  29.736  1.00  0.00    -0.076 N 
ATOM     26  H13 UNL     1      23.266  23.747  29.045  1.00  0.00     0.274 HD
ATOM     27  H12 UNL     1      23.116  23.241  30.502  1.00  0.00     0.274 HD
ATOM     28  H11 UNL     1      21.875  22.871  29.422  1.00  0.00     0.274 HD
ENDBRANCH  24  25
ENDBRANCH  19  24
ENDBRANCH  15  16
ENDBRANCH  12  15
BRANCH  13  29
HETATM   29  C19 UNL     1      26.258  30.658  26.430  1.00  0.00     0.171 C 
BRANCH  29  30
HETATM   30  O6  UNL     1      27.555  30.951  26.915  1.00  0.00    -0.400 OA
ATOM     31  H6  UNL     1      28.115  30.187  26.842  1.00  0.00     0.209 HD
ENDBRANCH  29  30
ENDBRANCH  13  29
TORSDOF 6
ENDMDL
