MODEL 1
REMARK VINA RESULT: -7.287684172      0.000      0.000
REMARK  7 active torsions:
REMARK  status: ('A' for Active; 'I' for Inactive)
REMARK    1  A    between atoms: C2_2  and  C3_3 
REMARK    2  A    between atoms: C3_3  and  O2_5 
REMARK    3  A    between atoms: O2_5  and  C4_6 
REMARK    4  A    between atoms: C5_7  and  O3_8 
REMARK    5  A    between atoms: O3_8  and  C6_9 
REMARK    6  A    between atoms: C12_16  and  O5_17 
REMARK    7  A    between atoms: C18_26  and  O8_28 
ROOT
HETATM    1  C4  UNL     1      25.873  28.932  26.583  1.00  0.00     0.170 C 
HETATM    2  C5  UNL     1      25.984  27.521  26.926  1.00  0.00     0.166 C 
HETATM    3  C8  UNL     1      25.805  26.483  25.838  1.00  0.00     0.069 C 
HETATM    4  C9  UNL     1      27.090  26.629  25.003  1.00  0.00    -0.071 C 
HETATM    5  C10 UNL     1      27.961  25.480  24.969  1.00  0.00     0.044 C 
HETATM    6  C11 UNL     1      27.382  27.680  24.305  1.00  0.00     0.011 C 
HETATM    7  C12 UNL     1      28.661  27.437  23.695  1.00  0.00     0.300 C 
HETATM    8  O6  UNL     1      29.259  28.803  23.636  1.00  0.00    -0.285 OA
HETATM    9  C13 UNL     1      29.063  29.713  24.663  1.00  0.00     0.270 C 
HETATM   10  O7  UNL     1      29.946  30.630  24.614  1.00  0.00    -0.264 OA
HETATM   11  C14 UNL     1      28.122  29.893  25.775  1.00  0.00     0.050 C 
HETATM   12  C15 UNL     1      28.785  29.256  26.981  1.00  0.00     0.026 C 
HETATM   13  C16 UNL     1      28.242  31.385  26.116  1.00  0.00     0.026 C 
HETATM   14  C17 UNL     1      26.699  29.604  25.565  1.00  0.00     0.074 C 
HETATM   15  C18 UNL     1      26.503  28.909  24.183  1.00  0.00     0.090 C 
HETATM   16  C19 UNL     1      26.760  29.763  23.028  1.00  0.00     0.051 C 
ENDROOT
BRANCH   1  17
HETATM   17  O2  UNL     1      25.877  29.688  27.781  1.00  0.00    -0.313 OA
BRANCH  17  18
HETATM   18  C3  UNL     1      25.025  30.699  28.112  1.00  0.00     0.258 C 
HETATM   19  O1  UNL     1      23.799  30.402  28.244  1.00  0.00    -0.265 OA
BRANCH  18  20
HETATM   20  C2  UNL     1      25.411  32.105  28.326  1.00  0.00     0.106 C 
HETATM   21  C1  UNL     1      25.191  32.953  27.113  1.00  0.00     0.015 C 
ENDBRANCH  18  20
ENDBRANCH  17  18
ENDBRANCH   1  17
BRANCH   2  22
HETATM   22  O3  UNL     1      25.051  27.286  27.995  1.00  0.00    -0.313 OA
BRANCH  22  23
HETATM   23  C6  UNL     1      23.714  27.050  27.774  1.00  0.00     0.255 C 
HETATM   24  C7  UNL     1      22.719  27.215  28.844  1.00  0.00     0.126 C 
HETATM   25  O4  UNL     1      23.361  26.690  26.635  1.00  0.00    -0.266 OA
ENDBRANCH  22  23
ENDBRANCH   2  22
BRANCH  15  26
HETATM   26  O8  UNL     1      25.156  28.581  24.174  1.00  0.00    -0.385 OA
ATOM     27  H8  UNL     1      24.604  29.353  24.205  1.00  0.00     0.211 HD
ENDBRANCH  15  26
BRANCH   7  28
HETATM   28  O5  UNL     1      29.649  26.802  24.400  1.00  0.00    -0.367 OA
ATOM     29  H5  UNL     1      29.847  25.890  24.224  1.00  0.00     0.213 HD
ENDBRANCH   7  28
TORSDOF 7
ENDMDL
MODEL 2
REMARK VINA RESULT: -6.888937384      1.668      3.416
REMARK  7 active torsions:
REMARK  status: ('A' for Active; 'I' for Inactive)
REMARK    1  A    between atoms: C2_2  and  C3_3 
REMARK    2  A    between atoms: C3_3  and  O2_5 
REMARK    3  A    between atoms: O2_5  and  C4_6 
REMARK    4  A    between atoms: C5_7  and  O3_8 
REMARK    5  A    between atoms: O3_8  and  C6_9 
REMARK    6  A    between atoms: C12_16  and  O5_17 
REMARK    7  A    between atoms: C18_26  and  O8_28 
ROOT
HETATM    1  C4  UNL     1      26.134  27.404  25.664  1.00  0.00     0.170 C 
HETATM    2  C5  UNL     1      27.215  26.464  25.401  1.00  0.00     0.166 C 
HETATM    3  C8  UNL     1      27.968  26.556  24.089  1.00  0.00     0.069 C 
HETATM    4  C9  UNL     1      28.800  27.840  24.255  1.00  0.00    -0.071 C 
HETATM    5  C10 UNL     1      30.233  27.675  24.247  1.00  0.00     0.044 C 
HETATM    6  C11 UNL     1      28.289  29.026  24.337  1.00  0.00     0.011 C 
HETATM    7  C12 UNL     1      29.382  29.945  24.505  1.00  0.00     0.300 C 
HETATM    8  O6  UNL     1      28.780  31.018  25.349  1.00  0.00    -0.285 OA
HETATM    9  C13 UNL     1      27.878  30.713  26.356  1.00  0.00     0.270 C 
HETATM   10  O7  UNL     1      27.796  31.679  27.182  1.00  0.00    -0.264 OA
HETATM   11  C14 UNL     1      27.007  29.587  26.715  1.00  0.00     0.050 C 
HETATM   12  C15 UNL     1      27.802  28.751  27.699  1.00  0.00     0.026 C 
HETATM   13  C16 UNL     1      25.954  30.219  27.635  1.00  0.00     0.026 C 
HETATM   14  C17 UNL     1      26.290  28.868  25.655  1.00  0.00     0.074 C 
HETATM   15  C18 UNL     1      26.807  29.336  24.260  1.00  0.00     0.090 C 
HETATM   16  C19 UNL     1      26.462  30.711  23.911  1.00  0.00     0.051 C 
ENDROOT
BRANCH   1  17
HETATM   17  O2  UNL     1      25.462  26.998  26.842  1.00  0.00    -0.313 OA
BRANCH  17  18
HETATM   18  C3  UNL     1      24.117  27.012  27.063  1.00  0.00     0.258 C 
HETATM   19  O1  UNL     1      23.385  26.431  26.205  1.00  0.00    -0.265 OA
BRANCH  18  20
HETATM   20  C2  UNL     1      23.446  27.646  28.211  1.00  0.00     0.106 C 
HETATM   21  C1  UNL     1      22.599  26.685  28.984  1.00  0.00     0.015 C 
ENDBRANCH  18  20
ENDBRANCH  17  18
ENDBRANCH   1  17
BRANCH   2  22
HETATM   22  O3  UNL     1      26.660  25.147  25.564  1.00  0.00    -0.313 OA
BRANCH  22  23
HETATM   23  C6  UNL     1      26.259  24.374  24.499  1.00  0.00     0.255 C 
HETATM   24  C7  UNL     1      24.908  24.493  23.932  1.00  0.00     0.126 C 
HETATM   25  O4  UNL     1      27.074  23.562  24.022  1.00  0.00    -0.266 OA
ENDBRANCH  22  23
ENDBRANCH   2  22
BRANCH  15  26
HETATM   26  O8  UNL     1      26.149  28.498  23.374  1.00  0.00    -0.385 OA
ATOM     27  H8  UNL     1      26.681  28.300  22.613  1.00  0.00     0.211 HD
ENDBRANCH  15  26
BRANCH   7  28
HETATM   28  O5  UNL     1      30.441  29.612  25.306  1.00  0.00    -0.367 OA
ATOM     29  H5  UNL     1      31.073  30.275  25.561  1.00  0.00     0.213 HD
ENDBRANCH   7  28
TORSDOF 7
ENDMDL
MODEL 3
REMARK VINA RESULT: -6.508587964      1.695      4.581
REMARK  7 active torsions:
REMARK  status: ('A' for Active; 'I' for Inactive)
REMARK    1  A    between atoms: C2_2  and  C3_3 
REMARK    2  A    between atoms: C3_3  and  O2_5 
REMARK    3  A    between atoms: O2_5  and  C4_6 
REMARK    4  A    between atoms: C5_7  and  O3_8 
REMARK    5  A    between atoms: O3_8  and  C6_9 
REMARK    6  A    between atoms: C12_16  and  O5_17 
REMARK    7  A    between atoms: C18_26  and  O8_28 
ROOT
HETATM    1  C4  UNL     1      24.998  27.929  27.379  1.00  0.00     0.170 C 
HETATM    2  C5  UNL     1      25.173  29.317  26.977  1.00  0.00     0.166 C 
HETATM    3  C8  UNL     1      26.576  29.864  26.810  1.00  0.00     0.069 C 
HETATM    4  C9  UNL     1      27.065  29.177  25.522  1.00  0.00    -0.071 C 
HETATM    5  C10 UNL     1      27.359  30.047  24.410  1.00  0.00     0.044 C 
HETATM    6  C11 UNL     1      27.275  27.904  25.417  1.00  0.00     0.011 C 
HETATM    7  C12 UNL     1      27.700  27.658  24.066  1.00  0.00     0.300 C 
HETATM    8  O6  UNL     1      27.157  26.294  23.797  1.00  0.00    -0.285 OA
HETATM    9  C13 UNL     1      25.922  25.907  24.291  1.00  0.00     0.270 C 
HETATM   10  O7  UNL     1      25.484  24.902  23.644  1.00  0.00    -0.264 OA
HETATM   11  C14 UNL     1      25.001  26.345  25.347  1.00  0.00     0.050 C 
HETATM   12  C15 UNL     1      24.011  27.272  24.670  1.00  0.00     0.026 C 
HETATM   13  C16 UNL     1      24.130  25.108  25.607  1.00  0.00     0.026 C 
HETATM   14  C17 UNL     1      25.545  26.778  26.640  1.00  0.00     0.074 C 
HETATM   15  C18 UNL     1      27.097  26.903  26.542  1.00  0.00     0.090 C 
HETATM   16  C19 UNL     1      27.802  25.636  26.382  1.00  0.00     0.051 C 
ENDROOT
BRANCH   1  17
HETATM   17  O2  UNL     1      23.627  27.712  27.661  1.00  0.00    -0.313 OA
BRANCH  17  18
HETATM   18  C3  UNL     1      23.105  27.114  28.769  1.00  0.00     0.258 C 
HETATM   19  O1  UNL     1      23.061  25.847  28.775  1.00  0.00    -0.265 OA
BRANCH  18  20
HETATM   20  C2  UNL     1      22.589  27.818  29.956  1.00  0.00     0.106 C 
HETATM   21  C1  UNL     1      21.827  26.915  30.874  1.00  0.00     0.015 C 
ENDBRANCH  18  20
ENDBRANCH  17  18
ENDBRANCH   1  17
BRANCH   2  22
HETATM   22  O3  UNL     1      24.441  30.113  27.926  1.00  0.00    -0.313 OA
BRANCH  22  23
HETATM   23  C6  UNL     1      24.872  31.348  28.349  1.00  0.00     0.255 C 
HETATM   24  C7  UNL     1      24.977  32.483  27.420  1.00  0.00     0.126 C 
HETATM   25  O4  UNL     1      25.175  31.485  29.549  1.00  0.00    -0.266 OA
ENDBRANCH  22  23
ENDBRANCH   2  22
BRANCH  15  26
HETATM   26  O8  UNL     1      27.456  27.436  27.769  1.00  0.00    -0.385 OA
ATOM     27  H8  UNL     1      28.106  28.122  27.680  1.00  0.00     0.211 HD
ENDBRANCH  15  26
BRANCH   7  28
HETATM   28  O5  UNL     1      27.111  28.331  23.028  1.00  0.00    -0.367 OA
ATOM     29  H5  UNL     1      26.246  28.708  23.136  1.00  0.00     0.213 HD
ENDBRANCH   7  28
TORSDOF 7
ENDMDL
MODEL 4
REMARK VINA RESULT: -6.353308863      5.347      9.731
REMARK  7 active torsions:
REMARK  status: ('A' for Active; 'I' for Inactive)
REMARK    1  A    between atoms: C2_2  and  C3_3 
REMARK    2  A    between atoms: C3_3  and  O2_5 
REMARK    3  A    between atoms: O2_5  and  C4_6 
REMARK    4  A    between atoms: C5_7  and  O3_8 
REMARK    5  A    between atoms: O3_8  and  C6_9 
REMARK    6  A    between atoms: C12_16  and  O5_17 
REMARK    7  A    between atoms: C18_26  and  O8_28 
ROOT
HETATM    1  C4  UNL     1      21.136  23.917  28.679  1.00  0.00     0.170 C 
HETATM    2  C5  UNL     1      19.971  23.174  28.218  1.00  0.00     0.166 C 
HETATM    3  C8  UNL     1      19.830  21.716  28.601  1.00  0.00     0.069 C 
HETATM    4  C9  UNL     1      19.494  21.781  30.102  1.00  0.00    -0.071 C 
HETATM    5  C10 UNL     1      18.200  21.272  30.487  1.00  0.00     0.044 C 
HETATM    6  C11 UNL     1      20.316  22.202  31.008  1.00  0.00     0.011 C 
HETATM    7  C12 UNL     1      19.628  22.129  32.268  1.00  0.00     0.300 C 
HETATM    8  O6  UNL     1      20.213  23.274  33.026  1.00  0.00    -0.285 OA
HETATM    9  C13 UNL     1      20.521  24.467  32.393  1.00  0.00     0.270 C 
HETATM   10  O7  UNL     1      20.625  25.405  33.248  1.00  0.00    -0.264 OA
HETATM   11  C14 UNL     1      20.753  24.926  31.018  1.00  0.00     0.050 C 
HETATM   12  C15 UNL     1      19.419  25.455  30.530  1.00  0.00     0.026 C 
HETATM   13  C16 UNL     1      21.548  26.227  31.198  1.00  0.00     0.026 C 
HETATM   14  C17 UNL     1      21.511  24.073  30.095  1.00  0.00     0.074 C 
HETATM   15  C18 UNL     1      21.734  22.670  30.739  1.00  0.00     0.090 C 
HETATM   16  C19 UNL     1      22.634  22.662  31.888  1.00  0.00     0.051 C 
ENDROOT
BRANCH   1  17
HETATM   17  O2  UNL     1      21.148  25.179  28.037  1.00  0.00    -0.313 OA
BRANCH  17  18
HETATM   18  C3  UNL     1      22.232  25.824  27.523  1.00  0.00     0.258 C 
HETATM   19  O1  UNL     1      22.890  25.221  26.621  1.00  0.00    -0.265 OA
BRANCH  18  20
HETATM   20  C2  UNL     1      22.702  27.161  27.927  1.00  0.00     0.106 C 
HETATM   21  C1  UNL     1      24.155  27.372  27.635  1.00  0.00     0.015 C 
ENDBRANCH  18  20
ENDBRANCH  17  18
ENDBRANCH   1  17
BRANCH   2  22
HETATM   22  O3  UNL     1      19.936  23.317  26.787  1.00  0.00    -0.313 OA
BRANCH  22  23
HETATM   23  C6  UNL     1      20.312  22.309  25.931  1.00  0.00     0.255 C 
HETATM   24  C7  UNL     1      19.324  21.583  25.120  1.00  0.00     0.126 C 
HETATM   25  O4  UNL     1      21.522  22.021  25.857  1.00  0.00    -0.266 OA
ENDBRANCH  22  23
ENDBRANCH   2  22
BRANCH  15  26
HETATM   26  O8  UNL     1      22.334  21.941  29.726  1.00  0.00    -0.385 OA
ATOM     27  H8  UNL     1      22.671  21.110  30.039  1.00  0.00     0.211 HD
ENDBRANCH  15  26
BRANCH   7  28
HETATM   28  O5  UNL     1      18.305  22.474  32.348  1.00  0.00    -0.367 OA
ATOM     29  H5  UNL     1      17.716  21.975  32.901  1.00  0.00     0.213 HD
ENDBRANCH   7  28
TORSDOF 7
ENDMDL
MODEL 5
REMARK VINA RESULT: -6.347715389      1.609      4.560
REMARK  7 active torsions:
REMARK  status: ('A' for Active; 'I' for Inactive)
REMARK    1  A    between atoms: C2_2  and  C3_3 
REMARK    2  A    between atoms: C3_3  and  O2_5 
REMARK    3  A    between atoms: O2_5  and  C4_6 
REMARK    4  A    between atoms: C5_7  and  O3_8 
REMARK    5  A    between atoms: O3_8  and  C6_9 
REMARK    6  A    between atoms: C12_16  and  O5_17 
REMARK    7  A    between atoms: C18_26  and  O8_28 
ROOT
HETATM    1  C4  UNL     1      26.411  27.772  26.616  1.00  0.00     0.170 C 
HETATM    2  C5  UNL     1      25.131  28.289  27.079  1.00  0.00     0.166 C 
HETATM    3  C8  UNL     1      25.104  29.239  28.259  1.00  0.00     0.069 C 
HETATM    4  C9  UNL     1      25.689  30.537  27.673  1.00  0.00    -0.071 C 
HETATM    5  C10 UNL     1      24.806  31.677  27.645  1.00  0.00     0.044 C 
HETATM    6  C11 UNL     1      26.914  30.661  27.276  1.00  0.00     0.011 C 
HETATM    7  C12 UNL     1      27.062  32.003  26.781  1.00  0.00     0.300 C 
HETATM    8  O6  UNL     1      28.073  31.841  25.696  1.00  0.00    -0.285 OA
HETATM    9  C13 UNL     1      28.070  30.722  24.879  1.00  0.00     0.270 C 
HETATM   10  O7  UNL     1      28.726  30.954  23.811  1.00  0.00    -0.264 OA
HETATM   11  C14 UNL     1      27.520  29.362  24.919  1.00  0.00     0.050 C 
HETATM   12  C15 UNL     1      26.198  29.432  24.180  1.00  0.00     0.026 C 
HETATM   13  C16 UNL     1      28.387  28.587  23.918  1.00  0.00     0.026 C 
HETATM   14  C17 UNL     1      27.537  28.618  26.184  1.00  0.00     0.074 C 
HETATM   15  C18 UNL     1      27.962  29.567  27.347  1.00  0.00     0.090 C 
HETATM   16  C19 UNL     1      29.351  30.012  27.295  1.00  0.00     0.051 C 
ENDROOT
BRANCH   1  17
HETATM   17  O2  UNL     1      26.168  26.765  25.652  1.00  0.00    -0.313 OA
BRANCH  17  18
HETATM   18  C3  UNL     1      27.006  25.750  25.300  1.00  0.00     0.258 C 
HETATM   19  O1  UNL     1      28.102  25.659  25.933  1.00  0.00    -0.265 OA
BRANCH  18  20
HETATM   20  C2  UNL     1      26.746  24.752  24.247  1.00  0.00     0.106 C 
HETATM   21  C1  UNL     1      26.930  25.309  22.870  1.00  0.00     0.015 C 
ENDBRANCH  18  20
ENDBRANCH  17  18
ENDBRANCH   1  17
BRANCH   2  22
HETATM   22  O3  UNL     1      24.301  27.144  27.345  1.00  0.00    -0.313 OA
BRANCH  22  23
HETATM   23  C6  UNL     1      23.042  27.251  27.888  1.00  0.00     0.255 C 
HETATM   24  C7  UNL     1      22.845  27.490  29.325  1.00  0.00     0.126 C 
HETATM   25  O4  UNL     1      22.062  27.138  27.127  1.00  0.00    -0.266 OA
ENDBRANCH  22  23
ENDBRANCH   2  22
BRANCH  15  26
HETATM   26  O8  UNL     1      27.811  28.781  28.477  1.00  0.00    -0.385 OA
ATOM     27  H8  UNL     1      26.959  28.362  28.506  1.00  0.00     0.211 HD
ENDBRANCH  15  26
BRANCH   7  28
HETATM   28  O5  UNL     1      26.056  32.580  26.052  1.00  0.00    -0.367 OA
ATOM     29  H5  UNL     1      26.160  33.461  25.712  1.00  0.00     0.213 HD
ENDBRANCH   7  28
TORSDOF 7
ENDMDL
