MODEL 1
REMARK VINA RESULT: -7.694622465      0.000      0.000
REMARK  16 active torsions:
REMARK  status: ('A' for Active; 'I' for Inactive)
REMARK    1  A    between atoms: O1_2  and  C2_3 
REMARK    2  A    between atoms: C3_4  and  O2_5 
REMARK    3  A    between atoms: O2_5  and  C4_6 
REMARK    4  A    between atoms: C6_9  and  O4_10 
REMARK    5  A    between atoms: O4_10  and  C7_11 
REMARK    6  A    between atoms: C7_11  and  C8_12 
REMARK    7  A    between atoms: C9_14  and  O6_15 
REMARK    8  A    between atoms: O6_15  and  C10_16 
REMARK    9  A    between atoms: C15_23  and  O9_24 
REMARK   10  A    between atoms: C16_26  and  O10_27 
REMARK   11  A    between atoms: C17_29  and  O11_30 
REMARK   12  A    between atoms: C18_32  and  O12_33 
REMARK   13  A    between atoms: C19_35  and  O13_36 
REMARK   14  A    between atoms: C20_38  and  O14_39 
REMARK   15  A    between atoms: C23_44  and  O16_45 
REMARK   16  A    between atoms: C24_47  and  O17_48 
ROOT
HETATM    1  O4  UNL     1      39.300   5.153  11.762  1.00  0.00    -0.378 OA
ENDROOT
BRANCH   1   2
HETATM    2  C6  UNL     1      39.086   5.038  13.087  1.00  0.00     0.176 C 
HETATM    3  C5  UNL     1      39.898   3.955  13.759  1.00  0.00     0.205 C 
HETATM    4  O3  UNL     1      39.026   3.049  14.344  1.00  0.00    -0.356 OA
HETATM    5  C4  UNL     1      38.172   2.444  13.428  1.00  0.00     0.294 C 
HETATM    6  C20 UNL     1      37.144   3.472  12.936  1.00  0.00     0.204 C 
HETATM    7  C19 UNL     1      37.627   4.810  13.455  1.00  0.00     0.182 C 
BRANCH   5   8
HETATM    8  O2  UNL     1      38.935   1.959  12.373  1.00  0.00    -0.326 OA
BRANCH   8   9
HETATM    9  C3  UNL     1      38.626   0.615  12.194  1.00  0.00     0.295 C 
HETATM   10  C2  UNL     1      39.075  -0.225  13.356  1.00  0.00     0.207 C 
HETATM   11  C24 UNL     1      38.036  -1.169  13.866  1.00  0.00     0.183 C 
HETATM   12  C23 UNL     1      37.080  -1.659  12.822  1.00  0.00     0.178 C 
HETATM   13  C21 UNL     1      36.914  -0.724  11.665  1.00  0.00     0.152 C 
HETATM   14  O15 UNL     1      37.213   0.561  12.116  1.00  0.00    -0.351 OA
HETATM   15  C22 UNL     1      35.495  -0.760  11.111  1.00  0.00     0.042 C 
BRANCH  10  16
HETATM   16  O1  UNL     1      40.231  -0.939  13.110  1.00  0.00    -0.383 OA
HETATM   17  C1  UNL     1      40.611  -0.966  11.789  1.00  0.00     0.202 C 
ENDBRANCH  10  16
BRANCH  11  18
HETATM   18  O17 UNL     1      38.671  -2.314  14.401  1.00  0.00    -0.390 OA
ATOM     19  H17 UNL     1      38.015  -2.972  14.597  1.00  0.00     0.210 HD
ENDBRANCH  11  18
BRANCH  12  20
HETATM   20  O16 UNL     1      35.816  -1.797  13.428  1.00  0.00    -0.390 OA
ATOM     21  H16 UNL     1      35.727  -1.088  14.053  1.00  0.00     0.210 HD
ENDBRANCH  12  20
ENDBRANCH   8   9
ENDBRANCH   5   8
BRANCH   6  22
HETATM   22  O14 UNL     1      35.889   3.214  13.459  1.00  0.00    -0.388 OA
ATOM     23  H14 UNL     1      35.225   3.747  13.038  1.00  0.00     0.210 HD
ENDBRANCH   6  22
BRANCH   7  24
HETATM   24  O13 UNL     1      36.814   5.859  13.080  1.00  0.00    -0.390 OA
ATOM     25  H13 UNL     1      36.716   6.509  13.766  1.00  0.00     0.210 HD
ENDBRANCH   7  24
ENDBRANCH   1   2
BRANCH   1  26
HETATM   26  C7  UNL     1      39.881   6.236  11.223  1.00  0.00     0.203 C 
BRANCH  26  27
HETATM   27  C8  UNL     1      40.918   5.917  10.187  1.00  0.00     0.179 C 
HETATM   28  O5  UNL     1      41.200   6.876   9.269  1.00  0.00    -0.348 OA
HETATM   29  C9  UNL     1      41.675   6.299   8.087  1.00  0.00     0.292 C 
HETATM   30  C16 UNL     1      42.617   5.166   8.343  1.00  0.00     0.204 C 
HETATM   31  C17 UNL     1      43.247   5.398   9.701  1.00  0.00     0.183 C 
HETATM   32  C18 UNL     1      42.216   5.436  10.806  1.00  0.00     0.180 C 
BRANCH  29  33
HETATM   33  O6  UNL     1      42.385   7.302   7.430  1.00  0.00    -0.349 OA
BRANCH  33  34
HETATM   34  C10 UNL     1      41.770   8.529   7.490  1.00  0.00     0.177 C 
HETATM   35  C11 UNL     1      42.891   9.578   7.530  1.00  0.00     0.206 C 
HETATM   36  O7  UNL     1      42.395  10.864   7.450  1.00  0.00    -0.350 OA
HETATM   37  C12 UNL     1      41.789  11.110   6.241  1.00  0.00     0.188 A 
HETATM   38  C13 UNL     1      42.442  11.577   5.055  1.00  0.00     0.240 A 
HETATM   39  O8  UNL     1      41.642  12.438   5.815  1.00  0.00    -0.348 OA
HETATM   40  C14 UNL     1      40.568  10.241   6.107  1.00  0.00     0.105 C 
HETATM   41  C15 UNL     1      40.928   8.777   6.260  1.00  0.00     0.154 C 
BRANCH  41  42
HETATM   42  O9  UNL     1      41.605   8.397   5.114  1.00  0.00    -0.393 OA
ATOM     43  H9  UNL     1      41.059   7.845   4.566  1.00  0.00     0.210 HD
ENDBRANCH  41  42
ENDBRANCH  33  34
ENDBRANCH  29  33
BRANCH  30  44
HETATM   44  O10 UNL     1      43.631   5.218   7.390  1.00  0.00    -0.388 OA
ATOM     45  H10 UNL     1      44.297   5.824   7.696  1.00  0.00     0.210 HD
ENDBRANCH  30  44
BRANCH  31  46
HETATM   46  O11 UNL     1      43.822   6.681   9.657  1.00  0.00    -0.390 OA
ATOM     47  H11 UNL     1      44.733   6.574   9.906  1.00  0.00     0.210 HD
ENDBRANCH  31  46
BRANCH  32  48
HETATM   48  O12 UNL     1      42.074   4.124  11.266  1.00  0.00    -0.390 OA
ATOM     49  H12 UNL     1      41.936   3.533  10.535  1.00  0.00     0.210 HD
ENDBRANCH  32  48
ENDBRANCH  26  27
ENDBRANCH   1  26
TORSDOF 16
ENDMDL
MODEL 2
REMARK VINA RESULT: -7.669473931      1.931      4.306
REMARK  16 active torsions:
REMARK  status: ('A' for Active; 'I' for Inactive)
REMARK    1  A    between atoms: O1_2  and  C2_3 
REMARK    2  A    between atoms: C3_4  and  O2_5 
REMARK    3  A    between atoms: O2_5  and  C4_6 
REMARK    4  A    between atoms: C6_9  and  O4_10 
REMARK    5  A    between atoms: O4_10  and  C7_11 
REMARK    6  A    between atoms: C7_11  and  C8_12 
REMARK    7  A    between atoms: C9_14  and  O6_15 
REMARK    8  A    between atoms: O6_15  and  C10_16 
REMARK    9  A    between atoms: C15_23  and  O9_24 
REMARK   10  A    between atoms: C16_26  and  O10_27 
REMARK   11  A    between atoms: C17_29  and  O11_30 
REMARK   12  A    between atoms: C18_32  and  O12_33 
REMARK   13  A    between atoms: C19_35  and  O13_36 
REMARK   14  A    between atoms: C20_38  and  O14_39 
REMARK   15  A    between atoms: C23_44  and  O16_45 
REMARK   16  A    between atoms: C24_47  and  O17_48 
ROOT
HETATM    1  O4  UNL     1      40.279   1.588  13.784  1.00  0.00    -0.378 OA
ENDROOT
BRANCH   1   2
HETATM    2  C6  UNL     1      40.770   0.812  14.770  1.00  0.00     0.176 C 
HETATM    3  C5  UNL     1      41.128  -0.592  14.340  1.00  0.00     0.205 C 
HETATM    4  O3  UNL     1      40.378  -1.487  15.089  1.00  0.00    -0.356 OA
HETATM    5  C4  UNL     1      39.007  -1.322  14.927  1.00  0.00     0.294 C 
HETATM    6  C20 UNL     1      38.568  -0.021  15.611  1.00  0.00     0.204 C 
HETATM    7  C19 UNL     1      39.849   0.699  15.976  1.00  0.00     0.182 C 
BRANCH   5   8
HETATM    8  O2  UNL     1      38.730  -1.286  13.565  1.00  0.00    -0.326 OA
BRANCH   8   9
HETATM    9  C3  UNL     1      37.360  -1.453  13.396  1.00  0.00     0.295 C 
HETATM   10  C2  UNL     1      36.866  -0.800  12.135  1.00  0.00     0.207 C 
HETATM   11  C24 UNL     1      35.981  -1.669  11.303  1.00  0.00     0.183 C 
HETATM   12  C23 UNL     1      35.170  -2.656  12.087  1.00  0.00     0.178 C 
HETATM   13  C21 UNL     1      35.784  -3.040  13.397  1.00  0.00     0.152 C 
HETATM   14  O15 UNL     1      37.160  -2.850  13.290  1.00  0.00    -0.351 OA
HETATM   15  C22 UNL     1      35.488  -4.491  13.754  1.00  0.00     0.042 C 
BRANCH  10  16
HETATM   16  O1  UNL     1      36.222   0.403  12.350  1.00  0.00    -0.383 OA
HETATM   17  C1  UNL     1      37.033   1.507  12.245  1.00  0.00     0.202 C 
ENDBRANCH  10  16
BRANCH  11  18
HETATM   18  O17 UNL     1      35.059  -0.856  10.603  1.00  0.00    -0.390 OA
ATOM     19  H17 UNL     1      34.543  -1.401  10.020  1.00  0.00     0.210 HD
ENDBRANCH  11  18
BRANCH  12  20
HETATM   20  O16 UNL     1      35.067  -3.832  11.318  1.00  0.00    -0.390 OA
ATOM     21  H16 UNL     1      35.328  -3.610  10.432  1.00  0.00     0.210 HD
ENDBRANCH  12  20
ENDBRANCH   8   9
ENDBRANCH   5   8
BRANCH   6  22
HETATM   22  O14 UNL     1      37.853  -0.280  16.767  1.00  0.00    -0.388 OA
ATOM     23  H14 UNL     1      37.938   0.432  17.391  1.00  0.00     0.210 HD
ENDBRANCH   6  22
BRANCH   7  24
HETATM   24  O13 UNL     1      39.629   1.913  16.593  1.00  0.00    -0.390 OA
ATOM     25  H13 UNL     1      40.002   1.954  17.466  1.00  0.00     0.210 HD
ENDBRANCH   7  24
ENDBRANCH   1   2
BRANCH   1  26
HETATM   26  C7  UNL     1      41.076   2.286  12.960  1.00  0.00     0.203 C 
BRANCH  26  27
HETATM   27  C8  UNL     1      40.659   3.715  12.776  1.00  0.00     0.179 C 
HETATM   28  O5  UNL     1      40.508   4.163  11.503  1.00  0.00    -0.348 OA
HETATM   29  C9  UNL     1      40.713   5.545  11.443  1.00  0.00     0.292 C 
HETATM   30  C16 UNL     1      40.097   6.265  12.600  1.00  0.00     0.204 C 
HETATM   31  C17 UNL     1      38.949   5.416  13.103  1.00  0.00     0.183 C 
HETATM   32  C18 UNL     1      39.410   4.052  13.565  1.00  0.00     0.180 C 
BRANCH  29  33
HETATM   33  O6  UNL     1      40.071   5.976  10.283  1.00  0.00    -0.349 OA
BRANCH  33  34
HETATM   34  C10 UNL     1      40.937   6.225   9.246  1.00  0.00     0.177 C 
HETATM   35  C11 UNL     1      40.092   6.234   7.964  1.00  0.00     0.206 C 
HETATM   36  O7  UNL     1      40.833   6.615   6.863  1.00  0.00    -0.350 OA
HETATM   37  C12 UNL     1      41.263   7.917   6.955  1.00  0.00     0.188 A 
HETATM   38  C13 UNL     1      40.534   9.074   6.528  1.00  0.00     0.240 A 
HETATM   39  O8  UNL     1      41.618   8.598   5.781  1.00  0.00    -0.348 OA
HETATM   40  C14 UNL     1      42.227   8.046   8.102  1.00  0.00     0.105 C 
HETATM   41  C15 UNL     1      41.592   7.578   9.396  1.00  0.00     0.154 C 
BRANCH  41  42
HETATM   42  O9  UNL     1      40.665   8.536   9.770  1.00  0.00    -0.393 OA
ATOM     43  H9  UNL     1      40.432   9.087   9.032  1.00  0.00     0.210 HD
ENDBRANCH  41  42
ENDBRANCH  33  34
ENDBRANCH  29  33
BRANCH  30  44
HETATM   44  O10 UNL     1      39.566   7.465  12.134  1.00  0.00    -0.388 OA
ATOM     45  H10 UNL     1      38.813   7.686  12.670  1.00  0.00     0.210 HD
ENDBRANCH  30  44
BRANCH  31  46
HETATM   46  O11 UNL     1      38.108   5.191  11.998  1.00  0.00    -0.390 OA
ATOM     47  H11 UNL     1      38.445   4.420  11.557  1.00  0.00     0.210 HD
ENDBRANCH  31  46
BRANCH  32  48
HETATM   48  O12 UNL     1      39.715   4.173  14.923  1.00  0.00    -0.390 OA
ATOM     49  H12 UNL     1      39.991   3.334  15.274  1.00  0.00     0.210 HD
ENDBRANCH  32  48
ENDBRANCH  26  27
ENDBRANCH   1  26
TORSDOF 16
ENDMDL
MODEL 3
REMARK VINA RESULT: -7.358076341      4.912      9.262
REMARK  16 active torsions:
REMARK  status: ('A' for Active; 'I' for Inactive)
REMARK    1  A    between atoms: O1_2  and  C2_3 
REMARK    2  A    between atoms: C3_4  and  O2_5 
REMARK    3  A    between atoms: O2_5  and  C4_6 
REMARK    4  A    between atoms: C6_9  and  O4_10 
REMARK    5  A    between atoms: O4_10  and  C7_11 
REMARK    6  A    between atoms: C7_11  and  C8_12 
REMARK    7  A    between atoms: C9_14  and  O6_15 
REMARK    8  A    between atoms: O6_15  and  C10_16 
REMARK    9  A    between atoms: C15_23  and  O9_24 
REMARK   10  A    between atoms: C16_26  and  O10_27 
REMARK   11  A    between atoms: C17_29  and  O11_30 
REMARK   12  A    between atoms: C18_32  and  O12_33 
REMARK   13  A    between atoms: C19_35  and  O13_36 
REMARK   14  A    between atoms: C20_38  and  O14_39 
REMARK   15  A    between atoms: C23_44  and  O16_45 
REMARK   16  A    between atoms: C24_47  and  O17_48 
ROOT
HETATM    1  O4  UNL     1      38.825  -3.937  13.700  1.00  0.00    -0.378 OA
ENDROOT
BRANCH   1   2
HETATM    2  C6  UNL     1      39.781  -4.877  13.572  1.00  0.00     0.176 C 
HETATM    3  C5  UNL     1      40.010  -5.346  12.153  1.00  0.00     0.205 C 
HETATM    4  O3  UNL     1      39.774  -6.712  12.097  1.00  0.00    -0.356 OA
HETATM    5  C4  UNL     1      38.478  -7.058  12.463  1.00  0.00     0.294 C 
HETATM    6  C20 UNL     1      38.305  -6.854  13.974  1.00  0.00     0.204 C 
HETATM    7  C19 UNL     1      39.545  -6.113  14.429  1.00  0.00     0.182 C 
BRANCH   5   8
HETATM    8  O2  UNL     1      37.594  -6.259  11.749  1.00  0.00    -0.326 OA
BRANCH   8   9
HETATM    9  C3  UNL     1      36.312  -6.481  12.240  1.00  0.00     0.295 C 
HETATM   10  C2  UNL     1      35.327  -5.474  11.714  1.00  0.00     0.207 C 
HETATM   11  C24 UNL     1      34.062  -6.072  11.193  1.00  0.00     0.183 C 
HETATM   12  C23 UNL     1      33.651  -7.342  11.873  1.00  0.00     0.178 C 
HETATM   13  C21 UNL     1      34.792  -8.105  12.472  1.00  0.00     0.152 C 
HETATM   14  O15 UNL     1      35.944  -7.764  11.767  1.00  0.00    -0.351 OA
HETATM   15  C22 UNL     1      34.565  -9.609  12.397  1.00  0.00     0.042 C 
BRANCH  10  16
HETATM   16  O1  UNL     1      35.002  -4.489  12.626  1.00  0.00    -0.383 OA
HETATM   17  C1  UNL     1      35.438  -4.735  13.906  1.00  0.00     0.202 C 
ENDBRANCH  10  16
BRANCH  11  18
HETATM   18  O17 UNL     1      33.003  -5.154  11.381  1.00  0.00    -0.390 OA
ATOM     19  H17 UNL     1      32.185  -5.564  11.127  1.00  0.00     0.210 HD
ENDBRANCH  11  18
BRANCH  12  20
HETATM   20  O16 UNL     1      33.059  -8.176  10.905  1.00  0.00    -0.390 OA
ATOM     21  H16 UNL     1      32.127  -8.196  11.085  1.00  0.00     0.210 HD
ENDBRANCH  12  20
ENDBRANCH   8   9
ENDBRANCH   5   8
BRANCH   6  22
HETATM   22  O14 UNL     1      38.238  -8.067  14.638  1.00  0.00    -0.388 OA
ATOM     23  H14 UNL     1      39.086  -8.494  14.659  1.00  0.00     0.210 HD
ENDBRANCH   6  22
BRANCH   7  24
HETATM   24  O13 UNL     1      39.540  -5.830  15.779  1.00  0.00    -0.390 OA
ATOM     25  H13 UNL     1      40.011  -6.478  16.290  1.00  0.00     0.210 HD
ENDBRANCH   7  24
ENDBRANCH   1   2
BRANCH   1  26
HETATM   26  C7  UNL     1      38.945  -2.716  13.157  1.00  0.00     0.203 C 
BRANCH  26  27
HETATM   27  C8  UNL     1      39.075  -1.612  14.164  1.00  0.00     0.179 C 
HETATM   28  O5  UNL     1      38.621  -0.384  13.807  1.00  0.00    -0.348 OA
HETATM   29  C9  UNL     1      39.301   0.613  14.513  1.00  0.00     0.292 C 
HETATM   30  C16 UNL     1      39.518   0.251  15.948  1.00  0.00     0.204 C 
HETATM   31  C17 UNL     1      38.430  -0.727  16.338  1.00  0.00     0.183 C 
HETATM   32  C18 UNL     1      38.472  -1.987  15.503  1.00  0.00     0.180 C 
BRANCH  29  33
HETATM   33  O6  UNL     1      38.476   1.737  14.479  1.00  0.00    -0.349 OA
BRANCH  33  34
HETATM   34  C10 UNL     1      38.785   2.604  13.460  1.00  0.00     0.177 C 
HETATM   35  C11 UNL     1      37.516   3.424  13.185  1.00  0.00     0.206 C 
HETATM   36  O7  UNL     1      37.744   4.433  12.270  1.00  0.00    -0.350 OA
HETATM   37  C12 UNL     1      38.619   5.377  12.750  1.00  0.00     0.188 A 
HETATM   38  C13 UNL     1      38.270   6.529  13.527  1.00  0.00     0.240 A 
HETATM   39  O8  UNL     1      38.616   6.658  12.177  1.00  0.00    -0.348 OA
HETATM   40  C14 UNL     1      39.973   4.751  12.944  1.00  0.00     0.105 C 
HETATM   41  C15 UNL     1      39.887   3.553  13.869  1.00  0.00     0.154 C 
BRANCH  41  42
HETATM   42  O9  UNL     1      39.674   4.035  15.149  1.00  0.00    -0.393 OA
ATOM     43  H9  UNL     1      39.781   4.979  15.177  1.00  0.00     0.210 HD
ENDBRANCH  41  42
ENDBRANCH  33  34
ENDBRANCH  29  33
BRANCH  30  44
HETATM   44  O10 UNL     1      39.354   1.399  16.718  1.00  0.00    -0.388 OA
ATOM     45  H10 UNL     1      40.211   1.683  17.017  1.00  0.00     0.210 HD
ENDBRANCH  30  44
BRANCH  31  46
HETATM   46  O11 UNL     1      37.208  -0.099  16.040  1.00  0.00    -0.390 OA
ATOM     47  H11 UNL     1      36.526  -0.731  16.240  1.00  0.00     0.210 HD
ENDBRANCH  31  46
BRANCH  32  48
HETATM   48  O12 UNL     1      39.307  -2.884  16.175  1.00  0.00    -0.390 OA
ATOM     49  H12 UNL     1      38.850  -3.267  16.914  1.00  0.00     0.210 HD
ENDBRANCH  32  48
ENDBRANCH  26  27
ENDBRANCH   1  26
TORSDOF 16
ENDMDL
MODEL 4
REMARK VINA RESULT: -7.312424631      1.870     10.282
REMARK  16 active torsions:
REMARK  status: ('A' for Active; 'I' for Inactive)
REMARK    1  A    between atoms: O1_2  and  C2_3 
REMARK    2  A    between atoms: C3_4  and  O2_5 
REMARK    3  A    between atoms: O2_5  and  C4_6 
REMARK    4  A    between atoms: C6_9  and  O4_10 
REMARK    5  A    between atoms: O4_10  and  C7_11 
REMARK    6  A    between atoms: C7_11  and  C8_12 
REMARK    7  A    between atoms: C9_14  and  O6_15 
REMARK    8  A    between atoms: O6_15  and  C10_16 
REMARK    9  A    between atoms: C15_23  and  O9_24 
REMARK   10  A    between atoms: C16_26  and  O10_27 
REMARK   11  A    between atoms: C17_29  and  O11_30 
REMARK   12  A    between atoms: C18_32  and  O12_33 
REMARK   13  A    between atoms: C19_35  and  O13_36 
REMARK   14  A    between atoms: C20_38  and  O14_39 
REMARK   15  A    between atoms: C23_44  and  O16_45 
REMARK   16  A    between atoms: C24_47  and  O17_48 
ROOT
HETATM    1  O4  UNL     1      39.791   4.656  12.279  1.00  0.00    -0.378 OA
ENDROOT
BRANCH   1   2
HETATM    2  C6  UNL     1      39.969   5.874  12.827  1.00  0.00     0.176 C 
HETATM    3  C5  UNL     1      39.666   7.028  11.897  1.00  0.00     0.205 C 
HETATM    4  O3  UNL     1      40.813   7.796  11.760  1.00  0.00    -0.356 OA
HETATM    5  C4  UNL     1      41.887   7.087  11.235  1.00  0.00     0.294 C 
HETATM    6  C20 UNL     1      42.399   6.090  12.283  1.00  0.00     0.204 C 
HETATM    7  C19 UNL     1      41.365   6.096  13.389  1.00  0.00     0.182 C 
BRANCH   5   8
HETATM    8  O2  UNL     1      41.457   6.428  10.089  1.00  0.00    -0.326 OA
BRANCH   8   9
HETATM    9  C3  UNL     1      42.026   7.056   8.987  1.00  0.00     0.295 C 
HETATM   10  C2  UNL     1      42.389   6.075   7.907  1.00  0.00     0.207 C 
HETATM   11  C24 UNL     1      41.936   6.475   6.541  1.00  0.00     0.183 C 
HETATM   12  C23 UNL     1      41.877   7.955   6.318  1.00  0.00     0.178 C 
HETATM   13  C21 UNL     1      41.672   8.749   7.569  1.00  0.00     0.152 C 
HETATM   14  O15 UNL     1      41.026   7.926   8.490  1.00  0.00    -0.351 OA
HETATM   15  C22 UNL     1      40.834   9.996   7.315  1.00  0.00     0.042 C 
BRANCH  10  16
HETATM   16  O1  UNL     1      43.739   5.785   7.853  1.00  0.00    -0.383 OA
HETATM   17  C1  UNL     1      44.532   6.638   8.583  1.00  0.00     0.202 C 
ENDBRANCH  10  16
BRANCH  11  18
HETATM   18  O17 UNL     1      42.840   5.958   5.584  1.00  0.00    -0.390 OA
ATOM     19  H17 UNL     1      42.429   5.973   4.727  1.00  0.00     0.210 HD
ENDBRANCH  11  18
BRANCH  12  20
HETATM   20  O16 UNL     1      40.779   8.218   5.476  1.00  0.00    -0.390 OA
ATOM     21  H16 UNL     1      40.580   9.143   5.557  1.00  0.00     0.210 HD
ENDBRANCH  12  20
ENDBRANCH   8   9
ENDBRANCH   5   8
BRANCH   6  22
HETATM   22  O14 UNL     1      43.617   6.492  12.803  1.00  0.00    -0.388 OA
ATOM     23  H14 UNL     1      44.170   6.870  12.130  1.00  0.00     0.210 HD
ENDBRANCH   6  22
BRANCH   7  24
HETATM   24  O13 UNL     1      41.669   5.227  14.416  1.00  0.00    -0.390 OA
ATOM     25  H13 UNL     1      42.584   4.971  14.421  1.00  0.00     0.210 HD
ENDBRANCH   7  24
ENDBRANCH   1   2
BRANCH   1  26
HETATM   26  C7  UNL     1      38.837   3.815  12.704  1.00  0.00     0.203 C 
BRANCH  26  27
HETATM   27  C8  UNL     1      39.277   2.382  12.776  1.00  0.00     0.179 C 
HETATM   28  O5  UNL     1      38.423   1.441  12.298  1.00  0.00    -0.348 OA
HETATM   29  C9  UNL     1      38.643   0.214  12.931  1.00  0.00     0.292 C 
HETATM   30  C16 UNL     1      40.098  -0.079  13.120  1.00  0.00     0.204 C 
HETATM   31  C17 UNL     1      40.856   0.678  12.050  1.00  0.00     0.183 C 
HETATM   32  C18 UNL     1      40.640   2.171  12.149  1.00  0.00     0.180 C 
BRANCH  29  33
HETATM   33  O6  UNL     1      38.123  -0.756  12.075  1.00  0.00    -0.349 OA
BRANCH  33  34
HETATM   34  C10 UNL     1      36.855  -1.157  12.419  1.00  0.00     0.177 C 
HETATM   35  C11 UNL     1      36.174  -1.612  11.121  1.00  0.00     0.206 C 
HETATM   36  O7  UNL     1      34.934  -2.172  11.359  1.00  0.00    -0.350 OA
HETATM   37  C12 UNL     1      35.024  -3.337  12.082  1.00  0.00     0.188 A 
HETATM   38  C13 UNL     1      35.213  -4.650  11.539  1.00  0.00     0.240 A 
HETATM   39  O8  UNL     1      33.963  -4.253  12.027  1.00  0.00    -0.348 OA
HETATM   40  C14 UNL     1      35.556  -3.035  13.456  1.00  0.00     0.105 C 
HETATM   41  C15 UNL     1      36.894  -2.327  13.374  1.00  0.00     0.154 C 
BRANCH  41  42
HETATM   42  O9  UNL     1      37.830  -3.263  12.969  1.00  0.00    -0.393 OA
ATOM     43  H9  UNL     1      38.372  -3.537  13.700  1.00  0.00     0.210 HD
ENDBRANCH  41  42
ENDBRANCH  33  34
ENDBRANCH  29  33
BRANCH  30  44
HETATM   44  O10 UNL     1      40.301  -1.439  12.903  1.00  0.00    -0.388 OA
ATOM     45  H10 UNL     1      40.735  -1.546  12.065  1.00  0.00     0.210 HD
ENDBRANCH  30  44
BRANCH  31  46
HETATM   46  O11 UNL     1      40.303   0.283  10.818  1.00  0.00    -0.390 OA
ATOM     47  H11 UNL     1      40.274  -0.667  10.830  1.00  0.00     0.210 HD
ENDBRANCH  31  46
BRANCH  32  48
HETATM   48  O12 UNL     1      41.640   2.664  12.990  1.00  0.00    -0.390 OA
ATOM     49  H12 UNL     1      41.309   2.755  13.876  1.00  0.00     0.210 HD
ENDBRANCH  32  48
ENDBRANCH  26  27
ENDBRANCH   1  26
TORSDOF 16
ENDMDL
MODEL 5
REMARK VINA RESULT: -7.299280889      1.831      3.841
REMARK  16 active torsions:
REMARK  status: ('A' for Active; 'I' for Inactive)
REMARK    1  A    between atoms: O1_2  and  C2_3 
REMARK    2  A    between atoms: C3_4  and  O2_5 
REMARK    3  A    between atoms: O2_5  and  C4_6 
REMARK    4  A    between atoms: C6_9  and  O4_10 
REMARK    5  A    between atoms: O4_10  and  C7_11 
REMARK    6  A    between atoms: C7_11  and  C8_12 
REMARK    7  A    between atoms: C9_14  and  O6_15 
REMARK    8  A    between atoms: O6_15  and  C10_16 
REMARK    9  A    between atoms: C15_23  and  O9_24 
REMARK   10  A    between atoms: C16_26  and  O10_27 
REMARK   11  A    between atoms: C17_29  and  O11_30 
REMARK   12  A    between atoms: C18_32  and  O12_33 
REMARK   13  A    between atoms: C19_35  and  O13_36 
REMARK   14  A    between atoms: C20_38  and  O14_39 
REMARK   15  A    between atoms: C23_44  and  O16_45 
REMARK   16  A    between atoms: C24_47  and  O17_48 
ROOT
HETATM    1  O4  UNL     1      41.640   1.892  11.192  1.00  0.00    -0.378 OA
ENDROOT
BRANCH   1   2
HETATM    2  C6  UNL     1      42.263   0.782  11.632  1.00  0.00     0.176 C 
HETATM    3  C5  UNL     1      41.782  -0.501  10.993  1.00  0.00     0.205 C 
HETATM    4  O3  UNL     1      41.299  -1.336  11.989  1.00  0.00    -0.356 OA
HETATM    5  C4  UNL     1      40.240  -0.783  12.700  1.00  0.00     0.294 C 
HETATM    6  C20 UNL     1      40.762   0.356  13.585  1.00  0.00     0.204 C 
HETATM    7  C19 UNL     1      42.189   0.595  13.141  1.00  0.00     0.182 C 
BRANCH   5   8
HETATM    8  O2  UNL     1      39.299  -0.316  11.790  1.00  0.00    -0.326 OA
BRANCH   8   9
HETATM    9  C3  UNL     1      38.036  -0.679  12.244  1.00  0.00     0.295 C 
HETATM   10  C2  UNL     1      36.943  -0.054  11.423  1.00  0.00     0.207 C 
HETATM   11  C24 UNL     1      35.877  -1.010  10.997  1.00  0.00     0.183 C 
HETATM   12  C23 UNL     1      35.641  -2.140  11.952  1.00  0.00     0.178 C 
HETATM   13  C21 UNL     1      36.832  -2.483  12.792  1.00  0.00     0.152 C 
HETATM   14  O15 UNL     1      37.970  -2.085  12.092  1.00  0.00    -0.351 OA
HETATM   15  C22 UNL     1      36.902  -3.975  13.087  1.00  0.00     0.042 C 
BRANCH  10  16
HETATM   16  O1  UNL     1      36.341   1.028  12.034  1.00  0.00    -0.383 OA
HETATM   17  C1  UNL     1      37.208   2.033  12.390  1.00  0.00     0.202 C 
ENDBRANCH  10  16
BRANCH  11  18
HETATM   18  O17 UNL     1      34.651  -0.315  10.883  1.00  0.00    -0.390 OA
ATOM     19  H17 UNL     1      33.950  -0.941  10.742  1.00  0.00     0.210 HD
ENDBRANCH  11  18
BRANCH  12  20
HETATM   20  O16 UNL     1      35.326  -3.284  11.194  1.00  0.00    -0.390 OA
ATOM     21  H16 UNL     1      35.018  -2.982  10.348  1.00  0.00     0.210 HD
ENDBRANCH  12  20
ENDBRANCH   8   9
ENDBRANCH   5   8
BRANCH   6  22
HETATM   22  O14 UNL     1      40.761  -0.006  14.921  1.00  0.00    -0.388 OA
ATOM     23  H14 UNL     1      41.498   0.378  15.381  1.00  0.00     0.210 HD
ENDBRANCH   6  22
BRANCH   7  24
HETATM   24  O13 UNL     1      42.806   1.615  13.834  1.00  0.00    -0.390 OA
ATOM     25  H13 UNL     1      43.507   1.305  14.396  1.00  0.00     0.210 HD
ENDBRANCH   7  24
ENDBRANCH   1   2
BRANCH   1  26
HETATM   26  C7  UNL     1      42.275   2.832  10.476  1.00  0.00     0.203 C 
BRANCH  26  27
HETATM   27  C8  UNL     1      41.860   4.234  10.808  1.00  0.00     0.179 C 
HETATM   28  O5  UNL     1      41.551   5.057   9.773  1.00  0.00    -0.348 OA
HETATM   29  C9  UNL     1      41.768   6.392  10.127  1.00  0.00     0.292 C 
HETATM   30  C16 UNL     1      41.320   6.694  11.522  1.00  0.00     0.204 C 
HETATM   31  C17 UNL     1      40.234   5.699  11.874  1.00  0.00     0.183 C 
HETATM   32  C18 UNL     1      40.731   4.271  11.818  1.00  0.00     0.180 C 
BRANCH  29  33
HETATM   33  O6  UNL     1      40.986   7.150   9.256  1.00  0.00    -0.349 OA
BRANCH  33  34
HETATM   34  C10 UNL     1      41.700   7.675   8.207  1.00  0.00     0.177 C 
HETATM   35  C11 UNL     1      40.721   7.798   7.031  1.00  0.00     0.206 C 
HETATM   36  O7  UNL     1      41.290   8.447   5.954  1.00  0.00    -0.350 OA
HETATM   37  C12 UNL     1      41.589   9.757   6.240  1.00  0.00     0.188 A 
HETATM   38  C13 UNL     1      40.701  10.872   6.098  1.00  0.00     0.240 A 
HETATM   39  O8  UNL     1      41.738  10.666   5.181  1.00  0.00    -0.348 OA
HETATM   40  C14 UNL     1      42.657   9.808   7.298  1.00  0.00     0.105 C 
HETATM   41  C15 UNL     1      42.223   9.053   8.539  1.00  0.00     0.154 C 
BRANCH  41  42
HETATM   42  O9  UNL     1      41.249   9.813   9.163  1.00  0.00    -0.393 OA
ATOM     43  H9  UNL     1      40.722  10.278   8.524  1.00  0.00     0.210 HD
ENDBRANCH  41  42
ENDBRANCH  33  34
ENDBRANCH  29  33
BRANCH  30  44
HETATM   44  O10 UNL     1      40.751   7.964  11.532  1.00  0.00    -0.388 OA
ATOM     45  H10 UNL     1      39.967   7.936  12.067  1.00  0.00     0.210 HD
ENDBRANCH  30  44
BRANCH  31  46
HETATM   46  O11 UNL     1      39.252   5.812  10.874  1.00  0.00    -0.390 OA
ATOM     47  H11 UNL     1      39.526   5.242  10.164  1.00  0.00     0.210 HD
ENDBRANCH  31  46
BRANCH  32  48
HETATM   48  O12 UNL     1      41.212   3.966  13.093  1.00  0.00    -0.390 OA
ATOM     49  H12 UNL     1      41.520   3.067  13.122  1.00  0.00     0.210 HD
ENDBRANCH  32  48
ENDBRANCH  26  27
ENDBRANCH   1  26
TORSDOF 16
ENDMDL
