MODEL 1
REMARK VINA RESULT: -7.790921081      0.000      0.000
REMARK  16 active torsions:
REMARK  status: ('A' for Active; 'I' for Inactive)
REMARK    1  A    between atoms: C3_4  and  O2_5 
REMARK    2  A    between atoms: O2_5  and  C4_6 
REMARK    3  A    between atoms: C6_8  and  C7_9 
REMARK    4  A    between atoms: C7_9  and  O3_10 
REMARK    5  A    between atoms: O3_10  and  C8_11 
REMARK    6  A    between atoms: C9_13  and  C10_14 
REMARK    7  A    between atoms: C10_14  and  O5_15 
REMARK    8  A    between atoms: O5_15  and  C11_16 
REMARK    9  A    between atoms: C12_17  and  O6_18 
REMARK   10  A    between atoms: C16_26  and  O10_27 
REMARK   11  A    between atoms: C17_29  and  O11_30 
REMARK   12  A    between atoms: C18_32  and  O12_33 
REMARK   13  A    between atoms: C19_35  and  O13_36 
REMARK   14  A    between atoms: C21_40  and  O15_41 
REMARK   15  A    between atoms: C22_43  and  O16_44 
REMARK   16  A    between atoms: C23_46  and  O17_47 
ROOT
HETATM    1  C8  UNL     1      38.302   1.511  12.817  1.00  0.00     0.291 C 
HETATM    2  O4  UNL     1      38.777   2.472  11.978  1.00  0.00    -0.348 OA
HETATM    3  C9  UNL     1      39.977   3.049  12.335  1.00  0.00     0.179 C 
HETATM    4  C17 UNL     1      40.660   2.406  13.518  1.00  0.00     0.180 C 
HETATM    5  C18 UNL     1      39.741   2.213  14.685  1.00  0.00     0.183 C 
HETATM    6  C19 UNL     1      38.312   1.990  14.239  1.00  0.00     0.204 C 
ENDROOT
BRANCH   1   7
HETATM    7  O3  UNL     1      39.009   0.314  12.699  1.00  0.00    -0.358 OA
BRANCH   7   8
HETATM    8  C7  UNL     1      38.317  -0.627  11.948  1.00  0.00     0.178 C 
BRANCH   8   9
HETATM    9  C6  UNL     1      36.847  -0.408  12.120  1.00  0.00     0.038 C 
HETATM   10  C5  UNL     1      36.160  -1.544  12.831  1.00  0.00     0.069 C 
HETATM   11  C4  UNL     1      35.621  -2.337  11.664  1.00  0.00     0.263 C 
HETATM   12  O14 UNL     1      35.417  -1.476  10.624  1.00  0.00    -0.361 OA
HETATM   13  C20 UNL     1      36.096  -0.306  10.843  1.00  0.00     0.178 C 
BRANCH  11  14
HETATM   14  O2  UNL     1      34.526  -3.113  11.984  1.00  0.00    -0.329 OA
BRANCH  14  15
HETATM   15  C3  UNL     1      34.856  -4.293  12.626  1.00  0.00     0.294 C 
HETATM   16  O1  UNL     1      35.992  -4.828  11.996  1.00  0.00    -0.351 OA
HETATM   17  C2  UNL     1      36.449  -5.849  12.844  1.00  0.00     0.152 C 
HETATM   18  C1  UNL     1      37.823  -6.283  12.389  1.00  0.00     0.042 C 
HETATM   19  C23 UNL     1      35.507  -7.004  12.700  1.00  0.00     0.178 C 
HETATM   20  C22 UNL     1      34.080  -6.646  13.017  1.00  0.00     0.183 C 
HETATM   21  C21 UNL     1      33.705  -5.265  12.610  1.00  0.00     0.204 C 
BRANCH  19  22
HETATM   22  O17 UNL     1      35.551  -7.427  11.369  1.00  0.00    -0.390 OA
ATOM     23  H17 UNL     1      36.438  -7.713  11.184  1.00  0.00     0.210 HD
ENDBRANCH  19  22
BRANCH  20  24
HETATM   24  O16 UNL     1      33.948  -6.726  14.413  1.00  0.00    -0.390 OA
ATOM     25  H16 UNL     1      34.731  -7.145  14.751  1.00  0.00     0.210 HD
ENDBRANCH  20  24
BRANCH  21  26
HETATM   26  O15 UNL     1      33.212  -5.322  11.303  1.00  0.00    -0.388 OA
ATOM     27  H15 UNL     1      32.270  -5.427  11.353  1.00  0.00     0.210 HD
ENDBRANCH  21  26
ENDBRANCH  14  15
ENDBRANCH  11  14
ENDBRANCH   8   9
ENDBRANCH   7   8
ENDBRANCH   1   7
BRANCH   6  28
HETATM   28  O13 UNL     1      37.774   1.024  15.105  1.00  0.00    -0.388 OA
ATOM     29  H13 UNL     1      36.827   0.984  15.034  1.00  0.00     0.210 HD
ENDBRANCH   6  28
BRANCH   3  30
HETATM   30  C10 UNL     1      39.800   4.546  12.618  1.00  0.00     0.203 C 
BRANCH  30  31
HETATM   31  O5  UNL     1      40.883   5.217  12.152  1.00  0.00    -0.376 OA
BRANCH  31  32
HETATM   32  C11 UNL     1      41.299   4.991  10.877  1.00  0.00     0.208 C 
HETATM   33  C12 UNL     1      42.807   4.902  10.745  1.00  0.00     0.291 C 
HETATM   34  O7  UNL     1      43.024   4.257   9.526  1.00  0.00    -0.326 OA
HETATM   35  C13 UNL     1      42.714   5.083   8.450  1.00  0.00     0.297 C 
HETATM   36  O8  UNL     1      43.787   5.747   7.944  1.00  0.00    -0.334 OA
HETATM   37  C15 UNL     1      41.652   6.076   8.673  1.00  0.00     0.210 C 
HETATM   38  C14 UNL     1      43.506   7.087   8.021  1.00  0.00     0.342 C 
HETATM   39  O9  UNL     1      42.400   7.280   8.812  1.00  0.00    -0.354 OA
HETATM   40  C16 UNL     1      40.800   5.972   9.873  1.00  0.00     0.185 C 
BRANCH  33  41
HETATM   41  O6  UNL     1      43.288   4.110  11.763  1.00  0.00    -0.368 OA
ATOM     42  H6  UNL     1      44.231   4.220  11.811  1.00  0.00     0.212 HD
ENDBRANCH  33  41
BRANCH  40  43
HETATM   43  O10 UNL     1      40.538   7.225  10.461  1.00  0.00    -0.390 OA
ATOM     44  H10 UNL     1      40.260   7.863   9.814  1.00  0.00     0.210 HD
ENDBRANCH  40  43
ENDBRANCH  31  32
ENDBRANCH  30  31
ENDBRANCH   3  30
BRANCH   5  45
HETATM   45  O12 UNL     1      40.201   1.249  15.547  1.00  0.00    -0.390 OA
ATOM     46  H12 UNL     1      39.507   0.905  16.099  1.00  0.00     0.210 HD
ENDBRANCH   5  45
BRANCH   4  47
HETATM   47  O11 UNL     1      41.733   3.198  13.958  1.00  0.00    -0.390 OA
ATOM     48  H11 UNL     1      42.289   2.706  14.551  1.00  0.00     0.210 HD
ENDBRANCH   4  47
TORSDOF 16
ENDMDL
MODEL 2
REMARK VINA RESULT: -7.760845174      2.742      3.857
REMARK  16 active torsions:
REMARK  status: ('A' for Active; 'I' for Inactive)
REMARK    1  A    between atoms: C3_4  and  O2_5 
REMARK    2  A    between atoms: O2_5  and  C4_6 
REMARK    3  A    between atoms: C6_8  and  C7_9 
REMARK    4  A    between atoms: C7_9  and  O3_10 
REMARK    5  A    between atoms: O3_10  and  C8_11 
REMARK    6  A    between atoms: C9_13  and  C10_14 
REMARK    7  A    between atoms: C10_14  and  O5_15 
REMARK    8  A    between atoms: O5_15  and  C11_16 
REMARK    9  A    between atoms: C12_17  and  O6_18 
REMARK   10  A    between atoms: C16_26  and  O10_27 
REMARK   11  A    between atoms: C17_29  and  O11_30 
REMARK   12  A    between atoms: C18_32  and  O12_33 
REMARK   13  A    between atoms: C19_35  and  O13_36 
REMARK   14  A    between atoms: C21_40  and  O15_41 
REMARK   15  A    between atoms: C22_43  and  O16_44 
REMARK   16  A    between atoms: C23_46  and  O17_47 
ROOT
HETATM    1  C8  UNL     1      38.492   1.102  13.225  1.00  0.00     0.291 C 
HETATM    2  O4  UNL     1      39.110   2.136  12.592  1.00  0.00    -0.348 OA
HETATM    3  C9  UNL     1      40.320   2.534  13.121  1.00  0.00     0.179 C 
HETATM    4  C17 UNL     1      40.850   1.647  14.222  1.00  0.00     0.180 C 
HETATM    5  C18 UNL     1      39.826   1.357  15.276  1.00  0.00     0.183 C 
HETATM    6  C19 UNL     1      38.425   1.343  14.705  1.00  0.00     0.204 C 
ENDROOT
BRANCH   1   7
HETATM    7  O3  UNL     1      39.106  -0.121  12.956  1.00  0.00    -0.358 OA
BRANCH   7   8
HETATM    8  C7  UNL     1      38.419  -0.848  11.993  1.00  0.00     0.178 C 
BRANCH   8   9
HETATM    9  C6  UNL     1      36.952  -0.592  12.138  1.00  0.00     0.038 C 
HETATM   10  C5  UNL     1      36.225  -1.707  12.842  1.00  0.00     0.069 C 
HETATM   11  C4  UNL     1      35.686  -2.492  11.670  1.00  0.00     0.263 C 
HETATM   12  O14 UNL     1      35.521  -1.631  10.623  1.00  0.00    -0.361 OA
HETATM   13  C20 UNL     1      36.226  -0.478  10.848  1.00  0.00     0.178 C 
BRANCH  11  14
HETATM   14  O2  UNL     1      34.566  -3.239  11.975  1.00  0.00    -0.329 OA
BRANCH  14  15
HETATM   15  C3  UNL     1      34.855  -4.420  12.633  1.00  0.00     0.294 C 
HETATM   16  O1  UNL     1      36.009  -4.971  12.051  1.00  0.00    -0.351 OA
HETATM   17  C2  UNL     1      36.418  -5.995  12.921  1.00  0.00     0.152 C 
HETATM   18  C1  UNL     1      37.804  -6.448  12.523  1.00  0.00     0.042 C 
HETATM   19  C23 UNL     1      35.468  -7.139  12.742  1.00  0.00     0.178 C 
HETATM   20  C22 UNL     1      34.034  -6.762  13.000  1.00  0.00     0.183 C 
HETATM   21  C21 UNL     1      33.693  -5.377  12.574  1.00  0.00     0.204 C 
BRANCH  19  22
HETATM   22  O17 UNL     1      35.560  -7.568  11.416  1.00  0.00    -0.390 OA
ATOM     23  H17 UNL     1      35.160  -8.428  11.360  1.00  0.00     0.210 HD
ENDBRANCH  19  22
BRANCH  20  24
HETATM   24  O16 UNL     1      33.845  -6.835  14.390  1.00  0.00    -0.390 OA
ATOM     25  H16 UNL     1      34.676  -7.078  14.780  1.00  0.00     0.210 HD
ENDBRANCH  20  24
BRANCH  21  26
HETATM   26  O15 UNL     1      33.253  -5.433  11.248  1.00  0.00    -0.388 OA
ATOM     27  H15 UNL     1      32.385  -5.051  11.215  1.00  0.00     0.210 HD
ENDBRANCH  21  26
ENDBRANCH  14  15
ENDBRANCH  11  14
ENDBRANCH   8   9
ENDBRANCH   7   8
ENDBRANCH   1   7
BRANCH   6  28
HETATM   28  O13 UNL     1      37.742   0.304  15.359  1.00  0.00    -0.388 OA
ATOM     29  H13 UNL     1      37.270   0.627  16.119  1.00  0.00     0.210 HD
ENDBRANCH   6  28
BRANCH   3  30
HETATM   30  C10 UNL     1      40.243   3.976  13.637  1.00  0.00     0.203 C 
BRANCH  30  31
HETATM   31  O5  UNL     1      39.342   4.666  12.896  1.00  0.00    -0.376 OA
BRANCH  31  32
HETATM   32  C11 UNL     1      38.176   5.059  13.474  1.00  0.00     0.208 C 
HETATM   33  C12 UNL     1      36.972   4.905  12.565  1.00  0.00     0.291 C 
HETATM   34  O7  UNL     1      35.870   4.927  13.420  1.00  0.00    -0.326 OA
HETATM   35  C13 UNL     1      35.649   6.201  13.933  1.00  0.00     0.297 C 
HETATM   36  O8  UNL     1      34.737   6.923  13.231  1.00  0.00    -0.334 OA
HETATM   37  C15 UNL     1      36.837   7.051  14.108  1.00  0.00     0.210 C 
HETATM   38  C14 UNL     1      35.362   8.071  12.816  1.00  0.00     0.342 C 
HETATM   39  O9  UNL     1      36.717   7.953  13.012  1.00  0.00    -0.354 OA
HETATM   40  C16 UNL     1      38.181   6.450  14.008  1.00  0.00     0.185 C 
BRANCH  33  41
HETATM   41  O6  UNL     1      37.042   3.672  11.955  1.00  0.00    -0.368 OA
ATOM     42  H6  UNL     1      37.063   3.003  12.630  1.00  0.00     0.212 HD
ENDBRANCH  33  41
BRANCH  40  43
HETATM   43  O10 UNL     1      39.090   7.269  13.310  1.00  0.00    -0.390 OA
ATOM     44  H10 UNL     1      39.711   7.682  13.898  1.00  0.00     0.210 HD
ENDBRANCH  40  43
ENDBRANCH  31  32
ENDBRANCH  30  31
ENDBRANCH   3  30
BRANCH   5  45
HETATM   45  O12 UNL     1      40.135   0.228  15.993  1.00  0.00    -0.390 OA
ATOM     46  H12 UNL     1      39.867  -0.565  15.542  1.00  0.00     0.210 HD
ENDBRANCH   5  45
BRANCH   4  47
HETATM   47  O11 UNL     1      41.945   2.254  14.859  1.00  0.00    -0.390 OA
ATOM     48  H11 UNL     1      41.668   3.036  15.324  1.00  0.00     0.210 HD
ENDBRANCH   4  47
TORSDOF 16
ENDMDL
MODEL 3
REMARK VINA RESULT: -7.692955411      0.896      1.587
REMARK  16 active torsions:
REMARK  status: ('A' for Active; 'I' for Inactive)
REMARK    1  A    between atoms: C3_4  and  O2_5 
REMARK    2  A    between atoms: O2_5  and  C4_6 
REMARK    3  A    between atoms: C6_8  and  C7_9 
REMARK    4  A    between atoms: C7_9  and  O3_10 
REMARK    5  A    between atoms: O3_10  and  C8_11 
REMARK    6  A    between atoms: C9_13  and  C10_14 
REMARK    7  A    between atoms: C10_14  and  O5_15 
REMARK    8  A    between atoms: O5_15  and  C11_16 
REMARK    9  A    between atoms: C12_17  and  O6_18 
REMARK   10  A    between atoms: C16_26  and  O10_27 
REMARK   11  A    between atoms: C17_29  and  O11_30 
REMARK   12  A    between atoms: C18_32  and  O12_33 
REMARK   13  A    between atoms: C19_35  and  O13_36 
REMARK   14  A    between atoms: C21_40  and  O15_41 
REMARK   15  A    between atoms: C22_43  and  O16_44 
REMARK   16  A    between atoms: C23_46  and  O17_47 
ROOT
HETATM    1  C8  UNL     1      38.844   1.526  12.471  1.00  0.00     0.291 C 
HETATM    2  O4  UNL     1      39.972   1.899  11.807  1.00  0.00    -0.348 OA
HETATM    3  C9  UNL     1      41.076   2.165  12.589  1.00  0.00     0.179 C 
HETATM    4  C17 UNL     1      40.905   1.840  14.053  1.00  0.00     0.180 C 
HETATM    5  C18 UNL     1      39.639   2.399  14.629  1.00  0.00     0.183 C 
HETATM    6  C19 UNL     1      38.542   2.479  13.590  1.00  0.00     0.204 C 
ENDROOT
BRANCH   1   7
HETATM    7  O3  UNL     1      38.924   0.219  12.949  1.00  0.00    -0.358 OA
BRANCH   7   8
HETATM    8  C7  UNL     1      38.291  -0.684  12.106  1.00  0.00     0.178 C 
BRANCH   8   9
HETATM    9  C6  UNL     1      36.811  -0.482  12.190  1.00  0.00     0.038 C 
HETATM   10  C5  UNL     1      36.100  -1.609  12.892  1.00  0.00     0.069 C 
HETATM   11  C4  UNL     1      35.635  -2.437  11.718  1.00  0.00     0.263 C 
HETATM   12  O14 UNL     1      35.479  -1.606  10.646  1.00  0.00    -0.361 OA
HETATM   13  C20 UNL     1      36.130  -0.422  10.872  1.00  0.00     0.178 C 
BRANCH  11  14
HETATM   14  O2  UNL     1      34.533  -3.220  11.997  1.00  0.00    -0.329 OA
BRANCH  14  15
HETATM   15  C3  UNL     1      34.847  -4.402  12.643  1.00  0.00     0.294 C 
HETATM   16  O1  UNL     1      36.003  -4.931  12.045  1.00  0.00    -0.351 OA
HETATM   17  C2  UNL     1      36.436  -5.955  12.902  1.00  0.00     0.152 C 
HETATM   18  C1  UNL     1      37.824  -6.384  12.487  1.00  0.00     0.042 C 
HETATM   19  C23 UNL     1      35.502  -7.111  12.726  1.00  0.00     0.178 C 
HETATM   20  C22 UNL     1      34.065  -6.758  13.002  1.00  0.00     0.183 C 
HETATM   21  C21 UNL     1      33.699  -5.375  12.590  1.00  0.00     0.204 C 
BRANCH  19  22
HETATM   22  O17 UNL     1      35.586  -7.529  11.395  1.00  0.00    -0.390 OA
ATOM     23  H17 UNL     1      34.736  -7.873  11.144  1.00  0.00     0.210 HD
ENDBRANCH  19  22
BRANCH  20  24
HETATM   24  O16 UNL     1      33.892  -6.844  14.393  1.00  0.00    -0.390 OA
ATOM     25  H16 UNL     1      34.371  -6.124  14.786  1.00  0.00     0.210 HD
ENDBRANCH  20  24
BRANCH  21  26
HETATM   26  O15 UNL     1      33.245  -5.429  11.268  1.00  0.00    -0.388 OA
ATOM     27  H15 UNL     1      33.117  -6.342  11.043  1.00  0.00     0.210 HD
ENDBRANCH  21  26
ENDBRANCH  14  15
ENDBRANCH  11  14
ENDBRANCH   8   9
ENDBRANCH   7   8
ENDBRANCH   1   7
BRANCH   6  28
HETATM   28  O13 UNL     1      37.350   2.131  14.247  1.00  0.00    -0.388 OA
ATOM     29  H13 UNL     1      37.476   2.086  15.188  1.00  0.00     0.210 HD
ENDBRANCH   6  28
BRANCH   3  30
HETATM   30  C10 UNL     1      41.501   3.633  12.453  1.00  0.00     0.203 C 
BRANCH  30  31
HETATM   31  O5  UNL     1      41.063   4.114  11.263  1.00  0.00    -0.376 OA
BRANCH  31  32
HETATM   32  C11 UNL     1      41.661   5.217  10.738  1.00  0.00     0.208 C 
HETATM   33  C12 UNL     1      40.729   6.056   9.886  1.00  0.00     0.291 C 
HETATM   34  O7  UNL     1      41.346   7.305   9.803  1.00  0.00    -0.326 OA
HETATM   35  C13 UNL     1      42.476   7.264   8.993  1.00  0.00     0.297 C 
HETATM   36  O8  UNL     1      42.241   7.632   7.706  1.00  0.00    -0.334 OA
HETATM   37  C15 UNL     1      43.206   5.987   8.955  1.00  0.00     0.210 C 
HETATM   38  C14 UNL     1      42.614   6.580   6.910  1.00  0.00     0.342 C 
HETATM   39  O9  UNL     1      42.821   5.466   7.686  1.00  0.00    -0.354 OA
HETATM   40  C16 UNL     1      42.894   4.942   9.949  1.00  0.00     0.185 C 
BRANCH  33  41
HETATM   41  O6  UNL     1      39.531   6.190  10.551  1.00  0.00    -0.368 OA
ATOM     42  H6  UNL     1      38.880   5.658  10.109  1.00  0.00     0.212 HD
ENDBRANCH  33  41
BRANCH  40  43
HETATM   43  O10 UNL     1      42.871   3.650   9.387  1.00  0.00    -0.390 OA
ATOM     44  H10 UNL     1      43.709   3.422   9.001  1.00  0.00     0.210 HD
ENDBRANCH  40  43
ENDBRANCH  31  32
ENDBRANCH  30  31
ENDBRANCH   3  30
BRANCH   5  45
HETATM   45  O12 UNL     1      39.262   1.741  15.773  1.00  0.00    -0.390 OA
ATOM     46  H12 UNL     1      39.918   1.812  16.457  1.00  0.00     0.210 HD
ENDBRANCH   5  45
BRANCH   4  47
HETATM   47  O11 UNL     1      41.971   2.364  14.802  1.00  0.00    -0.390 OA
ATOM     48  H11 UNL     1      42.802   2.062  14.455  1.00  0.00     0.210 HD
ENDBRANCH   4  47
TORSDOF 16
ENDMDL
MODEL 4
REMARK VINA RESULT: -7.606526478      4.502     10.777
REMARK  16 active torsions:
REMARK  status: ('A' for Active; 'I' for Inactive)
REMARK    1  A    between atoms: C3_4  and  O2_5 
REMARK    2  A    between atoms: O2_5  and  C4_6 
REMARK    3  A    between atoms: C6_8  and  C7_9 
REMARK    4  A    between atoms: C7_9  and  O3_10 
REMARK    5  A    between atoms: O3_10  and  C8_11 
REMARK    6  A    between atoms: C9_13  and  C10_14 
REMARK    7  A    between atoms: C10_14  and  O5_15 
REMARK    8  A    between atoms: O5_15  and  C11_16 
REMARK    9  A    between atoms: C12_17  and  O6_18 
REMARK   10  A    between atoms: C16_26  and  O10_27 
REMARK   11  A    between atoms: C17_29  and  O11_30 
REMARK   12  A    between atoms: C18_32  and  O12_33 
REMARK   13  A    between atoms: C19_35  and  O13_36 
REMARK   14  A    between atoms: C21_40  and  O15_41 
REMARK   15  A    between atoms: C22_43  and  O16_44 
REMARK   16  A    between atoms: C23_46  and  O17_47 
ROOT
HETATM    1  C8  UNL     1      38.463   4.834  12.544  1.00  0.00     0.291 C 
HETATM    2  O4  UNL     1      37.346   4.117  12.242  1.00  0.00    -0.348 OA
HETATM    3  C9  UNL     1      37.145   2.970  12.979  1.00  0.00     0.179 C 
HETATM    4  C17 UNL     1      38.112   2.776  14.122  1.00  0.00     0.180 C 
HETATM    5  C18 UNL     1      39.541   2.955  13.710  1.00  0.00     0.183 C 
HETATM    6  C19 UNL     1      39.674   3.949  12.576  1.00  0.00     0.204 C 
ENDROOT
BRANCH   1   7
HETATM    7  O3  UNL     1      38.333   5.529  13.746  1.00  0.00    -0.358 OA
BRANCH   7   8
HETATM    8  C7  UNL     1      37.654   6.729  13.582  1.00  0.00     0.178 C 
BRANCH   8   9
HETATM    9  C6  UNL     1      38.384   7.810  14.314  1.00  0.00     0.038 C 
HETATM   10  C5  UNL     1      38.952   7.352  15.632  1.00  0.00     0.069 C 
HETATM   11  C4  UNL     1      37.880   7.815  16.590  1.00  0.00     0.263 C 
HETATM   12  O14 UNL     1      37.256   8.897  16.038  1.00  0.00    -0.361 OA
HETATM   13  C20 UNL     1      37.533   8.965  14.697  1.00  0.00     0.178 C 
BRANCH  11  14
HETATM   14  O2  UNL     1      38.340   8.018  17.875  1.00  0.00    -0.329 OA
BRANCH  14  15
HETATM   15  C3  UNL     1      37.914   7.054  18.771  1.00  0.00     0.294 C 
HETATM   16  O1  UNL     1      37.307   7.707  19.857  1.00  0.00    -0.351 OA
HETATM   17  C2  UNL     1      36.649   6.702  20.582  1.00  0.00     0.152 C 
HETATM   18  C1  UNL     1      35.738   7.351  21.599  1.00  0.00     0.042 C 
HETATM   19  C23 UNL     1      37.697   5.916  21.308  1.00  0.00     0.178 C 
HETATM   20  C22 UNL     1      38.730   5.321  20.389  1.00  0.00     0.183 C 
HETATM   21  C21 UNL     1      39.055   6.179  19.218  1.00  0.00     0.204 C 
BRANCH  19  22
HETATM   22  O17 UNL     1      38.357   6.786  22.179  1.00  0.00    -0.390 OA
ATOM     23  H17 UNL     1      38.272   6.436  23.058  1.00  0.00     0.210 HD
ENDBRANCH  19  22
BRANCH  20  24
HETATM   24  O16 UNL     1      38.186   4.123  19.898  1.00  0.00    -0.390 OA
ATOM     25  H16 UNL     1      37.423   3.918  20.424  1.00  0.00     0.210 HD
ENDBRANCH  20  24
BRANCH  21  26
HETATM   26  O15 UNL     1      40.117   7.014  19.580  1.00  0.00    -0.388 OA
ATOM     27  H15 UNL     1      40.875   6.465  19.740  1.00  0.00     0.210 HD
ENDBRANCH  21  26
ENDBRANCH  14  15
ENDBRANCH  11  14
ENDBRANCH   8   9
ENDBRANCH   7   8
ENDBRANCH   1   7
BRANCH   6  28
HETATM   28  O13 UNL     1      40.839   4.689  12.836  1.00  0.00    -0.388 OA
ATOM     29  H13 UNL     1      41.595   4.305  12.406  1.00  0.00     0.210 HD
ENDBRANCH   6  28
BRANCH   3  30
HETATM   30  C10 UNL     1      37.184   1.728  12.079  1.00  0.00     0.203 C 
BRANCH  30  31
HETATM   31  O5  UNL     1      36.306   0.809  12.552  1.00  0.00    -0.376 OA
BRANCH  31  32
HETATM   32  C11 UNL     1      36.400  -0.476  12.116  1.00  0.00     0.208 C 
HETATM   33  C12 UNL     1      35.128  -0.983  11.464  1.00  0.00     0.291 C 
HETATM   34  O7  UNL     1      35.525  -2.094  10.718  1.00  0.00    -0.326 OA
HETATM   35  C13 UNL     1      35.845  -3.171  11.539  1.00  0.00     0.297 C 
HETATM   36  O8  UNL     1      34.818  -4.041  11.725  1.00  0.00    -0.334 OA
HETATM   37  C15 UNL     1      36.384  -2.842  12.868  1.00  0.00     0.210 C 
HETATM   38  C14 UNL     1      34.588  -4.112  13.075  1.00  0.00     0.342 C 
HETATM   39  O9  UNL     1      35.266  -3.101  13.711  1.00  0.00    -0.354 OA
HETATM   40  C16 UNL     1      36.814  -1.460  13.156  1.00  0.00     0.185 C 
BRANCH  33  41
HETATM   41  O6  UNL     1      34.661  -0.011  10.607  1.00  0.00    -0.368 OA
ATOM     42  H6  UNL     1      34.010  -0.402  10.035  1.00  0.00     0.212 HD
ENDBRANCH  33  41
BRANCH  40  43
HETATM   43  O10 UNL     1      36.442  -1.035  14.447  1.00  0.00    -0.390 OA
ATOM     44  H10 UNL     1      35.619  -0.559  14.435  1.00  0.00     0.210 HD
ENDBRANCH  40  43
ENDBRANCH  31  32
ENDBRANCH  30  31
ENDBRANCH   3  30
BRANCH   5  45
HETATM   45  O12 UNL     1      40.352   3.236  14.782  1.00  0.00    -0.390 OA
ATOM     46  H12 UNL     1      41.272   3.216  14.545  1.00  0.00     0.210 HD
ENDBRANCH   5  45
BRANCH   4  47
HETATM   47  O11 UNL     1      37.990   1.482  14.656  1.00  0.00    -0.390 OA
ATOM     48  H11 UNL     1      38.385   1.440  15.519  1.00  0.00     0.210 HD
ENDBRANCH   4  47
TORSDOF 16
ENDMDL
MODEL 5
REMARK VINA RESULT: -7.552892493      1.634     11.205
REMARK  16 active torsions:
REMARK  status: ('A' for Active; 'I' for Inactive)
REMARK    1  A    between atoms: C3_4  and  O2_5 
REMARK    2  A    between atoms: O2_5  and  C4_6 
REMARK    3  A    between atoms: C6_8  and  C7_9 
REMARK    4  A    between atoms: C7_9  and  O3_10 
REMARK    5  A    between atoms: O3_10  and  C8_11 
REMARK    6  A    between atoms: C9_13  and  C10_14 
REMARK    7  A    between atoms: C10_14  and  O5_15 
REMARK    8  A    between atoms: O5_15  and  C11_16 
REMARK    9  A    between atoms: C12_17  and  O6_18 
REMARK   10  A    between atoms: C16_26  and  O10_27 
REMARK   11  A    between atoms: C17_29  and  O11_30 
REMARK   12  A    between atoms: C18_32  and  O12_33 
REMARK   13  A    between atoms: C19_35  and  O13_36 
REMARK   14  A    between atoms: C21_40  and  O15_41 
REMARK   15  A    between atoms: C22_43  and  O16_44 
REMARK   16  A    between atoms: C23_46  and  O17_47 
ROOT
HETATM    1  C8  UNL     1      38.098   1.624  13.605  1.00  0.00     0.291 C 
HETATM    2  O4  UNL     1      38.182   0.397  14.188  1.00  0.00    -0.348 OA
HETATM    3  C9  UNL     1      37.980  -0.684  13.356  1.00  0.00     0.179 C 
HETATM    4  C17 UNL     1      37.861  -0.340  11.891  1.00  0.00     0.180 C 
HETATM    5  C18 UNL     1      36.895   0.777  11.634  1.00  0.00     0.183 C 
HETATM    6  C19 UNL     1      36.842   1.747  12.794  1.00  0.00     0.204 C 
ENDROOT
BRANCH   1   7
HETATM    7  O3  UNL     1      39.216   1.911  12.822  1.00  0.00    -0.358 OA
BRANCH   7   8
HETATM    8  C7  UNL     1      40.272   2.399  13.581  1.00  0.00     0.178 C 
BRANCH   8   9
HETATM    9  C6  UNL     1      41.563   1.995  12.943  1.00  0.00     0.038 C 
HETATM   10  C5  UNL     1      42.374   3.167  12.456  1.00  0.00     0.069 C 
HETATM   11  C4  UNL     1      41.988   3.204  10.997  1.00  0.00     0.263 C 
HETATM   12  O14 UNL     1      41.644   1.939  10.616  1.00  0.00    -0.361 OA
HETATM   13  C20 UNL     1      41.403   1.166  11.722  1.00  0.00     0.178 C 
BRANCH  11  14
HETATM   14  O2  UNL     1      42.937   3.803  10.192  1.00  0.00    -0.329 OA
BRANCH  14  15
HETATM   15  C3  UNL     1      42.422   4.801   9.384  1.00  0.00     0.294 C 
HETATM   16  O1  UNL     1      43.243   4.909   8.249  1.00  0.00    -0.351 OA
HETATM   17  C2  UNL     1      42.534   5.715   7.345  1.00  0.00     0.152 C 
HETATM   18  C1  UNL     1      43.212   5.648   5.996  1.00  0.00     0.042 C 
HETATM   19  C23 UNL     1      42.606   7.123   7.851  1.00  0.00     0.178 C 
HETATM   20  C22 UNL     1      42.061   7.279   9.245  1.00  0.00     0.183 C 
HETATM   21  C21 UNL     1      42.325   6.108  10.125  1.00  0.00     0.204 C 
BRANCH  19  22
HETATM   22  O17 UNL     1      43.951   7.499   7.879  1.00  0.00    -0.390 OA
ATOM     23  H17 UNL     1      44.170   7.730   8.774  1.00  0.00     0.210 HD
ENDBRANCH  19  22
BRANCH  20  24
HETATM   24  O16 UNL     1      40.668   7.407   9.118  1.00  0.00    -0.390 OA
ATOM     25  H16 UNL     1      40.462   7.380   8.191  1.00  0.00     0.210 HD
ENDBRANCH  20  24
BRANCH  21  26
HETATM   26  O15 UNL     1      43.546   6.325  10.770  1.00  0.00    -0.388 OA
ATOM     27  H15 UNL     1      43.365   6.760  11.595  1.00  0.00     0.210 HD
ENDBRANCH  21  26
ENDBRANCH  14  15
ENDBRANCH  11  14
ENDBRANCH   8   9
ENDBRANCH   7   8
ENDBRANCH   1   7
BRANCH   6  28
HETATM   28  O13 UNL     1      36.721   3.028  12.232  1.00  0.00    -0.388 OA
ATOM     29  H13 UNL     1      36.883   3.010  11.295  1.00  0.00     0.210 HD
ENDBRANCH   6  28
BRANCH   3  30
HETATM   30  C10 UNL     1      36.738  -1.477  13.782  1.00  0.00     0.203 C 
BRANCH  30  31
HETATM   31  O5  UNL     1      36.898  -2.777  13.429  1.00  0.00    -0.376 OA
BRANCH  31  32
HETATM   32  C11 UNL     1      35.862  -3.640  13.607  1.00  0.00     0.208 C 
HETATM   33  C12 UNL     1      36.281  -5.097  13.567  1.00  0.00     0.291 C 
HETATM   34  O7  UNL     1      35.235  -5.788  14.179  1.00  0.00    -0.326 OA
HETATM   35  C13 UNL     1      34.103  -5.819  13.371  1.00  0.00     0.297 C 
HETATM   36  O8  UNL     1      34.002  -6.943  12.614  1.00  0.00    -0.334 OA
HETATM   37  C15 UNL     1      33.910  -4.670  12.472  1.00  0.00     0.210 C 
HETATM   38  C14 UNL     1      33.945  -6.544  11.303  1.00  0.00     0.342 C 
HETATM   39  O9  UNL     1      34.283  -5.216  11.211  1.00  0.00    -0.354 OA
HETATM   40  C16 UNL     1      34.727  -3.456  12.661  1.00  0.00     0.185 C 
BRANCH  33  41
HETATM   41  O6  UNL     1      37.421  -5.244  14.327  1.00  0.00    -0.368 OA
ATOM     42  H6  UNL     1      38.160  -5.361  13.741  1.00  0.00     0.212 HD
ENDBRANCH  33  41
BRANCH  40  43
HETATM   43  O10 UNL     1      35.156  -2.897  11.440  1.00  0.00    -0.390 OA
ATOM     44  H10 UNL     1      34.531  -3.061  10.743  1.00  0.00     0.210 HD
ENDBRANCH  40  43
ENDBRANCH  31  32
ENDBRANCH  30  31
ENDBRANCH   3  30
BRANCH   5  45
HETATM   45  O12 UNL     1      37.124   1.384  10.424  1.00  0.00    -0.390 OA
ATOM     46  H12 UNL     1      36.493   1.114   9.766  1.00  0.00     0.210 HD
ENDBRANCH   5  45
BRANCH   4  47
HETATM   47  O11 UNL     1      37.417  -1.453  11.158  1.00  0.00    -0.390 OA
ATOM     48  H11 UNL     1      37.908  -1.535  10.348  1.00  0.00     0.210 HD
ENDBRANCH   4  47
TORSDOF 16
ENDMDL
