MODEL 1
REMARK VINA RESULT: -7.338715123      0.000      0.000
REMARK  19 active torsions:
REMARK  status: ('A' for Active; 'I' for Inactive)
REMARK    1  A    between atoms: C2_2  and  O2_4 
REMARK    2  A    between atoms: O2_4  and  C3_5 
REMARK    3  A    between atoms: C4_6  and  O3_7 
REMARK    4  A    between atoms: O3_7  and  C5_8 
REMARK    5  A    between atoms: C5_8  and  C6_10 
REMARK    6  A    between atoms: C6_10  and  C7_11 
REMARK    7  A    between atoms: C11_16  and  O5_17 
REMARK    8  A    between atoms: C12_19  and  O6_20 
REMARK    9  A    between atoms: C13_22  and  O7_23 
REMARK   10  A    between atoms: C14_25  and  O8_26 
REMARK   11  A    between atoms: O8_26  and  C15_27 
REMARK   12  A    between atoms: C17_30  and  C18_31 
REMARK   13  A    between atoms: C17_30  and  O11_34 
REMARK   14  A    between atoms: C18_31  and  O10_32 
REMARK   15  A    between atoms: O11_34  and  C19_35 
REMARK   16  A    between atoms: C21_38  and  O13_39 
REMARK   17  A    between atoms: C22_41  and  O14_42 
REMARK   18  A    between atoms: C23_44  and  O15_45 
REMARK   19  A    between atoms: C24_47  and  O16_48 
ROOT
HETATM    1  C7  UNL     1      35.245  -7.012  12.861  1.00  0.00     0.050 C 
HETATM    2  C8  UNL     1      35.272  -7.432  14.312  1.00  0.00     0.031 C 
HETATM    3  C9  UNL     1      35.024  -8.255  12.024  1.00  0.00     0.031 C 
HETATM    4  C10 UNL     1      34.117  -6.107  12.677  1.00  0.00     0.069 C 
HETATM    5  N1  UNL     1      33.231  -5.379  12.545  1.00  0.00    -0.196 NA
ENDROOT
BRANCH   1   6
HETATM    6  C6  UNL     1      36.546  -6.373  12.439  1.00  0.00     0.135 C 
BRANCH   6   7
HETATM    7  C5  UNL     1      37.043  -5.419  13.471  1.00  0.00     0.261 C 
HETATM    8  O4  UNL     1      37.942  -5.751  14.283  1.00  0.00    -0.265 OA
BRANCH   7   9
HETATM    9  O3  UNL     1      36.525  -4.140  13.563  1.00  0.00    -0.310 OA
BRANCH   9  10
HETATM   10  C4  UNL     1      37.035  -3.148  12.698  1.00  0.00     0.195 C 
HETATM   11  C3  UNL     1      37.825  -2.098  13.435  1.00  0.00     0.195 C 
HETATM   12  C14 UNL     1      38.372  -1.127  12.411  1.00  0.00     0.188 C 
HETATM   13  C13 UNL     1      37.172  -0.340  11.886  1.00  0.00     0.181 C 
HETATM   14  C12 UNL     1      36.278  -1.346  11.173  1.00  0.00     0.180 C 
HETATM   15  C11 UNL     1      35.809  -2.428  12.121  1.00  0.00     0.181 C 
BRANCH  11  16
HETATM   16  O2  UNL     1      38.837  -2.643  14.254  1.00  0.00    -0.311 OA
BRANCH  16  17
HETATM   17  C2  UNL     1      38.917  -2.453  15.616  1.00  0.00     0.255 C 
HETATM   18  C1  UNL     1      38.415  -1.233  16.300  1.00  0.00     0.126 C 
HETATM   19  O1  UNL     1      39.448  -3.377  16.298  1.00  0.00    -0.266 OA
ENDBRANCH  16  17
ENDBRANCH  11  16
BRANCH  12  20
HETATM   20  O8  UNL     1      39.235  -0.263  13.094  1.00  0.00    -0.348 OA
BRANCH  20  21
HETATM   21  C15 UNL     1      38.979   1.074  12.797  1.00  0.00     0.292 C 
HETATM   22  O9  UNL     1      39.974   1.605  12.001  1.00  0.00    -0.355 OA
HETATM   23  C16 UNL     1      40.193   2.904  12.363  1.00  0.00     0.214 C 
HETATM   24  C17 UNL     1      39.290   3.280  13.490  1.00  0.00     0.137 C 
HETATM   25  C24 UNL     1      38.895   1.922  14.035  1.00  0.00     0.212 C 
BRANCH  24  26
HETATM   26  C18 UNL     1      40.007   4.027  14.594  1.00  0.00     0.207 C 
BRANCH  26  27
HETATM   27  O10 UNL     1      39.912   3.344  15.784  1.00  0.00    -0.398 OA
ATOM     28  H10 UNL     1      40.775   3.166  16.139  1.00  0.00     0.209 HD
ENDBRANCH  26  27
ENDBRANCH  24  26
BRANCH  24  29
HETATM   29  O11 UNL     1      38.133   3.924  13.095  1.00  0.00    -0.340 OA
BRANCH  29  30
HETATM   30  C19 UNL     1      38.101   5.253  13.455  1.00  0.00     0.292 C 
HETATM   31  O12 UNL     1      38.243   6.107  12.349  1.00  0.00    -0.356 OA
HETATM   32  C20 UNL     1      38.477   7.382  12.848  1.00  0.00     0.205 C 
HETATM   33  C21 UNL     1      37.309   7.936  13.624  1.00  0.00     0.173 C 
HETATM   34  C22 UNL     1      36.903   6.969  14.714  1.00  0.00     0.182 C 
HETATM   35  C23 UNL     1      36.747   5.598  14.067  1.00  0.00     0.204 C 
BRANCH  33  36
HETATM   36  O13 UNL     1      36.207   8.208  12.851  1.00  0.00    -0.391 OA
ATOM     37  H13 UNL     1      35.668   7.448  12.668  1.00  0.00     0.210 HD
ENDBRANCH  33  36
BRANCH  34  38
HETATM   38  O14 UNL     1      37.872   6.875  15.717  1.00  0.00    -0.390 OA
ATOM     39  H14 UNL     1      37.608   6.283  16.412  1.00  0.00     0.210 HD
ENDBRANCH  34  38
BRANCH  35  40
HETATM   40  O15 UNL     1      35.837   5.727  13.033  1.00  0.00    -0.388 OA
ATOM     41  H15 UNL     1      35.096   5.166  13.228  1.00  0.00     0.210 HD
ENDBRANCH  35  40
ENDBRANCH  29  30
ENDBRANCH  24  29
BRANCH  25  42
HETATM   42  O16 UNL     1      37.619   1.958  14.583  1.00  0.00    -0.387 OA
ATOM     43  H16 UNL     1      37.511   1.356  15.310  1.00  0.00     0.210 HD
ENDBRANCH  25  42
ENDBRANCH  20  21
ENDBRANCH  12  20
BRANCH  13  44
HETATM   44  O7  UNL     1      36.462   0.151  12.962  1.00  0.00    -0.390 OA
ATOM     45  H7  UNL     1      36.772   1.034  13.127  1.00  0.00     0.210 HD
ENDBRANCH  13  44
BRANCH  14  46
HETATM   46  O6  UNL     1      35.158  -0.649  10.735  1.00  0.00    -0.390 OA
ATOM     47  H6  UNL     1      35.106  -0.744   9.791  1.00  0.00     0.210 HD
ENDBRANCH  14  46
BRANCH  15  48
HETATM   48  O5  UNL     1      35.049  -3.326  11.374  1.00  0.00    -0.390 OA
ATOM     49  H5  UNL     1      34.214  -2.930  11.153  1.00  0.00     0.210 HD
ENDBRANCH  15  48
ENDBRANCH   9  10
ENDBRANCH   7   9
ENDBRANCH   6   7
ENDBRANCH   1   6
TORSDOF 19
ENDMDL
MODEL 2
REMARK VINA RESULT: -7.026904371      2.419      3.116
REMARK  19 active torsions:
REMARK  status: ('A' for Active; 'I' for Inactive)
REMARK    1  A    between atoms: C2_2  and  O2_4 
REMARK    2  A    between atoms: O2_4  and  C3_5 
REMARK    3  A    between atoms: C4_6  and  O3_7 
REMARK    4  A    between atoms: O3_7  and  C5_8 
REMARK    5  A    between atoms: C5_8  and  C6_10 
REMARK    6  A    between atoms: C6_10  and  C7_11 
REMARK    7  A    between atoms: C11_16  and  O5_17 
REMARK    8  A    between atoms: C12_19  and  O6_20 
REMARK    9  A    between atoms: C13_22  and  O7_23 
REMARK   10  A    between atoms: C14_25  and  O8_26 
REMARK   11  A    between atoms: O8_26  and  C15_27 
REMARK   12  A    between atoms: C17_30  and  C18_31 
REMARK   13  A    between atoms: C17_30  and  O11_34 
REMARK   14  A    between atoms: C18_31  and  O10_32 
REMARK   15  A    between atoms: O11_34  and  C19_35 
REMARK   16  A    between atoms: C21_38  and  O13_39 
REMARK   17  A    between atoms: C22_41  and  O14_42 
REMARK   18  A    between atoms: C23_44  and  O15_45 
REMARK   19  A    between atoms: C24_47  and  O16_48 
ROOT
HETATM    1  C7  UNL     1      35.172  -5.961  12.821  1.00  0.00     0.050 C 
HETATM    2  C8  UNL     1      35.111  -6.130  14.321  1.00  0.00     0.031 C 
HETATM    3  C9  UNL     1      35.167  -7.343  12.201  1.00  0.00     0.031 C 
HETATM    4  C10 UNL     1      33.974  -5.246  12.401  1.00  0.00     0.069 C 
HETATM    5  N1  UNL     1      33.029  -4.664  12.080  1.00  0.00    -0.196 NA
ENDROOT
BRANCH   1   6
HETATM    6  C6  UNL     1      36.429  -5.246  12.389  1.00  0.00     0.135 C 
BRANCH   6   7
HETATM    7  C5  UNL     1      36.916  -4.315  13.447  1.00  0.00     0.261 C 
HETATM    8  O4  UNL     1      37.809  -4.663  14.258  1.00  0.00    -0.265 OA
BRANCH   7   9
HETATM    9  O3  UNL     1      36.394  -3.039  13.564  1.00  0.00    -0.310 OA
BRANCH   9  10
HETATM   10  C4  UNL     1      36.913  -2.025  12.732  1.00  0.00     0.195 C 
HETATM   11  C3  UNL     1      37.520  -0.893  13.519  1.00  0.00     0.195 C 
HETATM   12  C14 UNL     1      38.096   0.100  12.534  1.00  0.00     0.188 C 
HETATM   13  C13 UNL     1      36.901   0.766  11.852  1.00  0.00     0.181 C 
HETATM   14  C12 UNL     1      36.184  -0.330  11.075  1.00  0.00     0.180 C 
HETATM   15  C11 UNL     1      35.703  -1.429  11.997  1.00  0.00     0.181 C 
BRANCH  11  16
HETATM   16  O2  UNL     1      38.475  -1.329  14.463  1.00  0.00    -0.311 OA
BRANCH  16  17
HETATM   17  C2  UNL     1      38.408  -1.059  15.813  1.00  0.00     0.255 C 
HETATM   18  C1  UNL     1      39.207  -1.789  16.831  1.00  0.00     0.126 C 
HETATM   19  O1  UNL     1      37.620  -0.141  16.180  1.00  0.00    -0.266 OA
ENDBRANCH  16  17
ENDBRANCH  11  16
BRANCH  12  20
HETATM   20  O8  UNL     1      38.797   1.052  13.281  1.00  0.00    -0.348 OA
BRANCH  20  21
HETATM   21  C15 UNL     1      39.491   1.947  12.470  1.00  0.00     0.292 C 
HETATM   22  O9  UNL     1      40.839   1.650  12.442  1.00  0.00    -0.355 OA
HETATM   23  C16 UNL     1      41.553   2.814  12.398  1.00  0.00     0.214 C 
HETATM   24  C17 UNL     1      40.627   3.984  12.407  1.00  0.00     0.137 C 
HETATM   25  C24 UNL     1      39.354   3.366  12.948  1.00  0.00     0.212 C 
BRANCH  24  26
HETATM   26  C18 UNL     1      41.058   5.068  13.370  1.00  0.00     0.207 C 
BRANCH  26  27
HETATM   27  O10 UNL     1      40.028   5.401  14.218  1.00  0.00    -0.398 OA
ATOM     28  H10 UNL     1      40.357   5.865  14.980  1.00  0.00     0.209 HD
ENDBRANCH  26  27
ENDBRANCH  24  26
BRANCH  24  29
HETATM   29  O11 UNL     1      40.345   4.488  11.151  1.00  0.00    -0.340 OA
BRANCH  29  30
HETATM   30  C19 UNL     1      41.165   5.533  10.788  1.00  0.00     0.292 C 
HETATM   31  O12 UNL     1      42.101   5.159   9.809  1.00  0.00    -0.356 OA
HETATM   32  C20 UNL     1      43.035   6.183   9.729  1.00  0.00     0.205 C 
HETATM   33  C21 UNL     1      42.448   7.481   9.235  1.00  0.00     0.173 C 
HETATM   34  C22 UNL     1      41.257   7.869  10.083  1.00  0.00     0.182 C 
HETATM   35  C23 UNL     1      40.342   6.653  10.160  1.00  0.00     0.204 C 
BRANCH  33  36
HETATM   36  O13 UNL     1      42.054   7.448   7.919  1.00  0.00    -0.391 OA
ATOM     37  H13 UNL     1      41.326   8.025   7.721  1.00  0.00     0.210 HD
ENDBRANCH  33  36
BRANCH  34  38
HETATM   38  O14 UNL     1      41.633   8.221  11.382  1.00  0.00    -0.390 OA
ATOM     39  H14 UNL     1      42.417   7.764  11.662  1.00  0.00     0.210 HD
ENDBRANCH  34  38
BRANCH  35  40
HETATM   40  O15 UNL     1      40.038   6.278   8.864  1.00  0.00    -0.388 OA
ATOM     41  H15 UNL     1      40.763   6.541   8.310  1.00  0.00     0.210 HD
ENDBRANCH  35  40
ENDBRANCH  29  30
ENDBRANCH  24  29
BRANCH  25  42
HETATM   42  O16 UNL     1      38.232   4.005  12.436  1.00  0.00    -0.387 OA
ATOM     43  H16 UNL     1      38.148   3.910  11.495  1.00  0.00     0.210 HD
ENDBRANCH  25  42
ENDBRANCH  20  21
ENDBRANCH  12  20
BRANCH  13  44
HETATM   44  O7  UNL     1      36.033   1.215  12.826  1.00  0.00    -0.390 OA
ATOM     45  H7  UNL     1      36.015   0.560  13.514  1.00  0.00     0.210 HD
ENDBRANCH  13  44
BRANCH  14  46
HETATM   46  O6  UNL     1      35.066   0.256  10.493  1.00  0.00    -0.390 OA
ATOM     47  H6  UNL     1      34.656   0.811  11.146  1.00  0.00     0.210 HD
ENDBRANCH  14  46
BRANCH  15  48
HETATM   48  O5  UNL     1      35.114  -2.406  11.198  1.00  0.00    -0.390 OA
ATOM     49  H5  UNL     1      34.680  -3.049  11.748  1.00  0.00     0.210 HD
ENDBRANCH  15  48
ENDBRANCH   9  10
ENDBRANCH   7   9
ENDBRANCH   6   7
ENDBRANCH   1   6
TORSDOF 19
ENDMDL
MODEL 3
REMARK VINA RESULT: -6.871195310      1.679      2.085
REMARK  19 active torsions:
REMARK  status: ('A' for Active; 'I' for Inactive)
REMARK    1  A    between atoms: C2_2  and  O2_4 
REMARK    2  A    between atoms: O2_4  and  C3_5 
REMARK    3  A    between atoms: C4_6  and  O3_7 
REMARK    4  A    between atoms: O3_7  and  C5_8 
REMARK    5  A    between atoms: C5_8  and  C6_10 
REMARK    6  A    between atoms: C6_10  and  C7_11 
REMARK    7  A    between atoms: C11_16  and  O5_17 
REMARK    8  A    between atoms: C12_19  and  O6_20 
REMARK    9  A    between atoms: C13_22  and  O7_23 
REMARK   10  A    between atoms: C14_25  and  O8_26 
REMARK   11  A    between atoms: O8_26  and  C15_27 
REMARK   12  A    between atoms: C17_30  and  C18_31 
REMARK   13  A    between atoms: C17_30  and  O11_34 
REMARK   14  A    between atoms: C18_31  and  O10_32 
REMARK   15  A    between atoms: O11_34  and  C19_35 
REMARK   16  A    between atoms: C21_38  and  O13_39 
REMARK   17  A    between atoms: C22_41  and  O14_42 
REMARK   18  A    between atoms: C23_44  and  O15_45 
REMARK   19  A    between atoms: C24_47  and  O16_48 
ROOT
HETATM    1  C7  UNL     1      39.271  -7.053  13.138  1.00  0.00     0.050 C 
HETATM    2  C8  UNL     1      38.518  -6.839  14.430  1.00  0.00     0.031 C 
HETATM    3  C9  UNL     1      40.738  -6.792  13.411  1.00  0.00     0.031 C 
HETATM    4  C10 UNL     1      39.101  -8.446  12.744  1.00  0.00     0.069 C 
HETATM    5  N1  UNL     1      38.946  -9.547  12.433  1.00  0.00    -0.196 NA
ENDROOT
BRANCH   1   6
HETATM    6  C6  UNL     1      38.808  -6.107  12.057  1.00  0.00     0.135 C 
BRANCH   6   7
HETATM    7  C5  UNL     1      37.363  -5.774  12.209  1.00  0.00     0.261 C 
HETATM    8  O4  UNL     1      36.470  -6.542  11.775  1.00  0.00    -0.265 OA
BRANCH   7   9
HETATM    9  O3  UNL     1      36.967  -4.605  12.832  1.00  0.00    -0.310 OA
BRANCH   9  10
HETATM   10  C4  UNL     1      37.225  -3.378  12.183  1.00  0.00     0.195 C 
HETATM   11  C3  UNL     1      37.941  -2.398  13.075  1.00  0.00     0.195 C 
HETATM   12  C14 UNL     1      38.219  -1.151  12.264  1.00  0.00     0.188 C 
HETATM   13  C13 UNL     1      36.866  -0.478  12.038  1.00  0.00     0.181 C 
HETATM   14  C12 UNL     1      36.045  -1.439  11.187  1.00  0.00     0.180 C 
HETATM   15  C11 UNL     1      35.849  -2.763  11.894  1.00  0.00     0.181 C 
BRANCH  11  16
HETATM   16  O2  UNL     1      39.110  -2.933  13.657  1.00  0.00    -0.311 OA
BRANCH  16  17
HETATM   17  C2  UNL     1      39.298  -3.090  15.013  1.00  0.00     0.255 C 
HETATM   18  C1  UNL     1      40.516  -3.705  15.601  1.00  0.00     0.126 C 
HETATM   19  O1  UNL     1      38.374  -2.684  15.775  1.00  0.00    -0.266 OA
ENDBRANCH  16  17
ENDBRANCH  11  16
BRANCH  12  20
HETATM   20  O8  UNL     1      39.026  -0.326  13.053  1.00  0.00    -0.348 OA
BRANCH  20  21
HETATM   21  C15 UNL     1      38.896   1.017  12.708  1.00  0.00     0.292 C 
HETATM   22  O9  UNL     1      39.989   1.452  11.985  1.00  0.00    -0.355 OA
HETATM   23  C16 UNL     1      40.275   2.741  12.337  1.00  0.00     0.214 C 
HETATM   24  C17 UNL     1      39.316   3.212  13.378  1.00  0.00     0.137 C 
HETATM   25  C24 UNL     1      38.777   1.903  13.917  1.00  0.00     0.212 C 
BRANCH  24  26
HETATM   26  C18 UNL     1      39.997   3.935  14.520  1.00  0.00     0.207 C 
BRANCH  26  27
HETATM   27  O10 UNL     1      39.728   3.312  15.717  1.00  0.00    -0.398 OA
ATOM     28  H10 UNL     1      39.425   2.423  15.572  1.00  0.00     0.209 HD
ENDBRANCH  26  27
ENDBRANCH  24  26
BRANCH  24  29
HETATM   29  O11 UNL     1      38.246   3.929  12.876  1.00  0.00    -0.340 OA
BRANCH  29  30
HETATM   30  C19 UNL     1      38.220   5.238  13.303  1.00  0.00     0.292 C 
HETATM   31  O12 UNL     1      38.339   6.148  12.240  1.00  0.00    -0.356 OA
HETATM   32  C20 UNL     1      38.581   7.395  12.798  1.00  0.00     0.205 C 
HETATM   33  C21 UNL     1      37.429   7.907  13.625  1.00  0.00     0.173 C 
HETATM   34  C22 UNL     1      37.047   6.884  14.673  1.00  0.00     0.182 C 
HETATM   35  C23 UNL     1      36.878   5.548  13.959  1.00  0.00     0.204 C 
BRANCH  33  36
HETATM   36  O13 UNL     1      36.311   8.216  12.889  1.00  0.00    -0.391 OA
ATOM     37  H13 UNL     1      35.653   7.530  12.883  1.00  0.00     0.210 HD
ENDBRANCH  33  36
BRANCH  34  38
HETATM   38  O14 UNL     1      38.035   6.742  15.649  1.00  0.00    -0.390 OA
ATOM     39  H14 UNL     1      37.693   6.358  16.448  1.00  0.00     0.210 HD
ENDBRANCH  34  38
BRANCH  35  40
HETATM   40  O15 UNL     1      35.948   5.728  12.952  1.00  0.00    -0.388 OA
ATOM     41  H15 UNL     1      35.625   4.871  12.700  1.00  0.00     0.210 HD
ENDBRANCH  35  40
ENDBRANCH  29  30
ENDBRANCH  24  29
BRANCH  25  42
HETATM   42  O16 UNL     1      37.468   2.047  14.358  1.00  0.00    -0.387 OA
ATOM     43  H16 UNL     1      37.284   1.547  15.145  1.00  0.00     0.210 HD
ENDBRANCH  25  42
ENDBRANCH  20  21
ENDBRANCH  12  20
BRANCH  13  44
HETATM   44  O7  UNL     1      36.227  -0.356  13.254  1.00  0.00    -0.390 OA
ATOM     45  H7  UNL     1      36.812   0.115  13.836  1.00  0.00     0.210 HD
ENDBRANCH  13  44
BRANCH  14  46
HETATM   46  O6  UNL     1      34.793  -0.857  11.020  1.00  0.00    -0.390 OA
ATOM     47  H6  UNL     1      34.266  -1.449  10.495  1.00  0.00     0.210 HD
ENDBRANCH  14  46
BRANCH  15  48
HETATM   48  O5  UNL     1      35.140  -3.590  11.025  1.00  0.00    -0.390 OA
ATOM     49  H5  UNL     1      34.692  -4.264  11.521  1.00  0.00     0.210 HD
ENDBRANCH  15  48
ENDBRANCH   9  10
ENDBRANCH   7   9
ENDBRANCH   6   7
ENDBRANCH   1   6
TORSDOF 19
ENDMDL
MODEL 4
REMARK VINA RESULT: -6.827034414      1.895      2.457
REMARK  19 active torsions:
REMARK  status: ('A' for Active; 'I' for Inactive)
REMARK    1  A    between atoms: C2_2  and  O2_4 
REMARK    2  A    between atoms: O2_4  and  C3_5 
REMARK    3  A    between atoms: C4_6  and  O3_7 
REMARK    4  A    between atoms: O3_7  and  C5_8 
REMARK    5  A    between atoms: C5_8  and  C6_10 
REMARK    6  A    between atoms: C6_10  and  C7_11 
REMARK    7  A    between atoms: C11_16  and  O5_17 
REMARK    8  A    between atoms: C12_19  and  O6_20 
REMARK    9  A    between atoms: C13_22  and  O7_23 
REMARK   10  A    between atoms: C14_25  and  O8_26 
REMARK   11  A    between atoms: O8_26  and  C15_27 
REMARK   12  A    between atoms: C17_30  and  C18_31 
REMARK   13  A    between atoms: C17_30  and  O11_34 
REMARK   14  A    between atoms: C18_31  and  O10_32 
REMARK   15  A    between atoms: O11_34  and  C19_35 
REMARK   16  A    between atoms: C21_38  and  O13_39 
REMARK   17  A    between atoms: C22_41  and  O14_42 
REMARK   18  A    between atoms: C23_44  and  O15_45 
REMARK   19  A    between atoms: C24_47  and  O16_48 
ROOT
HETATM    1  C7  UNL     1      35.306  -6.550  12.777  1.00  0.00     0.050 C 
HETATM    2  C8  UNL     1      35.366  -6.993  14.219  1.00  0.00     0.031 C 
HETATM    3  C9  UNL     1      35.147  -7.789  11.920  1.00  0.00     0.031 C 
HETATM    4  C10 UNL     1      34.128  -5.706  12.615  1.00  0.00     0.069 C 
HETATM    5  N1  UNL     1      33.203  -5.025  12.501  1.00  0.00    -0.196 NA
ENDROOT
BRANCH   1   6
HETATM    6  C6  UNL     1      36.567  -5.834  12.357  1.00  0.00     0.135 C 
BRANCH   6   7
HETATM    7  C5  UNL     1      37.040  -4.900  13.419  1.00  0.00     0.261 C 
HETATM    8  O4  UNL     1      37.942  -5.236  14.225  1.00  0.00    -0.265 OA
BRANCH   7   9
HETATM    9  O3  UNL     1      36.495  -3.635  13.544  1.00  0.00    -0.310 OA
BRANCH   9  10
HETATM   10  C4  UNL     1      36.991  -2.608  12.714  1.00  0.00     0.195 C 
HETATM   11  C3  UNL     1      37.710  -1.538  13.493  1.00  0.00     0.195 C 
HETATM   12  C14 UNL     1      38.249  -0.528  12.504  1.00  0.00     0.188 C 
HETATM   13  C13 UNL     1      37.035   0.217  11.951  1.00  0.00     0.181 C 
HETATM   14  C12 UNL     1      36.208  -0.813  11.192  1.00  0.00     0.180 C 
HETATM   15  C11 UNL     1      35.754  -1.930  12.106  1.00  0.00     0.181 C 
BRANCH  11  16
HETATM   16  O2  UNL     1      38.717  -2.055  14.337  1.00  0.00    -0.311 OA
BRANCH  16  17
HETATM   17  C2  UNL     1      38.711  -1.940  15.710  1.00  0.00     0.255 C 
HETATM   18  C1  UNL     1      38.152  -0.765  16.427  1.00  0.00     0.126 C 
HETATM   19  O1  UNL     1      39.212  -2.894  16.372  1.00  0.00    -0.266 OA
ENDBRANCH  16  17
ENDBRANCH  11  16
BRANCH  12  20
HETATM   20  O8  UNL     1      39.051   0.360  13.229  1.00  0.00    -0.348 OA
BRANCH  20  21
HETATM   21  C15 UNL     1      39.425   1.466  12.470  1.00  0.00     0.292 C 
HETATM   22  O9  UNL     1      40.410   1.135  11.560  1.00  0.00    -0.355 OA
HETATM   23  C16 UNL     1      41.281   2.180  11.442  1.00  0.00     0.214 C 
HETATM   24  C17 UNL     1      40.866   3.297  12.340  1.00  0.00     0.137 C 
HETATM   25  C24 UNL     1      39.961   2.582  13.323  1.00  0.00     0.212 C 
BRANCH  24  26
HETATM   26  C18 UNL     1      42.021   3.883  13.122  1.00  0.00     0.207 C 
BRANCH  26  27
HETATM   27  O10 UNL     1      41.869   3.643  14.467  1.00  0.00    -0.398 OA
ATOM     28  H10 UNL     1      41.012   3.927  14.764  1.00  0.00     0.209 HD
ENDBRANCH  26  27
ENDBRANCH  24  26
BRANCH  24  29
HETATM   29  O11 UNL     1      40.114   4.274  11.715  1.00  0.00    -0.340 OA
BRANCH  29  30
HETATM   30  C19 UNL     1      40.869   5.331  11.257  1.00  0.00     0.292 C 
HETATM   31  O12 UNL     1      40.700   5.548   9.879  1.00  0.00    -0.356 OA
HETATM   32  C20 UNL     1      41.697   6.429   9.482  1.00  0.00     0.205 C 
HETATM   33  C21 UNL     1      41.567   7.792  10.114  1.00  0.00     0.173 C 
HETATM   34  C22 UNL     1      41.495   7.663  11.619  1.00  0.00     0.182 C 
HETATM   35  C23 UNL     1      40.424   6.624  11.933  1.00  0.00     0.204 C 
BRANCH  33  36
HETATM   36  O13 UNL     1      40.472   8.501   9.683  1.00  0.00    -0.391 OA
ATOM     37  H13 UNL     1      40.400   9.368  10.066  1.00  0.00     0.210 HD
ENDBRANCH  33  36
BRANCH  34  38
HETATM   38  O14 UNL     1      42.705   7.229  12.166  1.00  0.00    -0.390 OA
ATOM     39  H14 UNL     1      43.209   7.948  12.528  1.00  0.00     0.210 HD
ENDBRANCH  34  38
BRANCH  35  40
HETATM   40  O15 UNL     1      39.253   7.036  11.325  1.00  0.00    -0.388 OA
ATOM     41  H15 UNL     1      39.369   7.940  11.055  1.00  0.00     0.210 HD
ENDBRANCH  35  40
ENDBRANCH  29  30
ENDBRANCH  24  29
BRANCH  25  42
HETATM   42  O16 UNL     1      38.967   3.431  13.793  1.00  0.00    -0.387 OA
ATOM     43  H16 UNL     1      38.811   4.173  13.221  1.00  0.00     0.210 HD
ENDBRANCH  25  42
ENDBRANCH  20  21
ENDBRANCH  12  20
BRANCH  13  44
HETATM   44  O7  UNL     1      36.270   0.659  13.010  1.00  0.00    -0.390 OA
ATOM     45  H7  UNL     1      36.700   0.376  13.809  1.00  0.00     0.210 HD
ENDBRANCH  13  44
BRANCH  14  46
HETATM   46  O6  UNL     1      35.074  -0.156  10.729  1.00  0.00    -0.390 OA
ATOM     47  H6  UNL     1      34.895   0.567  11.319  1.00  0.00     0.210 HD
ENDBRANCH  14  46
BRANCH  15  48
HETATM   48  O5  UNL     1      35.058  -2.846  11.320  1.00  0.00    -0.390 OA
ATOM     49  H5  UNL     1      35.662  -3.490  10.970  1.00  0.00     0.210 HD
ENDBRANCH  15  48
ENDBRANCH   9  10
ENDBRANCH   7   9
ENDBRANCH   6   7
ENDBRANCH   1   6
TORSDOF 19
ENDMDL
MODEL 5
REMARK VINA RESULT: -6.820657652      3.998      6.270
REMARK  19 active torsions:
REMARK  status: ('A' for Active; 'I' for Inactive)
REMARK    1  A    between atoms: C2_2  and  O2_4 
REMARK    2  A    between atoms: O2_4  and  C3_5 
REMARK    3  A    between atoms: C4_6  and  O3_7 
REMARK    4  A    between atoms: O3_7  and  C5_8 
REMARK    5  A    between atoms: C5_8  and  C6_10 
REMARK    6  A    between atoms: C6_10  and  C7_11 
REMARK    7  A    between atoms: C11_16  and  O5_17 
REMARK    8  A    between atoms: C12_19  and  O6_20 
REMARK    9  A    between atoms: C13_22  and  O7_23 
REMARK   10  A    between atoms: C14_25  and  O8_26 
REMARK   11  A    between atoms: O8_26  and  C15_27 
REMARK   12  A    between atoms: C17_30  and  C18_31 
REMARK   13  A    between atoms: C17_30  and  O11_34 
REMARK   14  A    between atoms: C18_31  and  O10_32 
REMARK   15  A    between atoms: O11_34  and  C19_35 
REMARK   16  A    between atoms: C21_38  and  O13_39 
REMARK   17  A    between atoms: C22_41  and  O14_42 
REMARK   18  A    between atoms: C23_44  and  O15_45 
REMARK   19  A    between atoms: C24_47  and  O16_48 
ROOT
HETATM    1  C7  UNL     1      36.903  -2.251  12.585  1.00  0.00     0.050 C 
HETATM    2  C8  UNL     1      36.537  -1.774  13.971  1.00  0.00     0.031 C 
HETATM    3  C9  UNL     1      38.060  -3.220  12.722  1.00  0.00     0.031 C 
HETATM    4  C10 UNL     1      35.753  -2.959  12.036  1.00  0.00     0.069 C 
HETATM    5  N1  UNL     1      34.831  -3.503  11.604  1.00  0.00    -0.196 NA
ENDROOT
BRANCH   1   6
HETATM    6  C6  UNL     1      37.333  -1.111  11.695  1.00  0.00     0.135 C 
BRANCH   6   7
HETATM    7  C5  UNL     1      36.757   0.185  12.155  1.00  0.00     0.261 C 
HETATM    8  O4  UNL     1      35.629   0.571  11.761  1.00  0.00    -0.265 OA
BRANCH   7   9
HETATM    9  O3  UNL     1      37.452   0.998  13.031  1.00  0.00    -0.310 OA
BRANCH   9  10
HETATM   10  C4  UNL     1      37.854   2.275  12.583  1.00  0.00     0.195 C 
HETATM   11  C3  UNL     1      39.339   2.488  12.719  1.00  0.00     0.195 C 
HETATM   12  C14 UNL     1      39.664   3.855  12.157  1.00  0.00     0.188 C 
HETATM   13  C13 UNL     1      39.085   4.870  13.141  1.00  0.00     0.181 C 
HETATM   14  C12 UNL     1      37.574   4.680  13.115  1.00  0.00     0.180 C 
HETATM   15  C11 UNL     1      37.192   3.279  13.538  1.00  0.00     0.181 C 
BRANCH  11  16
HETATM   16  O2  UNL     1      40.100   1.464  12.116  1.00  0.00    -0.311 OA
BRANCH  16  17
HETATM   17  C2  UNL     1      40.798   0.504  12.817  1.00  0.00     0.255 C 
HETATM   18  C1  UNL     1      41.017  -0.876  12.311  1.00  0.00     0.126 C 
HETATM   19  O1  UNL     1      41.265   0.837  13.944  1.00  0.00    -0.266 OA
ENDBRANCH  16  17
ENDBRANCH  11  16
BRANCH  12  20
HETATM   20  O8  UNL     1      41.058   3.964  12.138  1.00  0.00    -0.348 OA
BRANCH  20  21
HETATM   21  C15 UNL     1      41.515   4.637  11.008  1.00  0.00     0.292 C 
HETATM   22  O9  UNL     1      42.884   4.814  11.054  1.00  0.00    -0.355 OA
HETATM   23  C16 UNL     1      43.198   6.028  10.513  1.00  0.00     0.214 C 
HETATM   24  C17 UNL     1      41.956   6.731  10.078  1.00  0.00     0.137 C 
HETATM   25  C24 UNL     1      40.892   5.999  10.870  1.00  0.00     0.212 C 
BRANCH  24  26
HETATM   26  C18 UNL     1      41.924   8.184  10.499  1.00  0.00     0.207 C 
BRANCH  26  27
HETATM   27  O10 UNL     1      41.107   8.355  11.591  1.00  0.00    -0.398 OA
ATOM     28  H10 UNL     1      40.251   8.672  11.323  1.00  0.00     0.209 HD
ENDBRANCH  26  27
ENDBRANCH  24  26
BRANCH  24  29
HETATM   29  O11 UNL     1      41.660   6.574   8.736  1.00  0.00    -0.340 OA
BRANCH  29  30
HETATM   30  C19 UNL     1      41.511   7.769   8.069  1.00  0.00     0.292 C 
HETATM   31  O12 UNL     1      42.699   8.180   7.442  1.00  0.00    -0.356 OA
HETATM   32  C20 UNL     1      42.516   9.500   7.051  1.00  0.00     0.205 C 
HETATM   33  C21 UNL     1      41.443   9.662   6.004  1.00  0.00     0.173 C 
HETATM   34  C22 UNL     1      40.153   9.030   6.478  1.00  0.00     0.182 C 
HETATM   35  C23 UNL     1      40.487   7.619   6.948  1.00  0.00     0.204 C 
BRANCH  33  36
HETATM   36  O13 UNL     1      41.771   9.121   4.784  1.00  0.00    -0.391 OA
ATOM     37  H13 UNL     1      41.280   9.486   4.058  1.00  0.00     0.210 HD
ENDBRANCH  33  36
BRANCH  34  38
HETATM   38  O14 UNL     1      39.591   9.729   7.549  1.00  0.00    -0.390 OA
ATOM     39  H14 UNL     1      38.748   9.372   7.803  1.00  0.00     0.210 HD
ENDBRANCH  34  38
BRANCH  35  40
HETATM   40  O15 UNL     1      41.105   6.966   5.897  1.00  0.00    -0.388 OA
ATOM     41  H15 UNL     1      40.645   6.147   5.754  1.00  0.00     0.210 HD
ENDBRANCH  35  40
ENDBRANCH  29  30
ENDBRANCH  24  29
BRANCH  25  42
HETATM   42  O16 UNL     1      39.685   5.977  10.183  1.00  0.00    -0.387 OA
ATOM     43  H16 UNL     1      39.511   6.784   9.714  1.00  0.00     0.210 HD
ENDBRANCH  25  42
ENDBRANCH  20  21
ENDBRANCH  12  20
BRANCH  13  44
HETATM   44  O7  UNL     1      39.519   4.548  14.410  1.00  0.00    -0.390 OA
ATOM     45  H7  UNL     1      39.503   5.346  14.927  1.00  0.00     0.210 HD
ENDBRANCH  13  44
BRANCH  14  46
HETATM   46  O6  UNL     1      37.042   5.565  14.047  1.00  0.00    -0.390 OA
ATOM     47  H6  UNL     1      36.576   6.242  13.571  1.00  0.00     0.210 HD
ENDBRANCH  14  46
BRANCH  15  48
HETATM   48  O5  UNL     1      35.807   3.182  13.432  1.00  0.00    -0.390 OA
ATOM     49  H5  UNL     1      35.405   3.426  14.257  1.00  0.00     0.210 HD
ENDBRANCH  15  48
ENDBRANCH   9  10
ENDBRANCH   7   9
ENDBRANCH   6   7
ENDBRANCH   1   6
TORSDOF 19
ENDMDL
