MODEL 1
REMARK VINA RESULT: -5.035784501      0.000      0.000
REMARK  5 active torsions:
REMARK  status: ('A' for Active; 'I' for Inactive)
REMARK    1  A    between atoms: N1_2  and  C2_4 
REMARK    2  A    between atoms: N2_7  and  C5_8 
REMARK    3  A    between atoms: C5_8  and  C6_9 
REMARK    4  A    between atoms: C6_9  and  C7_10 
REMARK    5  A    between atoms: C13_16  and  N3_17 
ROOT
HETATM    1  C7  UNL     1     -39.468  16.880  15.142  1.00  0.00     0.051 C 
HETATM    2  C8  UNL     1     -38.823  16.632  13.788  1.00  0.00    -0.023 C 
HETATM    3  C9  UNL     1     -38.101  15.438  13.474  1.00  0.00    -0.029 C 
HETATM    4  C10 UNL     1     -36.611  15.254  13.699  1.00  0.00     0.038 C 
HETATM    5  C11 UNL     1     -36.214  15.473  15.202  1.00  0.00     0.086 C 
HETATM    6  C12 UNL     1     -37.303  16.145  15.786  1.00  0.00    -0.150 C 
HETATM    7  C13 UNL     1     -38.430  16.802  16.308  1.00  0.00     0.257 C 
ENDROOT
BRANCH   1   8
HETATM    8  C6  UNL     1     -40.194  18.166  15.141  1.00  0.00     0.041 C 
BRANCH   8   9
HETATM    9  C5  UNL     1     -41.649  18.103  14.875  1.00  0.00     0.273 C 
BRANCH   9  10
HETATM   10  N2  UNL     1     -42.380  18.644  16.005  1.00  0.00     0.090 N 
HETATM   11  C4  UNL     1     -43.768  18.800  15.709  1.00  0.00     0.274 C 
HETATM   12  C3  UNL     1     -44.577  18.114  16.758  1.00  0.00     0.056 C 
HETATM   13  C2  UNL     1     -43.582  17.900  17.905  1.00  0.00     0.106 C 
HETATM   14  C14 UNL     1     -42.243  17.856  17.200  1.00  0.00     0.296 C 
BRANCH  13  15
HETATM   15  N1  UNL     1     -43.725  19.006  18.796  1.00  0.00    -0.419 N 
HETATM   16  C1  UNL     1     -45.048  19.220  19.286  1.00  0.00     0.140 C 
ATOM     17  H1  UNL     1     -42.939  19.600  19.063  1.00  0.00     0.153 HD
ENDBRANCH  13  15
ENDBRANCH   9  10
ENDBRANCH   8   9
ENDBRANCH   1   8
BRANCH   7  18
HETATM   18  N3  UNL     1     -39.052  16.117  17.442  1.00  0.00    -0.065 N 
ATOM     19  H33 UNL     1     -39.753  15.436  17.151  1.00  0.00     0.275 HD
ATOM     20  H32 UNL     1     -38.414  15.471  17.907  1.00  0.00     0.275 HD
ATOM     21  H31 UNL     1     -39.430  16.819  18.078  1.00  0.00     0.275 HD
ENDBRANCH   7  18
TORSDOF 5
ENDMDL
MODEL 2
REMARK VINA RESULT: -5.016247680      1.580      2.088
REMARK  5 active torsions:
REMARK  status: ('A' for Active; 'I' for Inactive)
REMARK    1  A    between atoms: N1_2  and  C2_4 
REMARK    2  A    between atoms: N2_7  and  C5_8 
REMARK    3  A    between atoms: C5_8  and  C6_9 
REMARK    4  A    between atoms: C6_9  and  C7_10 
REMARK    5  A    between atoms: C13_16  and  N3_17 
ROOT
HETATM    1  C7  UNL     1     -39.390  14.760  16.104  1.00  0.00     0.051 C 
HETATM    2  C8  UNL     1     -39.303  15.072  14.618  1.00  0.00    -0.023 C 
HETATM    3  C9  UNL     1     -38.248  14.596  13.780  1.00  0.00    -0.029 C 
HETATM    4  C10 UNL     1     -36.944  15.336  13.539  1.00  0.00     0.038 C 
HETATM    5  C11 UNL     1     -36.176  15.622  14.878  1.00  0.00     0.086 C 
HETATM    6  C12 UNL     1     -37.123  15.440  15.903  1.00  0.00    -0.150 C 
HETATM    7  C13 UNL     1     -38.114  15.230  16.876  1.00  0.00     0.257 C 
ENDROOT
BRANCH   1   8
HETATM    8  C6  UNL     1     -40.621  15.335  16.682  1.00  0.00     0.041 C 
BRANCH   8   9
HETATM    9  C5  UNL     1     -41.539  16.013  15.739  1.00  0.00     0.273 C 
BRANCH   9  10
HETATM   10  N2  UNL     1     -41.703  17.402  16.125  1.00  0.00     0.090 N 
HETATM   11  C4  UNL     1     -41.098  18.287  15.181  1.00  0.00     0.274 C 
HETATM   12  C3  UNL     1     -42.100  19.302  14.743  1.00  0.00     0.056 C 
HETATM   13  C2  UNL     1     -43.206  19.203  15.801  1.00  0.00     0.106 C 
HETATM   14  C14 UNL     1     -43.078  17.782  16.307  1.00  0.00     0.296 C 
BRANCH  13  15
HETATM   15  N1  UNL     1     -42.927  20.192  16.793  1.00  0.00    -0.419 N 
HETATM   16  C1  UNL     1     -43.420  19.895  18.098  1.00  0.00     0.140 C 
ATOM     17  H1  UNL     1     -42.414  21.049  16.583  1.00  0.00     0.153 HD
ENDBRANCH  13  15
ENDBRANCH   9  10
ENDBRANCH   8   9
ENDBRANCH   1   8
BRANCH   7  18
HETATM   18  N3  UNL     1     -37.771  14.213  17.871  1.00  0.00    -0.065 N 
ATOM     19  H33 UNL     1     -38.564  13.620  18.114  1.00  0.00     0.275 HD
ATOM     20  H32 UNL     1     -37.162  13.486  17.495  1.00  0.00     0.275 HD
ATOM     21  H31 UNL     1     -37.368  14.678  18.685  1.00  0.00     0.275 HD
ENDBRANCH   7  18
TORSDOF 5
ENDMDL
MODEL 3
REMARK VINA RESULT: -4.954433367      1.860      2.779
REMARK  5 active torsions:
REMARK  status: ('A' for Active; 'I' for Inactive)
REMARK    1  A    between atoms: N1_2  and  C2_4 
REMARK    2  A    between atoms: N2_7  and  C5_8 
REMARK    3  A    between atoms: C5_8  and  C6_9 
REMARK    4  A    between atoms: C6_9  and  C7_10 
REMARK    5  A    between atoms: C13_16  and  N3_17 
ROOT
HETATM    1  C7  UNL     1     -39.296  14.310  15.945  1.00  0.00     0.051 C 
HETATM    2  C8  UNL     1     -39.166  14.642  14.467  1.00  0.00    -0.023 C 
HETATM    3  C9  UNL     1     -37.968  14.421  13.719  1.00  0.00    -0.029 C 
HETATM    4  C10 UNL     1     -36.849  15.437  13.570  1.00  0.00     0.038 C 
HETATM    5  C11 UNL     1     -36.272  15.881  14.961  1.00  0.00     0.086 C 
HETATM    6  C12 UNL     1     -37.231  15.485  15.911  1.00  0.00    -0.150 C 
HETATM    7  C13 UNL     1     -38.223  15.051  16.807  1.00  0.00     0.257 C 
ENDROOT
BRANCH   1   8
HETATM    8  C6  UNL     1     -40.666  14.590  16.419  1.00  0.00     0.041 C 
BRANCH   8   9
HETATM    9  C5  UNL     1     -40.853  15.833  17.200  1.00  0.00     0.273 C 
BRANCH   9  10
HETATM   10  N2  UNL     1     -41.816  16.692  16.535  1.00  0.00     0.090 N 
HETATM   11  C4  UNL     1     -42.608  17.421  17.473  1.00  0.00     0.274 C 
HETATM   12  C3  UNL     1     -42.546  18.875  17.147  1.00  0.00     0.056 C 
HETATM   13  C2  UNL     1     -42.000  18.904  15.714  1.00  0.00     0.106 C 
HETATM   14  C14 UNL     1     -41.212  17.616  15.615  1.00  0.00     0.296 C 
BRANCH  13  15
HETATM   15  N1  UNL     1     -43.127  18.956  14.837  1.00  0.00    -0.419 N 
HETATM   16  C1  UNL     1     -42.848  18.634  13.475  1.00  0.00     0.140 C 
ATOM     17  H1  UNL     1     -44.062  19.205  15.161  1.00  0.00     0.153 HD
ENDBRANCH  13  15
ENDBRANCH   9  10
ENDBRANCH   8   9
ENDBRANCH   1   8
BRANCH   7  18
HETATM   18  N3  UNL     1     -37.738  14.132  17.839  1.00  0.00    -0.065 N 
ATOM     19  H33 UNL     1     -36.735  14.216  17.997  1.00  0.00     0.275 HD
ATOM     20  H32 UNL     1     -38.051  14.394  18.774  1.00  0.00     0.275 HD
ATOM     21  H31 UNL     1     -38.015  13.184  17.586  1.00  0.00     0.275 HD
ENDBRANCH   7  18
TORSDOF 5
ENDMDL
MODEL 4
REMARK VINA RESULT: -4.953733112      0.982      1.055
REMARK  5 active torsions:
REMARK  status: ('A' for Active; 'I' for Inactive)
REMARK    1  A    between atoms: N1_2  and  C2_4 
REMARK    2  A    between atoms: N2_7  and  C5_8 
REMARK    3  A    between atoms: C5_8  and  C6_9 
REMARK    4  A    between atoms: C6_9  and  C7_10 
REMARK    5  A    between atoms: C13_16  and  N3_17 
ROOT
HETATM    1  C7  UNL     1     -39.790  17.059  14.670  1.00  0.00     0.051 C 
HETATM    2  C8  UNL     1     -38.571  17.117  13.763  1.00  0.00    -0.023 C 
HETATM    3  C9  UNL     1     -37.688  16.009  13.570  1.00  0.00    -0.029 C 
HETATM    4  C10 UNL     1     -36.463  15.731  14.424  1.00  0.00     0.038 C 
HETATM    5  C11 UNL     1     -36.829  15.578  15.942  1.00  0.00     0.086 C 
HETATM    6  C12 UNL     1     -38.118  16.127  16.077  1.00  0.00    -0.150 C 
HETATM    7  C13 UNL     1     -39.409  16.678  16.138  1.00  0.00     0.257 C 
ENDROOT
BRANCH   1   8
HETATM    8  C6  UNL     1     -40.537  18.332  14.613  1.00  0.00     0.041 C 
BRANCH   8   9
HETATM    9  C5  UNL     1     -41.959  18.244  14.208  1.00  0.00     0.273 C 
BRANCH   9  10
HETATM   10  N2  UNL     1     -42.810  18.672  15.303  1.00  0.00     0.090 N 
HETATM   11  C4  UNL     1     -43.532  17.579  15.868  1.00  0.00     0.274 C 
HETATM   12  C3  UNL     1     -43.305  17.545  17.342  1.00  0.00     0.056 C 
HETATM   13  C2  UNL     1     -42.735  18.935  17.655  1.00  0.00     0.106 C 
HETATM   14  C14 UNL     1     -42.092  19.349  16.349  1.00  0.00     0.296 C 
BRANCH  13  15
HETATM   15  N1  UNL     1     -43.834  19.761  18.040  1.00  0.00    -0.419 N 
HETATM   16  C1  UNL     1     -44.709  19.189  19.011  1.00  0.00     0.140 C 
ATOM     17  H1  UNL     1     -43.982  20.692  17.650  1.00  0.00     0.153 HD
ENDBRANCH  13  15
ENDBRANCH   9  10
ENDBRANCH   8   9
ENDBRANCH   1   8
BRANCH   7  18
HETATM   18  N3  UNL     1     -40.426  15.765  16.661  1.00  0.00    -0.065 N 
ATOM     19  H33 UNL     1     -41.274  15.757  16.095  1.00  0.00     0.275 HD
ATOM     20  H32 UNL     1     -40.170  14.784  16.542  1.00  0.00     0.275 HD
ATOM     21  H31 UNL     1     -40.610  16.006  17.635  1.00  0.00     0.275 HD
ENDBRANCH   7  18
TORSDOF 5
ENDMDL
MODEL 5
REMARK VINA RESULT: -4.890345705      1.646      2.419
REMARK  5 active torsions:
REMARK  status: ('A' for Active; 'I' for Inactive)
REMARK    1  A    between atoms: N1_2  and  C2_4 
REMARK    2  A    between atoms: N2_7  and  C5_8 
REMARK    3  A    between atoms: C5_8  and  C6_9 
REMARK    4  A    between atoms: C6_9  and  C7_10 
REMARK    5  A    between atoms: C13_16  and  N3_17 
ROOT
HETATM    1  C7  UNL     1     -39.279  16.949  15.226  1.00  0.00     0.051 C 
HETATM    2  C8  UNL     1     -38.692  16.752  13.837  1.00  0.00    -0.023 C 
HETATM    3  C9  UNL     1     -38.093  15.527  13.410  1.00  0.00    -0.029 C 
HETATM    4  C10 UNL     1     -36.621  15.190  13.573  1.00  0.00     0.038 C 
HETATM    5  C11 UNL     1     -36.169  15.251  15.075  1.00  0.00     0.086 C 
HETATM    6  C12 UNL     1     -37.176  15.971  15.743  1.00  0.00    -0.150 C 
HETATM    7  C13 UNL     1     -38.224  16.685  16.349  1.00  0.00     0.257 C 
ENDROOT
BRANCH   1   8
HETATM    8  C6  UNL     1     -39.881  18.292  15.347  1.00  0.00     0.041 C 
BRANCH   8   9
HETATM    9  C5  UNL     1     -40.901  18.652  14.337  1.00  0.00     0.273 C 
BRANCH   9  10
HETATM   10  N2  UNL     1     -42.132  17.928  14.602  1.00  0.00     0.090 N 
HETATM   11  C4  UNL     1     -42.584  18.129  15.941  1.00  0.00     0.274 C 
HETATM   12  C3  UNL     1     -44.002  18.590  15.920  1.00  0.00     0.056 C 
HETATM   13  C2  UNL     1     -44.475  18.250  14.501  1.00  0.00     0.106 C 
HETATM   14  C14 UNL     1     -43.195  18.266  13.694  1.00  0.00     0.296 C 
BRANCH  13  15
HETATM   15  N1  UNL     1     -45.099  16.967  14.563  1.00  0.00    -0.419 N 
HETATM   16  C1  UNL     1     -45.822  16.590  13.392  1.00  0.00     0.140 C 
ATOM     17  H1  UNL     1     -45.032  16.364  15.383  1.00  0.00     0.153 HD
ENDBRANCH  13  15
ENDBRANCH   9  10
ENDBRANCH   8   9
ENDBRANCH   1   8
BRANCH   7  18
HETATM   18  N3  UNL     1     -38.880  15.971  17.446  1.00  0.00    -0.065 N 
ATOM     19  H33 UNL     1     -38.632  16.347  18.361  1.00  0.00     0.275 HD
ATOM     20  H32 UNL     1     -39.883  16.153  17.487  1.00  0.00     0.275 HD
ATOM     21  H31 UNL     1     -38.666  14.977  17.361  1.00  0.00     0.275 HD
ENDBRANCH   7  18
TORSDOF 5
ENDMDL
