MODEL 1
REMARK VINA RESULT: -4.980452791      0.000      0.000
REMARK  6 active torsions:
REMARK  status: ('A' for Active; 'I' for Inactive)
REMARK    1  A    between atoms: N1_3  and  C3_5 
REMARK    2  A    between atoms: N2_6  and  N3_8 
REMARK    3  A    between atoms: N3_8  and  C4_10 
REMARK    4  A    between atoms: C4_10  and  S1_14 
REMARK    5  A    between atoms: S1_14  and  C5_15 
REMARK    6  A    between atoms: C5_15  and  C6_16 
ROOT
HETATM    1  C1  UNL     1     -44.605  16.905  18.854  1.00  0.00     0.037 C 
HETATM    2  C2  UNL     1     -44.070  17.996  18.826  1.00  0.00    -0.000 C 
HETATM    3  N1  UNL     1     -43.462  19.255  18.777  1.00  0.00    -0.311 N 
ATOM      4  H1  UNL     1     -43.299  19.757  19.650  1.00  0.00     0.177 HD
ENDROOT
BRANCH   3   5
HETATM    5  C3  UNL     1     -43.062  19.859  17.549  1.00  0.00     0.205 C 
HETATM    6  N2  UNL     1     -42.364  19.132  16.754  1.00  0.00    -0.294 N 
ATOM      7  H2  UNL     1     -42.130  18.177  17.025  1.00  0.00     0.187 HD
BRANCH   6   8
HETATM    8  N3  UNL     1     -41.919  19.625  15.524  1.00  0.00    -0.279 N 
ATOM      9  H3  UNL     1     -41.906  20.634  15.374  1.00  0.00     0.189 HD
BRANCH   8  10
HETATM   10  C4  UNL     1     -41.485  18.771  14.476  1.00  0.00     0.152 C 
HETATM   11  N4  UNL     1     -42.242  18.502  13.469  1.00  0.00    -0.379 N 
ATOM     12  H42 UNL     1     -43.172  18.920  13.445  1.00  0.00     0.158 HD
ATOM     13  H41 UNL     1     -41.930  17.889  12.716  1.00  0.00     0.158 HD
BRANCH  10  14
HETATM   14  S1  UNL     1     -39.860  18.040  14.518  1.00  0.00    -0.093 SA
BRANCH  14  15
HETATM   15  C5  UNL     1     -39.816  16.558  15.531  1.00  0.00     0.087 C 
BRANCH  15  16
HETATM   16  C6  UNL     1     -38.751  15.631  15.033  1.00  0.00    -0.005 C 
HETATM   17  C7  UNL     1     -39.177  14.803  13.844  1.00  0.00     0.005 C 
HETATM   18  C8  UNL     1     -38.019  13.838  13.566  1.00  0.00     0.000 C 
HETATM   19  C9  UNL     1     -36.813  14.667  13.232  1.00  0.00     0.000 C 
HETATM   20  C10 UNL     1     -36.412  15.490  14.420  1.00  0.00     0.000 C 
HETATM   21  C11 UNL     1     -37.539  16.497  14.668  1.00  0.00     0.005 C 
ENDBRANCH  15  16
ENDBRANCH  14  15
ENDBRANCH  10  14
ENDBRANCH   8  10
ENDBRANCH   6   8
ENDBRANCH   3   5
TORSDOF 6
ENDMDL
MODEL 2
REMARK VINA RESULT: -4.904934375      1.102      1.222
REMARK  6 active torsions:
REMARK  status: ('A' for Active; 'I' for Inactive)
REMARK    1  A    between atoms: N1_3  and  C3_5 
REMARK    2  A    between atoms: N2_6  and  N3_8 
REMARK    3  A    between atoms: N3_8  and  C4_10 
REMARK    4  A    between atoms: C4_10  and  S1_14 
REMARK    5  A    between atoms: S1_14  and  C5_15 
REMARK    6  A    between atoms: C5_15  and  C6_16 
ROOT
HETATM    1  C1  UNL     1     -46.147  18.313  18.810  1.00  0.00     0.037 C 
HETATM    2  C2  UNL     1     -45.034  18.800  18.858  1.00  0.00    -0.000 C 
HETATM    3  N1  UNL     1     -43.755  19.362  18.895  1.00  0.00    -0.311 N 
ATOM      4  H1  UNL     1     -43.455  19.849  19.740  1.00  0.00     0.177 HD
ENDROOT
BRANCH   3   5
HETATM    5  C3  UNL     1     -42.854  19.279  17.793  1.00  0.00     0.205 C 
HETATM    6  N2  UNL     1     -42.968  20.186  16.891  1.00  0.00    -0.294 N 
ATOM      7  H2  UNL     1     -43.679  20.910  16.997  1.00  0.00     0.187 HD
BRANCH   6   8
HETATM    8  N3  UNL     1     -42.137  20.200  15.768  1.00  0.00    -0.279 N 
ATOM      9  H3  UNL     1     -41.624  21.054  15.547  1.00  0.00     0.189 HD
BRANCH   8  10
HETATM   10  C4  UNL     1     -41.981  19.069  14.924  1.00  0.00     0.152 C 
HETATM   11  N4  UNL     1     -42.958  18.617  14.216  1.00  0.00    -0.379 N 
ATOM     12  H42 UNL     1     -43.856  19.095  14.281  1.00  0.00     0.158 HD
ATOM     13  H41 UNL     1     -42.846  17.804  13.610  1.00  0.00     0.158 HD
BRANCH  10  14
HETATM   14  S1  UNL     1     -40.411  18.233  14.812  1.00  0.00    -0.093 SA
BRANCH  14  15
HETATM   15  C5  UNL     1     -40.473  16.587  15.531  1.00  0.00     0.087 C 
BRANCH  15  16
HETATM   16  C6  UNL     1     -39.178  15.877  15.291  1.00  0.00    -0.005 C 
HETATM   17  C7  UNL     1     -38.704  15.948  13.859  1.00  0.00     0.005 C 
HETATM   18  C8  UNL     1     -37.453  15.066  13.785  1.00  0.00     0.000 C 
HETATM   19  C9  UNL     1     -36.431  15.656  14.712  1.00  0.00     0.000 C 
HETATM   20  C10 UNL     1     -36.923  15.587  16.128  1.00  0.00     0.000 C 
HETATM   21  C11 UNL     1     -38.140  16.512  16.224  1.00  0.00     0.005 C 
ENDBRANCH  15  16
ENDBRANCH  14  15
ENDBRANCH  10  14
ENDBRANCH   8  10
ENDBRANCH   6   8
ENDBRANCH   3   5
TORSDOF 6
ENDMDL
MODEL 3
REMARK VINA RESULT: -4.848071156      1.159      1.543
REMARK  6 active torsions:
REMARK  status: ('A' for Active; 'I' for Inactive)
REMARK    1  A    between atoms: N1_3  and  C3_5 
REMARK    2  A    between atoms: N2_6  and  N3_8 
REMARK    3  A    between atoms: N3_8  and  C4_10 
REMARK    4  A    between atoms: C4_10  and  S1_14 
REMARK    5  A    between atoms: S1_14  and  C5_15 
REMARK    6  A    between atoms: C5_15  and  C6_16 
ROOT
HETATM    1  C1  UNL     1     -46.210  17.980  18.851  1.00  0.00     0.037 C 
HETATM    2  C2  UNL     1     -45.184  18.631  18.896  1.00  0.00    -0.000 C 
HETATM    3  N1  UNL     1     -44.004  19.380  18.930  1.00  0.00    -0.311 N 
ATOM      4  H1  UNL     1     -43.857  20.034  19.699  1.00  0.00     0.177 HD
ENDROOT
BRANCH   3   5
HETATM    5  C3  UNL     1     -42.997  19.259  17.927  1.00  0.00     0.205 C 
HETATM    6  N2  UNL     1     -43.079  20.070  16.935  1.00  0.00    -0.294 N 
ATOM      7  H2  UNL     1     -43.840  20.749  16.904  1.00  0.00     0.187 HD
BRANCH   6   8
HETATM    8  N3  UNL     1     -42.145  20.040  15.895  1.00  0.00    -0.279 N 
ATOM      9  H3  UNL     1     -41.478  20.807  15.812  1.00  0.00     0.189 HD
BRANCH   8  10
HETATM   10  C4  UNL     1     -42.092  18.980  14.952  1.00  0.00     0.152 C 
HETATM   11  N4  UNL     1     -43.164  18.443  14.481  1.00  0.00    -0.379 N 
ATOM     12  H42 UNL     1     -44.062  18.801  14.809  1.00  0.00     0.158 HD
ATOM     13  H41 UNL     1     -43.127  17.682  13.803  1.00  0.00     0.158 HD
BRANCH  10  14
HETATM   14  S1  UNL     1     -40.524  18.355  14.379  1.00  0.00    -0.093 SA
BRANCH  14  15
HETATM   15  C5  UNL     1     -39.765  17.249  15.574  1.00  0.00     0.087 C 
BRANCH  15  16
HETATM   16  C6  UNL     1     -38.409  16.835  15.095  1.00  0.00    -0.005 C 
HETATM   17  C7  UNL     1     -37.644  15.996  16.093  1.00  0.00     0.005 C 
HETATM   18  C8  UNL     1     -36.253  15.785  15.486  1.00  0.00     0.000 C 
HETATM   19  C9  UNL     1     -36.433  15.042  14.195  1.00  0.00     0.000 C 
HETATM   20  C10 UNL     1     -37.203  15.884  13.221  1.00  0.00     0.000 C 
HETATM   21  C11 UNL     1     -38.614  16.051  13.793  1.00  0.00     0.005 C 
ENDBRANCH  15  16
ENDBRANCH  14  15
ENDBRANCH  10  14
ENDBRANCH   8  10
ENDBRANCH   6   8
ENDBRANCH   3   5
TORSDOF 6
ENDMDL
MODEL 4
REMARK VINA RESULT: -4.845196731      2.457      3.176
REMARK  6 active torsions:
REMARK  status: ('A' for Active; 'I' for Inactive)
REMARK    1  A    between atoms: N1_3  and  C3_5 
REMARK    2  A    between atoms: N2_6  and  N3_8 
REMARK    3  A    between atoms: N3_8  and  C4_10 
REMARK    4  A    between atoms: C4_10  and  S1_14 
REMARK    5  A    between atoms: S1_14  and  C5_15 
REMARK    6  A    between atoms: C5_15  and  C6_16 
ROOT
HETATM    1  C1  UNL     1     -46.588  16.230  12.573  1.00  0.00     0.037 C 
HETATM    2  C2  UNL     1     -45.959  16.466  13.587  1.00  0.00    -0.000 C 
HETATM    3  N1  UNL     1     -45.228  16.753  14.744  1.00  0.00    -0.311 N 
ATOM      4  H1  UNL     1     -45.613  16.480  15.649  1.00  0.00     0.177 HD
ENDROOT
BRANCH   3   5
HETATM    5  C3  UNL     1     -43.966  17.414  14.703  1.00  0.00     0.205 C 
HETATM    6  N2  UNL     1     -43.748  18.168  13.687  1.00  0.00    -0.294 N 
ATOM      7  H2  UNL     1     -44.467  18.262  12.969  1.00  0.00     0.187 HD
BRANCH   6   8
HETATM    8  N3  UNL     1     -42.544  18.863  13.545  1.00  0.00    -0.279 N 
ATOM      9  H3  UNL     1     -42.265  19.180  12.617  1.00  0.00     0.189 HD
BRANCH   8  10
HETATM   10  C4  UNL     1     -41.694  19.143  14.648  1.00  0.00     0.152 C 
HETATM   11  N4  UNL     1     -42.021  20.003  15.549  1.00  0.00    -0.379 N 
ATOM     12  H42 UNL     1     -42.914  20.486  15.447  1.00  0.00     0.158 HD
ATOM     13  H41 UNL     1     -41.411  20.205  16.341  1.00  0.00     0.158 HD
BRANCH  10  14
HETATM   14  S1  UNL     1     -40.133  18.300  14.825  1.00  0.00    -0.093 SA
BRANCH  14  15
HETATM   15  C5  UNL     1     -40.330  16.515  14.824  1.00  0.00     0.087 C 
BRANCH  15  16
HETATM   16  C6  UNL     1     -38.988  15.854  14.878  1.00  0.00    -0.005 C 
HETATM   17  C7  UNL     1     -38.112  16.162  13.686  1.00  0.00     0.005 C 
HETATM   18  C8  UNL     1     -36.853  15.305  13.856  1.00  0.00     0.000 C 
HETATM   19  C9  UNL     1     -36.186  15.733  15.129  1.00  0.00     0.000 C 
HETATM   20  C10 UNL     1     -37.073  15.430  16.301  1.00  0.00     0.000 C 
HETATM   21  C11 UNL     1     -38.308  16.326  16.169  1.00  0.00     0.005 C 
ENDBRANCH  15  16
ENDBRANCH  14  15
ENDBRANCH  10  14
ENDBRANCH   8  10
ENDBRANCH   6   8
ENDBRANCH   3   5
TORSDOF 6
ENDMDL
MODEL 5
REMARK VINA RESULT: -4.795543628      2.261      3.339
REMARK  6 active torsions:
REMARK  status: ('A' for Active; 'I' for Inactive)
REMARK    1  A    between atoms: N1_3  and  C3_5 
REMARK    2  A    between atoms: N2_6  and  N3_8 
REMARK    3  A    between atoms: N3_8  and  C4_10 
REMARK    4  A    between atoms: C4_10  and  S1_14 
REMARK    5  A    between atoms: S1_14  and  C5_15 
REMARK    6  A    between atoms: C5_15  and  C6_16 
ROOT
HETATM    1  C1  UNL     1     -46.487  15.688  13.614  1.00  0.00     0.037 C 
HETATM    2  C2  UNL     1     -45.842  16.681  13.335  1.00  0.00    -0.000 C 
HETATM    3  N1  UNL     1     -45.086  17.814  13.020  1.00  0.00    -0.311 N 
ATOM      4  H1  UNL     1     -45.374  18.394  12.232  1.00  0.00     0.177 HD
ENDROOT
BRANCH   3   5
HETATM    5  C3  UNL     1     -43.927  18.185  13.763  1.00  0.00     0.205 C 
HETATM    6  N2  UNL     1     -42.899  18.538  13.079  1.00  0.00    -0.294 N 
ATOM      7  H2  UNL     1     -42.951  18.538  12.060  1.00  0.00     0.187 HD
BRANCH   6   8
HETATM    8  N3  UNL     1     -41.709  18.922  13.705  1.00  0.00    -0.279 N 
ATOM      9  H3  UNL     1     -40.986  19.378  13.149  1.00  0.00     0.189 HD
BRANCH   8  10
HETATM   10  C4  UNL     1     -41.472  18.699  15.087  1.00  0.00     0.152 C 
HETATM   11  N4  UNL     1     -41.694  19.616  15.965  1.00  0.00    -0.379 N 
ATOM     12  H42 UNL     1     -42.045  20.516  15.638  1.00  0.00     0.158 HD
ATOM     13  H41 UNL     1     -41.523  19.456  16.958  1.00  0.00     0.158 HD
BRANCH  10  14
HETATM   14  S1  UNL     1     -40.858  17.126  15.659  1.00  0.00    -0.093 SA
BRANCH  14  15
HETATM   15  C5  UNL     1     -39.062  17.069  15.663  1.00  0.00     0.087 C 
BRANCH  15  16
HETATM   16  C6  UNL     1     -38.576  16.209  14.539  1.00  0.00    -0.005 C 
HETATM   17  C7  UNL     1     -37.115  16.407  14.213  1.00  0.00     0.005 C 
HETATM   18  C8  UNL     1     -36.841  15.552  12.970  1.00  0.00     0.000 C 
HETATM   19  C9  UNL     1     -37.115  14.123  13.338  1.00  0.00     0.000 C 
HETATM   20  C10 UNL     1     -38.568  13.948  13.669  1.00  0.00     0.000 C 
HETATM   21  C11 UNL     1     -38.835  14.753  14.944  1.00  0.00     0.005 C 
ENDBRANCH  15  16
ENDBRANCH  14  15
ENDBRANCH  10  14
ENDBRANCH   8  10
ENDBRANCH   6   8
ENDBRANCH   3   5
TORSDOF 6
ENDMDL
