MODEL 1
REMARK VINA RESULT: -4.813385981      0.000      0.000
REMARK  5 active torsions:
REMARK  status: ('A' for Active; 'I' for Inactive)
REMARK    1  A    between atoms: N1_2  and  C2_5 
REMARK    2  A    between atoms: C2_5  and  C3_6 
REMARK    3  A    between atoms: C7_10  and  O1_11 
REMARK    4  A    between atoms: C9_14  and  C10_15 
REMARK    5  A    between atoms: C10_15  and  O2_16 
ROOT
HETATM    1  C3  UNL     1     -39.167  15.404  16.036  1.00  0.00    -0.014 C 
HETATM    2  C4  UNL     1     -39.265  14.629  17.348  1.00  0.00     0.017 C 
HETATM    3  C5  UNL     1     -38.449  16.726  16.247  1.00  0.00     0.014 C 
HETATM    4  C6  UNL     1     -39.058  17.698  15.264  1.00  0.00     0.039 C 
HETATM    5  C7  UNL     1     -40.219  17.006  14.623  1.00  0.00     0.063 C 
HETATM    6  C8  UNL     1     -41.424  17.904  14.451  1.00  0.00     0.045 C 
HETATM    7  C9  UNL     1     -41.974  18.424  15.728  1.00  0.00     0.012 C 
HETATM    8  C11 UNL     1     -41.665  17.563  16.920  1.00  0.00     0.007 C 
HETATM    9  C12 UNL     1     -41.506  16.111  16.579  1.00  0.00     0.009 C 
HETATM   10  C13 UNL     1     -40.495  15.835  15.517  1.00  0.00     0.030 C 
ENDROOT
BRANCH   1  11
HETATM   11  C2  UNL     1     -38.363  14.577  15.090  1.00  0.00     0.241 C 
BRANCH  11  12
HETATM   12  N1  UNL     1     -37.158  15.211  14.643  1.00  0.00    -0.078 N 
HETATM   13  C1  UNL     1     -36.851  14.806  13.298  1.00  0.00     0.267 C 
ATOM     14  H12 UNL     1     -36.379  15.040  15.279  1.00  0.00     0.276 HD
ATOM     15  H11 UNL     1     -37.205  16.225  14.734  1.00  0.00     0.276 HD
ENDBRANCH  11  12
ENDBRANCH   1  11
BRANCH   5  16
HETATM   16  O1  UNL     1     -39.888  16.580  13.315  1.00  0.00    -0.389 OA
ATOM     17  H1  UNL     1     -40.146  15.676  13.181  1.00  0.00     0.210 HD
ENDBRANCH   5  16
BRANCH   7  18
HETATM   18  C10 UNL     1     -43.479  18.606  15.547  1.00  0.00     0.168 C 
BRANCH  18  19
HETATM   19  O2  UNL     1     -43.749  19.937  15.897  1.00  0.00    -0.400 OA
ATOM     20  H2  UNL     1     -44.196  20.316  15.149  1.00  0.00     0.209 HD
ENDBRANCH  18  19
ENDBRANCH   7  18
TORSDOF 5
ENDMDL
MODEL 2
REMARK VINA RESULT: -4.750849093      1.006      1.006
REMARK  5 active torsions:
REMARK  status: ('A' for Active; 'I' for Inactive)
REMARK    1  A    between atoms: N1_2  and  C2_5 
REMARK    2  A    between atoms: C2_5  and  C3_6 
REMARK    3  A    between atoms: C7_10  and  O1_11 
REMARK    4  A    between atoms: C9_14  and  C10_15 
REMARK    5  A    between atoms: C10_15  and  O2_16 
ROOT
HETATM    1  C3  UNL     1     -39.365  15.430  16.221  1.00  0.00    -0.014 C 
HETATM    2  C4  UNL     1     -39.558  14.794  17.595  1.00  0.00     0.017 C 
HETATM    3  C5  UNL     1     -38.544  16.703  16.330  1.00  0.00     0.014 C 
HETATM    4  C6  UNL     1     -39.046  17.623  15.242  1.00  0.00     0.039 C 
HETATM    5  C7  UNL     1     -40.246  16.971  14.633  1.00  0.00     0.063 C 
HETATM    6  C8  UNL     1     -41.368  17.944  14.341  1.00  0.00     0.045 C 
HETATM    7  C9  UNL     1     -41.901  18.625  15.547  1.00  0.00     0.012 C 
HETATM    8  C11 UNL     1     -41.693  17.860  16.824  1.00  0.00     0.007 C 
HETATM    9  C12 UNL     1     -41.649  16.374  16.624  1.00  0.00     0.009 C 
HETATM   10  C13 UNL     1     -40.640  15.916  15.623  1.00  0.00     0.030 C 
ENDROOT
BRANCH   1  11
HETATM   11  C2  UNL     1     -38.613  14.454  15.381  1.00  0.00     0.241 C 
BRANCH  11  12
HETATM   12  N1  UNL     1     -39.447  13.509  14.699  1.00  0.00    -0.078 N 
HETATM   13  C1  UNL     1     -38.767  12.985  13.545  1.00  0.00     0.267 C 
ATOM     14  H12 UNL     1     -40.355  13.906  14.458  1.00  0.00     0.276 HD
ATOM     15  H11 UNL     1     -39.768  12.767  15.320  1.00  0.00     0.276 HD
ENDBRANCH  11  12
ENDBRANCH   1  11
BRANCH   5  16
HETATM   16  O1  UNL     1     -39.923  16.397  13.382  1.00  0.00    -0.389 OA
ATOM     17  H1  UNL     1     -39.043  16.038  13.394  1.00  0.00     0.210 HD
ENDBRANCH   5  16
BRANCH   7  18
HETATM   18  C10 UNL     1     -43.382  18.912  15.304  1.00  0.00     0.168 C 
BRANCH  18  19
HETATM   19  O2  UNL     1     -43.675  20.068  16.041  1.00  0.00    -0.400 OA
ATOM     20  H2  UNL     1     -44.618  20.073  16.151  1.00  0.00     0.209 HD
ENDBRANCH  18  19
ENDBRANCH   7  18
TORSDOF 5
ENDMDL
MODEL 3
REMARK VINA RESULT: -4.388735765      3.223      5.880
REMARK  5 active torsions:
REMARK  status: ('A' for Active; 'I' for Inactive)
REMARK    1  A    between atoms: N1_2  and  C2_5 
REMARK    2  A    between atoms: C2_5  and  C3_6 
REMARK    3  A    between atoms: C7_10  and  O1_11 
REMARK    4  A    between atoms: C9_14  and  C10_15 
REMARK    5  A    between atoms: C10_15  and  O2_16 
ROOT
HETATM    1  C3  UNL     1     -44.188  17.569  17.450  1.00  0.00    -0.014 C 
HETATM    2  C4  UNL     1     -44.079  16.269  18.243  1.00  0.00     0.017 C 
HETATM    3  C5  UNL     1     -44.727  17.302  16.055  1.00  0.00     0.014 C 
HETATM    4  C6  UNL     1     -44.087  18.331  15.152  1.00  0.00     0.039 C 
HETATM    5  C7  UNL     1     -43.070  19.061  15.970  1.00  0.00     0.063 C 
HETATM    6  C8  UNL     1     -41.784  19.329  15.217  1.00  0.00     0.045 C 
HETATM    7  C9  UNL     1     -41.078  18.099  14.778  1.00  0.00     0.012 C 
HETATM    8  C11 UNL     1     -41.392  16.886  15.607  1.00  0.00     0.007 C 
HETATM    9  C12 UNL     1     -41.747  17.213  17.028  1.00  0.00     0.009 C 
HETATM   10  C13 UNL     1     -42.864  18.192  17.173  1.00  0.00     0.030 C 
ENDROOT
BRANCH   1  11
HETATM   11  C2  UNL     1     -45.156  18.448  18.169  1.00  0.00     0.241 C 
BRANCH  11  12
HETATM   12  N1  UNL     1     -44.559  19.257  19.191  1.00  0.00    -0.078 N 
HETATM   13  C1  UNL     1     -45.542  20.128  19.775  1.00  0.00     0.267 C 
ATOM     14  H12 UNL     1     -43.750  19.773  18.844  1.00  0.00     0.276 HD
ATOM     15  H11 UNL     1     -44.085  18.691  19.895  1.00  0.00     0.276 HD
ENDBRANCH  11  12
ENDBRANCH   1  11
BRANCH   5  16
HETATM   16  O1  UNL     1     -43.550  20.338  16.341  1.00  0.00    -0.389 OA
ATOM     17  H1  UNL     1     -42.900  20.806  16.851  1.00  0.00     0.210 HD
ENDBRANCH   5  16
BRANCH   7  18
HETATM   18  C10 UNL     1     -39.581  18.399  14.772  1.00  0.00     0.168 C 
BRANCH  18  19
HETATM   19  O2  UNL     1     -39.050  17.675  13.695  1.00  0.00    -0.400 OA
ATOM     20  H2  UNL     1     -39.044  18.275  12.957  1.00  0.00     0.209 HD
ENDBRANCH  18  19
ENDBRANCH   7  18
TORSDOF 5
ENDMDL
MODEL 4
REMARK VINA RESULT: -4.367476465      1.774      2.020
REMARK  5 active torsions:
REMARK  status: ('A' for Active; 'I' for Inactive)
REMARK    1  A    between atoms: N1_2  and  C2_5 
REMARK    2  A    between atoms: C2_5  and  C3_6 
REMARK    3  A    between atoms: C7_10  and  O1_11 
REMARK    4  A    between atoms: C9_14  and  C10_15 
REMARK    5  A    between atoms: C10_15  and  O2_16 
ROOT
HETATM    1  C3  UNL     1     -39.720  14.918  16.651  1.00  0.00    -0.014 C 
HETATM    2  C4  UNL     1     -40.530  14.482  17.870  1.00  0.00     0.017 C 
HETATM    3  C5  UNL     1     -38.738  16.016  17.025  1.00  0.00     0.014 C 
HETATM    4  C6  UNL     1     -38.601  16.892  15.801  1.00  0.00     0.039 C 
HETATM    5  C7  UNL     1     -39.610  16.417  14.805  1.00  0.00     0.063 C 
HETATM    6  C8  UNL     1     -40.311  17.549  14.083  1.00  0.00     0.045 C 
HETATM    7  C9  UNL     1     -41.083  18.445  14.979  1.00  0.00     0.012 C 
HETATM    8  C11 UNL     1     -41.521  17.796  16.262  1.00  0.00     0.007 C 
HETATM    9  C12 UNL     1     -41.732  16.316  16.137  1.00  0.00     0.009 C 
HETATM   10  C13 UNL     1     -40.554  15.570  15.604  1.00  0.00     0.030 C 
ENDROOT
BRANCH   1  11
HETATM   11  C2  UNL     1     -38.945  13.731  16.185  1.00  0.00     0.241 C 
BRANCH  11  12
HETATM   12  N1  UNL     1     -39.625  12.943  15.200  1.00  0.00    -0.078 N 
HETATM   13  C1  UNL     1     -39.686  11.568  15.616  1.00  0.00     0.267 C 
ATOM     14  H12 UNL     1     -39.204  13.042  14.276  1.00  0.00     0.276 HD
ATOM     15  H11 UNL     1     -40.549  13.317  14.985  1.00  0.00     0.276 HD
ENDBRANCH  11  12
ENDBRANCH   1  11
BRANCH   5  16
HETATM   16  O1  UNL     1     -38.988  15.661  13.784  1.00  0.00    -0.389 OA
ATOM     17  H1  UNL     1     -38.176  16.070  13.510  1.00  0.00     0.210 HD
ENDBRANCH   5  16
BRANCH   7  18
HETATM   18  C10 UNL     1     -42.275  18.980  14.189  1.00  0.00     0.168 C 
BRANCH  18  19
HETATM   19  O2  UNL     1     -42.491  18.059  13.153  1.00  0.00    -0.400 OA
ATOM     20  H2  UNL     1     -43.411  17.826  13.201  1.00  0.00     0.209 HD
ENDBRANCH  18  19
ENDBRANCH   7  18
TORSDOF 5
ENDMDL
MODEL 5
REMARK VINA RESULT: -4.324472192      2.536      4.904
REMARK  5 active torsions:
REMARK  status: ('A' for Active; 'I' for Inactive)
REMARK    1  A    between atoms: N1_2  and  C2_5 
REMARK    2  A    between atoms: C2_5  and  C3_6 
REMARK    3  A    between atoms: C7_10  and  O1_11 
REMARK    4  A    between atoms: C9_14  and  C10_15 
REMARK    5  A    between atoms: C10_15  and  O2_16 
ROOT
HETATM    1  C3  UNL     1     -40.273  15.810  17.802  1.00  0.00    -0.014 C 
HETATM    2  C4  UNL     1     -39.523  16.017  19.115  1.00  0.00     0.017 C 
HETATM    3  C5  UNL     1     -40.327  14.335  17.443  1.00  0.00     0.014 C 
HETATM    4  C6  UNL     1     -40.310  14.268  15.934  1.00  0.00     0.039 C 
HETATM    5  C7  UNL     1     -40.074  15.658  15.435  1.00  0.00     0.063 C 
HETATM    6  C8  UNL     1     -39.114  15.714  14.265  1.00  0.00     0.045 C 
HETATM    7  C9  UNL     1     -37.755  15.207  14.579  1.00  0.00     0.012 C 
HETATM    8  C11 UNL     1     -37.394  15.289  16.036  1.00  0.00     0.007 C 
HETATM    9  C12 UNL     1     -38.080  16.412  16.755  1.00  0.00     0.009 C 
HETATM   10  C13 UNL     1     -39.568  16.403  16.632  1.00  0.00     0.030 C 
ENDROOT
BRANCH   1  11
HETATM   11  C2  UNL     1     -41.668  16.297  18.005  1.00  0.00     0.241 C 
BRANCH  11  12
HETATM   12  N1  UNL     1     -41.896  17.628  17.523  1.00  0.00    -0.078 N 
HETATM   13  C1  UNL     1     -42.861  18.300  18.350  1.00  0.00     0.267 C 
ATOM     14  H12 UNL     1     -42.166  17.636  16.540  1.00  0.00     0.276 HD
ATOM     15  H11 UNL     1     -41.028  18.157  17.444  1.00  0.00     0.276 HD
ENDBRANCH  11  12
ENDBRANCH   1  11
BRANCH   5  16
HETATM   16  O1  UNL     1     -41.275  16.227  14.951  1.00  0.00    -0.389 OA
ATOM     17  H1  UNL     1     -41.374  16.062  14.021  1.00  0.00     0.210 HD
ENDBRANCH   5  16
BRANCH   7  18
HETATM   18  C10 UNL     1     -36.759  15.976  13.713  1.00  0.00     0.168 C 
BRANCH  18  19
HETATM   19  O2  UNL     1     -36.990  15.554  12.397  1.00  0.00    -0.400 OA
ATOM     20  H2  UNL     1     -37.726  16.067  12.085  1.00  0.00     0.209 HD
ENDBRANCH  18  19
ENDBRANCH   7  18
TORSDOF 5
ENDMDL
