MODEL 1
REMARK VINA RESULT: -7.955040447      0.000      0.000
REMARK  11 active torsions:
REMARK  status: ('A' for Active; 'I' for Inactive)
REMARK    1  A    between atoms: C3_4  and  N1_5 
REMARK    2  A    between atoms: N1_5  and  C4_7 
REMARK    3  A    between atoms: C4_7  and  C6_10 
REMARK    4  A    between atoms: C8_15  and  N5_16 
REMARK    5  A    between atoms: N5_16  and  C9_18 
REMARK    6  A    between atoms: C12_23  and  N7_24 
REMARK    7  A    between atoms: N7_24  and  C13_26 
REMARK    8  A    between atoms: C14_30  and  C15_31 
REMARK    9  A    between atoms: C15_31  and  C16_32 
REMARK   10  A    between atoms: C16_32  and  C17_33 
REMARK   11  A    between atoms: C17_33  and  N9_34 
ROOT
HETATM    1  C4  UNL     1       2.798   4.186  21.992  1.00  0.00     0.232 C 
HETATM    2  C5  UNL     1       2.840   5.544  22.571  1.00  0.00     0.089 C 
HETATM    3  N2  UNL     1       2.856   6.615  23.019  1.00  0.00    -0.195 NA
ENDROOT
BRANCH   1   4
HETATM    4  N1  UNL     1       3.999   3.520  22.410  1.00  0.00    -0.349 N 
ATOM      5  H1  UNL     1       4.879   4.033  22.357  1.00  0.00     0.163 HD
BRANCH   4   6
HETATM    6  C3  UNL     1       4.025   2.284  22.858  1.00  0.00     0.146 A 
HETATM    7  S1  UNL     1       2.749   1.351  23.507  1.00  0.00    -0.057 SA
HETATM    8  C2  UNL     1       3.621  -0.079  23.823  1.00  0.00     0.005 A 
HETATM    9  C1  UNL     1       3.116  -1.363  24.417  1.00  0.00     0.058 C 
HETATM   10  C14 UNL     1       4.881   0.254  23.397  1.00  0.00     0.024 A 
HETATM   11  N8  UNL     1       5.061   1.447  22.916  1.00  0.00    -0.339 N 
ATOM     12  H8  UNL     1       5.982   1.740  22.587  1.00  0.00     0.168 HD
BRANCH  10  13
HETATM   13  C15 UNL     1       5.983  -0.787  23.515  1.00  0.00     0.060 C 
BRANCH  13  14
HETATM   14  C16 UNL     1       6.931  -0.404  24.623  1.00  0.00     0.033 C 
BRANCH  14  15
HETATM   15  C17 UNL     1       6.645  -1.249  25.844  1.00  0.00     0.230 C 
BRANCH  15  16
HETATM   16  N9  UNL     1       6.322  -2.609  25.516  1.00  0.00    -0.079 N 
ATOM     17  H93 UNL     1       5.555  -2.650  24.845  1.00  0.00     0.274 HD
ATOM     18  H92 UNL     1       7.058  -3.034  24.953  1.00  0.00     0.274 HD
ATOM     19  H91 UNL     1       6.118  -3.177  26.339  1.00  0.00     0.274 HD
ENDBRANCH  15  16
ENDBRANCH  14  15
ENDBRANCH  13  14
ENDBRANCH  10  13
ENDBRANCH   4   6
ENDBRANCH   1   4
BRANCH   1  20
HETATM   20  C6  UNL     1       2.690   4.285  20.520  1.00  0.00     0.065 A 
HETATM   21  C7  UNL     1       3.772   4.328  19.675  1.00  0.00     0.145 A 
HETATM   22  N3  UNL     1       5.077   4.271  20.264  1.00  0.00    -0.081 NA
HETATM   23  N4  UNL     1       3.613   4.418  18.340  1.00  0.00    -0.178 N 
HETATM   24  C8  UNL     1       2.369   4.470  17.797  1.00  0.00     0.681 A 
ATOM     25  H4  UNL     1       4.433   4.448  17.733  1.00  0.00     0.185 HD
HETATM   26  N6  UNL     1       1.292   4.430  18.595  1.00  0.00    -0.176 N 
HETATM   27  C12 UNL     1       1.447   4.339  19.944  1.00  0.00     0.135 A 
ATOM     28  H6  UNL     1       0.357   4.468  18.191  1.00  0.00     0.186 HD
BRANCH  24  29
HETATM   29  N5  UNL     1       2.269   4.557  16.504  1.00  0.00    -0.222 N 
ATOM     30  H5  UNL     1       1.476   5.042  16.083  1.00  0.00     0.178 HD
BRANCH  29  31
HETATM   31  C9  UNL     1       3.284   3.965  15.665  1.00  0.00     0.091 C 
HETATM   32  C10 UNL     1       3.654   4.995  14.594  1.00  0.00     0.032 C 
HETATM   33  C11 UNL     1       2.729   2.750  14.936  1.00  0.00     0.032 C 
ENDBRANCH  29  31
ENDBRANCH  24  29
BRANCH  27  34
HETATM   34  N7  UNL     1       0.396   4.302  20.689  1.00  0.00    -0.319 N 
ATOM     35  H7  UNL     1       0.245   3.486  21.282  1.00  0.00     0.169 HD
BRANCH  34  36
HETATM   36  C13 UNL     1      -0.561   5.351  20.719  1.00  0.00     0.354 C 
HETATM   37  O1  UNL     1      -0.231   6.510  20.367  1.00  0.00    -0.283 OA
ENDBRANCH  34  36
ENDBRANCH  27  34
ENDBRANCH   1  20
TORSDOF 11
ENDMDL
MODEL 2
REMARK VINA RESULT: -7.576650096      4.682      7.908
REMARK  11 active torsions:
REMARK  status: ('A' for Active; 'I' for Inactive)
REMARK    1  A    between atoms: C3_4  and  N1_5 
REMARK    2  A    between atoms: N1_5  and  C4_7 
REMARK    3  A    between atoms: C4_7  and  C6_10 
REMARK    4  A    between atoms: C8_15  and  N5_16 
REMARK    5  A    between atoms: N5_16  and  C9_18 
REMARK    6  A    between atoms: C12_23  and  N7_24 
REMARK    7  A    between atoms: N7_24  and  C13_26 
REMARK    8  A    between atoms: C14_30  and  C15_31 
REMARK    9  A    between atoms: C15_31  and  C16_32 
REMARK   10  A    between atoms: C16_32  and  C17_33 
REMARK   11  A    between atoms: C17_33  and  N9_34 
ROOT
HETATM    1  C4  UNL     1       0.924   5.168  19.890  1.00  0.00     0.232 C 
HETATM    2  C5  UNL     1       2.291   5.164  20.450  1.00  0.00     0.089 C 
HETATM    3  N2  UNL     1       3.359   5.149  20.905  1.00  0.00    -0.195 NA
ENDROOT
BRANCH   1   4
HETATM    4  N1  UNL     1       0.981   5.911  18.663  1.00  0.00    -0.349 N 
ATOM      5  H1  UNL     1       0.436   6.770  18.593  1.00  0.00     0.163 HD
BRANCH   4   6
HETATM    6  C3  UNL     1       1.700   5.543  17.626  1.00  0.00     0.146 A 
HETATM    7  S1  UNL     1       2.874   6.434  16.762  1.00  0.00    -0.057 SA
HETATM    8  C2  UNL     1       3.294   5.247  15.614  1.00  0.00     0.005 A 
HETATM    9  C1  UNL     1       4.300   5.344  14.502  1.00  0.00     0.058 C 
HETATM   10  C14 UNL     1       2.483   4.202  15.973  1.00  0.00     0.024 A 
HETATM   11  N8  UNL     1       1.690   4.372  16.987  1.00  0.00    -0.339 N 
ATOM     12  H8  UNL     1       1.068   3.622  17.290  1.00  0.00     0.168 HD
BRANCH  10  13
HETATM   13  C15 UNL     1       2.562   2.915  15.166  1.00  0.00     0.060 C 
BRANCH  13  14
HETATM   14  C16 UNL     1       1.649   1.877  15.769  1.00  0.00     0.033 C 
BRANCH  14  15
HETATM   15  C17 UNL     1       2.443   0.628  16.077  1.00  0.00     0.230 C 
BRANCH  15  16
HETATM   16  N9  UNL     1       2.574   0.386  17.487  1.00  0.00    -0.079 N 
ATOM     17  H93 UNL     1       1.729  -0.041  17.864  1.00  0.00     0.274 HD
ATOM     18  H92 UNL     1       3.236  -0.369  17.667  1.00  0.00     0.274 HD
ATOM     19  H91 UNL     1       2.826   1.225  18.010  1.00  0.00     0.274 HD
ENDBRANCH  15  16
ENDBRANCH  14  15
ENDBRANCH  13  14
ENDBRANCH  10  13
ENDBRANCH   4   6
ENDBRANCH   1   4
BRANCH   1  20
HETATM   20  C6  UNL     1      -0.005   5.769  20.872  1.00  0.00     0.065 A 
HETATM   21  C7  UNL     1      -1.088   5.111  21.404  1.00  0.00     0.145 A 
HETATM   22  N3  UNL     1      -1.321   3.764  20.973  1.00  0.00    -0.081 NA
HETATM   23  N4  UNL     1      -1.900   5.709  22.297  1.00  0.00    -0.178 N 
HETATM   24  C8  UNL     1      -1.664   6.986  22.694  1.00  0.00     0.681 A 
ATOM     25  H4  UNL     1      -2.698   5.199  22.677  1.00  0.00     0.185 HD
HETATM   26  N6  UNL     1      -0.615   7.656  22.194  1.00  0.00    -0.176 N 
HETATM   27  C12 UNL     1       0.209   7.057  21.292  1.00  0.00     0.135 A 
ATOM     28  H6  UNL     1      -0.434   8.614  22.491  1.00  0.00     0.186 HD
BRANCH  24  29
HETATM   29  N5  UNL     1      -2.477   7.518  23.558  1.00  0.00    -0.222 N 
ATOM     30  H5  UNL     1      -2.746   8.499  23.471  1.00  0.00     0.178 HD
BRANCH  29  31
HETATM   31  C9  UNL     1      -2.996   6.717  24.641  1.00  0.00     0.091 C 
HETATM   32  C10 UNL     1      -4.495   6.527  24.394  1.00  0.00     0.032 C 
HETATM   33  C11 UNL     1      -2.858   7.457  25.964  1.00  0.00     0.032 C 
ENDBRANCH  29  31
ENDBRANCH  24  29
BRANCH  27  34
HETATM   34  N7  UNL     1       1.210   7.722  20.827  1.00  0.00    -0.319 N 
ATOM     35  H7  UNL     1       1.356   7.744  19.818  1.00  0.00     0.169 HD
BRANCH  34  36
HETATM   36  C13 UNL     1       2.119   8.424  21.662  1.00  0.00     0.354 C 
HETATM   37  O1  UNL     1       2.469   7.931  22.762  1.00  0.00    -0.283 OA
ENDBRANCH  34  36
ENDBRANCH  27  34
ENDBRANCH   1  20
TORSDOF 11
ENDMDL
MODEL 3
REMARK VINA RESULT: -7.524751189      1.287      1.828
REMARK  11 active torsions:
REMARK  status: ('A' for Active; 'I' for Inactive)
REMARK    1  A    between atoms: C3_4  and  N1_5 
REMARK    2  A    between atoms: N1_5  and  C4_7 
REMARK    3  A    between atoms: C4_7  and  C6_10 
REMARK    4  A    between atoms: C8_15  and  N5_16 
REMARK    5  A    between atoms: N5_16  and  C9_18 
REMARK    6  A    between atoms: C12_23  and  N7_24 
REMARK    7  A    between atoms: N7_24  and  C13_26 
REMARK    8  A    between atoms: C14_30  and  C15_31 
REMARK    9  A    between atoms: C15_31  and  C16_32 
REMARK   10  A    between atoms: C16_32  and  C17_33 
REMARK   11  A    between atoms: C17_33  and  N9_34 
ROOT
HETATM    1  C4  UNL     1       2.964   4.028  21.822  1.00  0.00     0.232 C 
HETATM    2  C5  UNL     1       2.826   5.323  22.520  1.00  0.00     0.089 C 
HETATM    3  N2  UNL     1       2.700   6.341  23.062  1.00  0.00    -0.195 NA
ENDROOT
BRANCH   1   4
HETATM    4  N1  UNL     1       4.289   3.548  22.097  1.00  0.00    -0.349 N 
ATOM      5  H1  UNL     1       5.076   4.166  21.903  1.00  0.00     0.163 HD
BRANCH   4   6
HETATM    6  C3  UNL     1       4.539   2.354  22.588  1.00  0.00     0.146 A 
HETATM    7  S1  UNL     1       6.047   1.633  22.941  1.00  0.00    -0.057 SA
HETATM    8  C2  UNL     1       5.479   0.135  23.519  1.00  0.00     0.005 A 
HETATM    9  C1  UNL     1       6.280  -1.033  24.021  1.00  0.00     0.058 C 
HETATM   10  C14 UNL     1       4.120   0.281  23.405  1.00  0.00     0.024 A 
HETATM   11  N8  UNL     1       3.670   1.404  22.934  1.00  0.00    -0.339 N 
ATOM     12  H8  UNL     1       2.666   1.558  22.831  1.00  0.00     0.168 HD
BRANCH  10  13
HETATM   13  C15 UNL     1       3.230  -0.876  23.833  1.00  0.00     0.060 C 
BRANCH  13  14
HETATM   14  C16 UNL     1       2.468  -0.501  25.079  1.00  0.00     0.033 C 
BRANCH  14  15
HETATM   15  C17 UNL     1       3.204  -1.019  26.293  1.00  0.00     0.230 C 
BRANCH  15  16
HETATM   16  N9  UNL     1       2.373  -1.083  27.462  1.00  0.00    -0.079 N 
ATOM     17  H93 UNL     1       1.859  -1.963  27.497  1.00  0.00     0.274 HD
ATOM     18  H92 UNL     1       2.936  -1.187  28.306  1.00  0.00     0.274 HD
ATOM     19  H91 UNL     1       1.740  -0.287  27.542  1.00  0.00     0.274 HD
ENDBRANCH  15  16
ENDBRANCH  14  15
ENDBRANCH  13  14
ENDBRANCH  10  13
ENDBRANCH   4   6
ENDBRANCH   1   4
BRANCH   1  20
HETATM   20  C6  UNL     1       2.724   4.225  20.376  1.00  0.00     0.065 A 
HETATM   21  C7  UNL     1       3.726   4.319  19.439  1.00  0.00     0.145 A 
HETATM   22  N3  UNL     1       5.078   4.220  19.903  1.00  0.00    -0.081 NA
HETATM   23  N4  UNL     1       3.447   4.498  18.133  1.00  0.00    -0.178 N 
HETATM   24  C8  UNL     1       2.160   4.590  17.710  1.00  0.00     0.681 A 
ATOM     25  H4  UNL     1       4.209   4.565  17.458  1.00  0.00     0.185 HD
HETATM   26  N6  UNL     1       1.159   4.501  18.600  1.00  0.00    -0.176 N 
HETATM   27  C12 UNL     1       1.434   4.321  19.920  1.00  0.00     0.135 A 
ATOM     28  H6  UNL     1       0.192   4.569  18.285  1.00  0.00     0.186 HD
BRANCH  24  29
HETATM   29  N5  UNL     1       1.944   4.762  16.440  1.00  0.00    -0.222 N 
ATOM     30  H5  UNL     1       1.376   5.547  16.119  1.00  0.00     0.178 HD
BRANCH  29  31
HETATM   31  C9  UNL     1       2.509   3.839  15.486  1.00  0.00     0.091 C 
HETATM   32  C10 UNL     1       3.238   4.665  14.422  1.00  0.00     0.032 C 
HETATM   33  C11 UNL     1       1.406   3.073  14.769  1.00  0.00     0.032 C 
ENDBRANCH  29  31
ENDBRANCH  24  29
BRANCH  27  34
HETATM   34  N7  UNL     1       0.455   4.239  20.753  1.00  0.00    -0.319 N 
ATOM     35  H7  UNL     1       0.431   3.453  21.403  1.00  0.00     0.169 HD
BRANCH  34  36
HETATM   36  C13 UNL     1      -0.592   5.197  20.804  1.00  0.00     0.354 C 
HETATM   37  O1  UNL     1      -0.345   6.406  20.577  1.00  0.00    -0.283 OA
ENDBRANCH  34  36
ENDBRANCH  27  34
ENDBRANCH   1  20
TORSDOF 11
ENDMDL
MODEL 4
REMARK VINA RESULT: -7.493990001      4.582      7.804
REMARK  11 active torsions:
REMARK  status: ('A' for Active; 'I' for Inactive)
REMARK    1  A    between atoms: C3_4  and  N1_5 
REMARK    2  A    between atoms: N1_5  and  C4_7 
REMARK    3  A    between atoms: C4_7  and  C6_10 
REMARK    4  A    between atoms: C8_15  and  N5_16 
REMARK    5  A    between atoms: N5_16  and  C9_18 
REMARK    6  A    between atoms: C12_23  and  N7_24 
REMARK    7  A    between atoms: N7_24  and  C13_26 
REMARK    8  A    between atoms: C14_30  and  C15_31 
REMARK    9  A    between atoms: C15_31  and  C16_32 
REMARK   10  A    between atoms: C16_32  and  C17_33 
REMARK   11  A    between atoms: C17_33  and  N9_34 
ROOT
HETATM    1  C4  UNL     1       0.263   5.009  20.201  1.00  0.00     0.232 C 
HETATM    2  C5  UNL     1       1.534   4.478  20.738  1.00  0.00     0.089 C 
HETATM    3  N2  UNL     1       2.522   4.052  21.173  1.00  0.00    -0.195 NA
ENDROOT
BRANCH   1   4
HETATM    4  N1  UNL     1       0.606   5.885  19.118  1.00  0.00    -0.349 N 
ATOM      5  H1  UNL     1       0.227   6.832  19.124  1.00  0.00     0.163 HD
BRANCH   4   6
HETATM    6  C3  UNL     1       1.382   5.532  18.117  1.00  0.00     0.146 A 
HETATM    7  S1  UNL     1       2.434   6.499  17.181  1.00  0.00    -0.057 SA
HETATM    8  C2  UNL     1       3.029   5.287  16.141  1.00  0.00     0.005 A 
HETATM    9  C1  UNL     1       4.026   5.426  15.026  1.00  0.00     0.058 C 
HETATM   10  C14 UNL     1       2.363   4.175  16.588  1.00  0.00     0.024 A 
HETATM   11  N8  UNL     1       1.540   4.321  17.582  1.00  0.00    -0.339 N 
ATOM     12  H8  UNL     1       1.022   3.521  17.948  1.00  0.00     0.168 HD
BRANCH  10  13
HETATM   13  C15 UNL     1       2.627   2.847  15.894  1.00  0.00     0.060 C 
BRANCH  13  14
HETATM   14  C16 UNL     1       3.677   2.074  16.653  1.00  0.00     0.033 C 
BRANCH  14  15
HETATM   15  C17 UNL     1       3.378   0.595  16.561  1.00  0.00     0.230 C 
BRANCH  15  16
HETATM   16  N9  UNL     1       2.517   0.135  17.613  1.00  0.00    -0.079 N 
ATOM     17  H93 UNL     1       3.032   0.027  18.486  1.00  0.00     0.274 HD
ATOM     18  H92 UNL     1       1.863   0.865  17.896  1.00  0.00     0.274 HD
ATOM     19  H91 UNL     1       2.022  -0.724  17.372  1.00  0.00     0.274 HD
ENDBRANCH  15  16
ENDBRANCH  14  15
ENDBRANCH  13  14
ENDBRANCH  10  13
ENDBRANCH   4   6
ENDBRANCH   1   4
BRANCH   1  20
HETATM   20  C6  UNL     1      -0.471   5.704  21.280  1.00  0.00     0.065 A 
HETATM   21  C7  UNL     1      -0.036   6.861  21.879  1.00  0.00     0.145 A 
HETATM   22  N3  UNL     1       1.203   7.419  21.423  1.00  0.00    -0.081 NA
HETATM   23  N4  UNL     1      -0.748   7.452  22.859  1.00  0.00    -0.178 N 
HETATM   24  C8  UNL     1      -1.921   6.911  23.280  1.00  0.00     0.681 A 
ATOM     25  H4  UNL     1      -0.403   8.311  23.288  1.00  0.00     0.185 HD
HETATM   26  N6  UNL     1      -2.373   5.781  22.715  1.00  0.00    -0.176 N 
HETATM   27  C12 UNL     1      -1.658   5.181  21.725  1.00  0.00     0.135 A 
ATOM     28  H6  UNL     1      -3.253   5.373  23.028  1.00  0.00     0.186 HD
BRANCH  24  29
HETATM   29  N5  UNL     1      -2.570   7.519  24.228  1.00  0.00    -0.222 N 
ATOM     30  H5  UNL     1      -2.812   8.505  24.132  1.00  0.00     0.178 HD
BRANCH  29  31
HETATM   31  C9  UNL     1      -2.946   6.793  25.417  1.00  0.00     0.091 C 
HETATM   32  C10 UNL     1      -3.783   7.736  26.286  1.00  0.00     0.032 C 
HETATM   33  C11 UNL     1      -1.712   6.425  26.229  1.00  0.00     0.032 C 
ENDBRANCH  29  31
ENDBRANCH  24  29
BRANCH  27  34
HETATM   34  N7  UNL     1      -2.115   4.096  21.199  1.00  0.00    -0.319 N 
ATOM     35  H7  UNL     1      -1.682   3.748  20.344  1.00  0.00     0.169 HD
BRANCH  34  36
HETATM   36  C13 UNL     1      -3.196   3.367  21.761  1.00  0.00     0.354 C 
HETATM   37  O1  UNL     1      -3.157   2.113  21.790  1.00  0.00    -0.283 OA
ENDBRANCH  34  36
ENDBRANCH  27  34
ENDBRANCH   1  20
TORSDOF 11
ENDMDL
MODEL 5
REMARK VINA RESULT: -7.235574492      4.774      6.593
REMARK  11 active torsions:
REMARK  status: ('A' for Active; 'I' for Inactive)
REMARK    1  A    between atoms: C3_4  and  N1_5 
REMARK    2  A    between atoms: N1_5  and  C4_7 
REMARK    3  A    between atoms: C4_7  and  C6_10 
REMARK    4  A    between atoms: C8_15  and  N5_16 
REMARK    5  A    between atoms: N5_16  and  C9_18 
REMARK    6  A    between atoms: C12_23  and  N7_24 
REMARK    7  A    between atoms: N7_24  and  C13_26 
REMARK    8  A    between atoms: C14_30  and  C15_31 
REMARK    9  A    between atoms: C15_31  and  C16_32 
REMARK   10  A    between atoms: C16_32  and  C17_33 
REMARK   11  A    between atoms: C17_33  and  N9_34 
ROOT
HETATM    1  C4  UNL     1       2.144   4.568  17.346  1.00  0.00     0.232 C 
HETATM    2  C5  UNL     1       3.016   5.427  16.519  1.00  0.00     0.089 C 
HETATM    3  N2  UNL     1       3.693   6.095  15.853  1.00  0.00    -0.195 NA
ENDROOT
BRANCH   1   4
HETATM    4  N1  UNL     1       2.493   4.820  18.715  1.00  0.00    -0.349 N 
ATOM      5  H1  UNL     1       3.325   4.367  19.093  1.00  0.00     0.163 HD
BRANCH   4   6
HETATM    6  C3  UNL     1       1.796   5.604  19.508  1.00  0.00     0.146 A 
HETATM    7  S1  UNL     1       0.115   5.609  19.806  1.00  0.00    -0.057 SA
HETATM    8  C2  UNL     1       0.061   6.899  20.918  1.00  0.00     0.005 A 
HETATM    9  C1  UNL     1      -1.137   7.474  21.618  1.00  0.00     0.058 C 
HETATM   10  C14 UNL     1       1.381   7.261  20.999  1.00  0.00     0.024 A 
HETATM   11  N8  UNL     1       2.236   6.597  20.282  1.00  0.00    -0.339 N 
ATOM     12  H8  UNL     1       3.229   6.832  20.310  1.00  0.00     0.168 HD
BRANCH  10  13
HETATM   13  C15 UNL     1       1.759   8.413  21.918  1.00  0.00     0.060 C 
BRANCH  13  14
HETATM   14  C16 UNL     1       2.846   7.973  22.867  1.00  0.00     0.033 C 
BRANCH  14  15
HETATM   15  C17 UNL     1       2.372   6.772  23.653  1.00  0.00     0.230 C 
BRANCH  15  16
HETATM   16  N9  UNL     1       3.100   5.576  23.334  1.00  0.00    -0.079 N 
ATOM     17  H93 UNL     1       2.823   5.212  22.423  1.00  0.00     0.274 HD
ATOM     18  H92 UNL     1       4.078   5.785  23.138  1.00  0.00     0.274 HD
ATOM     19  H91 UNL     1       3.017   4.858  24.055  1.00  0.00     0.274 HD
ENDBRANCH  15  16
ENDBRANCH  14  15
ENDBRANCH  13  14
ENDBRANCH  10  13
ENDBRANCH   4   6
ENDBRANCH   1   4
BRANCH   1  20
HETATM   20  C6  UNL     1       2.346   3.154  16.962  1.00  0.00     0.065 A 
HETATM   21  C7  UNL     1       3.108   2.266  17.684  1.00  0.00     0.145 A 
HETATM   22  N3  UNL     1       3.739   2.750  18.876  1.00  0.00    -0.081 NA
HETATM   23  N4  UNL     1       3.256   0.987  17.286  1.00  0.00    -0.178 N 
HETATM   24  C8  UNL     1       2.650   0.544  16.154  1.00  0.00     0.681 A 
ATOM     25  H4  UNL     1       3.827   0.348  17.839  1.00  0.00     0.185 HD
HETATM   26  N6  UNL     1       1.899   1.386  15.428  1.00  0.00    -0.176 N 
HETATM   27  C12 UNL     1       1.747   2.678  15.824  1.00  0.00     0.135 A 
ATOM     28  H6  UNL     1       1.443   1.056  14.578  1.00  0.00     0.186 HD
BRANCH  24  29
HETATM   29  N5  UNL     1       2.824  -0.698  15.813  1.00  0.00    -0.222 N 
ATOM     30  H5  UNL     1       2.123  -1.177  15.246  1.00  0.00     0.178 HD
BRANCH  29  31
HETATM   31  C9  UNL     1       4.012  -1.399  16.240  1.00  0.00     0.091 C 
HETATM   32  C10 UNL     1       5.202  -0.780  15.502  1.00  0.00     0.032 C 
HETATM   33  C11 UNL     1       3.945  -2.861  15.823  1.00  0.00     0.032 C 
ENDBRANCH  29  31
ENDBRANCH  24  29
BRANCH  27  34
HETATM   34  N7  UNL     1       1.020   3.466  15.109  1.00  0.00    -0.319 N 
ATOM     35  H7  UNL     1       0.168   3.851  15.517  1.00  0.00     0.169 HD
BRANCH  34  36
HETATM   36  C13 UNL     1       1.356   3.821  13.776  1.00  0.00     0.354 C 
HETATM   37  O1  UNL     1       2.548   4.078  13.478  1.00  0.00    -0.283 OA
ENDBRANCH  34  36
ENDBRANCH  27  34
ENDBRANCH   1  20
TORSDOF 11
ENDMDL
