MODEL 1
REMARK VINA RESULT: -8.200461397      0.000      0.000
REMARK  11 active torsions:
REMARK  status: ('A' for Active; 'I' for Inactive)
REMARK    1  A    between atoms: C2_2  and  C3_3 
REMARK    2  A    between atoms: C2_2  and  C14_27 
REMARK    3  A    between atoms: C3_3  and  O1_7 
REMARK    4  A    between atoms: O1_7  and  C4_8 
REMARK    5  A    between atoms: C4_8  and  N2_9 
REMARK       I    between atoms: N2_9  and  C5_11 
REMARK       I    between atoms: C5_11  and  N3_13 
REMARK    6  A    between atoms: N3_13  and  S1_15 
REMARK    7  A    between atoms: S1_15  and  N4_18 
REMARK    8  A    between atoms: N4_18  and  C6_19 
REMARK    9  A    between atoms: N4_18  and  C10_23 
REMARK   10  A    between atoms: C14_27  and  O5_28 
REMARK   11  A    between atoms: N5_30  and  O6_32 
ROOT
HETATM    1  N2  UNL     1       3.579   4.944  16.242  1.00  0.00    -0.321 N 
ATOM      2  H2  UNL     1       4.457   4.527  16.553  1.00  0.00     0.166 HD
HETATM    3  C5  UNL     1       2.689   5.484  17.211  1.00  0.00     0.332 C 
HETATM    4  O2  UNL     1       1.623   5.983  16.788  1.00  0.00    -0.246 OA
HETATM    5  N3  UNL     1       2.952   5.477  18.592  1.00  0.00    -0.219 N 
ATOM      6  H3  UNL     1       3.820   5.077  18.947  1.00  0.00     0.185 HD
ENDROOT
BRANCH   1   7
HETATM    7  C4  UNL     1       3.276   4.969  14.825  1.00  0.00     0.304 C 
BRANCH   7   8
HETATM    8  O1  UNL     1       2.934   3.713  14.324  1.00  0.00    -0.319 OA
BRANCH   8   9
HETATM    9  C3  UNL     1       1.759   3.029  14.685  1.00  0.00     0.125 C 
HETATM   10  N1  UNL     1       0.661   3.325  14.125  1.00  0.00    -0.383 N 
ATOM     11  H12 UNL     1      -0.191   2.829  14.387  1.00  0.00     0.158 HD
ATOM     12  H11 UNL     1       0.615   4.054  13.412  1.00  0.00     0.158 HD
BRANCH   9  13
HETATM   13  C2  UNL     1       1.827   1.979  15.714  1.00  0.00     0.132 C 
HETATM   14  C1  UNL     1       1.010   0.770  15.278  1.00  0.00     0.027 C 
BRANCH  13  15
HETATM   15  C14 UNL     1       3.206   1.534  15.983  1.00  0.00     0.147 C 
HETATM   16  N5  UNL     1       3.777   1.680  17.155  1.00  0.00    -0.250 N 
ATOM     17  H5  UNL     1       4.732   1.365  17.320  1.00  0.00     0.196 HD
BRANCH  15  18
HETATM   18  O5  UNL     1       4.008   0.923  15.022  1.00  0.00    -0.348 OA
ATOM     19  H5  UNL     1       4.718   0.330  15.241  1.00  0.00     0.219 HD
ENDBRANCH  15  18
BRANCH  16  20
HETATM   20  O6  UNL     1       3.045   2.272  18.150  1.00  0.00    -0.288 OA
ATOM     21  H6  UNL     1       3.519   2.687  18.861  1.00  0.00     0.244 HD
ENDBRANCH  16  20
ENDBRANCH  13  15
ENDBRANCH   9  13
ENDBRANCH   8   9
ENDBRANCH   7   8
ENDBRANCH   1   7
BRANCH   5  22
HETATM   22  S1  UNL     1       1.786   6.157  19.693  1.00  0.00     0.326 S 
HETATM   23  O3  UNL     1       1.496   7.560  19.184  1.00  0.00    -0.182 OA
HETATM   24  O4  UNL     1       0.473   5.418  19.428  1.00  0.00    -0.182 OA
BRANCH  22  25
HETATM   25  N4  UNL     1       2.252   6.181  21.277  1.00  0.00    -0.280 N 
BRANCH  25  26
HETATM   26  C6  UNL     1       2.982   5.131  21.860  1.00  0.00     0.098 C 
HETATM   27  C7  UNL     1       2.683   3.704  21.582  1.00  0.00     0.026 C 
HETATM   28  C8  UNL     1       4.205   3.457  21.663  1.00  0.00     0.004 C 
HETATM   29  C9  UNL     1       4.338   4.924  21.243  1.00  0.00     0.026 C 
ENDBRANCH  25  26
BRANCH  25  30
HETATM   30  C10 UNL     1       1.739   7.143  22.181  1.00  0.00     0.034 C 
HETATM   31  C11 UNL     1       2.278   8.555  21.871  1.00  0.00     0.038 C 
HETATM   32  C12 UNL     1       0.253   7.301  22.250  1.00  0.00     0.038 C 
HETATM   33  C13 UNL     1       2.202   6.843  23.614  1.00  0.00     0.038 C 
ENDBRANCH  25  30
ENDBRANCH  22  25
ENDBRANCH   5  22
TORSDOF 11
ENDMDL
MODEL 2
REMARK VINA RESULT: -7.872141499      4.342      7.124
REMARK  11 active torsions:
REMARK  status: ('A' for Active; 'I' for Inactive)
REMARK    1  A    between atoms: C2_2  and  C3_3 
REMARK    2  A    between atoms: C2_2  and  C14_27 
REMARK    3  A    between atoms: C3_3  and  O1_7 
REMARK    4  A    between atoms: O1_7  and  C4_8 
REMARK    5  A    between atoms: C4_8  and  N2_9 
REMARK       I    between atoms: N2_9  and  C5_11 
REMARK       I    between atoms: C5_11  and  N3_13 
REMARK    6  A    between atoms: N3_13  and  S1_15 
REMARK    7  A    between atoms: S1_15  and  N4_18 
REMARK    8  A    between atoms: N4_18  and  C6_19 
REMARK    9  A    between atoms: N4_18  and  C10_23 
REMARK   10  A    between atoms: C14_27  and  O5_28 
REMARK   11  A    between atoms: N5_30  and  O6_32 
ROOT
HETATM    1  N2  UNL     1       2.906   2.116  23.234  1.00  0.00    -0.321 N 
ATOM      2  H2  UNL     1       1.913   2.211  23.449  1.00  0.00     0.166 HD
HETATM    3  C5  UNL     1       3.416   2.704  22.044  1.00  0.00     0.332 C 
HETATM    4  O2  UNL     1       4.637   2.561  21.817  1.00  0.00    -0.246 OA
HETATM    5  N3  UNL     1       2.620   3.421  21.133  1.00  0.00    -0.219 N 
ATOM      6  H3  UNL     1       1.624   3.547  21.311  1.00  0.00     0.185 HD
ENDROOT
BRANCH   1   7
HETATM    7  C4  UNL     1       3.757   1.384  24.151  1.00  0.00     0.304 C 
BRANCH   7   8
HETATM    8  O1  UNL     1       4.004   0.077  23.733  1.00  0.00    -0.319 OA
BRANCH   8   9
HETATM    9  C3  UNL     1       4.721  -0.858  24.501  1.00  0.00     0.125 C 
HETATM   10  N1  UNL     1       4.103  -1.802  25.080  1.00  0.00    -0.383 N 
ATOM     11  H12 UNL     1       4.623  -2.481  25.637  1.00  0.00     0.158 HD
ATOM     12  H11 UNL     1       3.091  -1.896  24.997  1.00  0.00     0.158 HD
BRANCH   9  13
HETATM   13  C2  UNL     1       6.181  -0.721  24.622  1.00  0.00     0.132 C 
HETATM   14  C1  UNL     1       6.758  -1.924  25.357  1.00  0.00     0.027 C 
BRANCH  13  15
HETATM   15  C14 UNL     1       6.853  -0.613  23.314  1.00  0.00     0.147 C 
HETATM   16  N5  UNL     1       7.129   0.543  22.758  1.00  0.00    -0.250 N 
ATOM     17  H5  UNL     1       7.594   0.595  21.852  1.00  0.00     0.196 HD
BRANCH  15  18
HETATM   18  O5  UNL     1       7.247  -1.721  22.568  1.00  0.00    -0.348 OA
ATOM     19  H5  UNL     1       8.122  -2.089  22.611  1.00  0.00     0.219 HD
ENDBRANCH  15  18
BRANCH  16  20
HETATM   20  O6  UNL     1       6.771   1.677  23.437  1.00  0.00    -0.288 OA
ATOM     21  H6  UNL     1       6.346   2.371  22.945  1.00  0.00     0.244 HD
ENDBRANCH  16  20
ENDBRANCH  13  15
ENDBRANCH   9  13
ENDBRANCH   8   9
ENDBRANCH   7   8
ENDBRANCH   1   7
BRANCH   5  22
HETATM   22  S1  UNL     1       3.346   4.092  19.699  1.00  0.00     0.326 S 
HETATM   23  O3  UNL     1       4.715   4.601  20.120  1.00  0.00    -0.182 OA
HETATM   24  O4  UNL     1       3.686   2.901  18.800  1.00  0.00    -0.182 OA
BRANCH  22  25
HETATM   25  N4  UNL     1       2.468   5.280  18.960  1.00  0.00    -0.280 N 
BRANCH  25  26
HETATM   26  C6  UNL     1       2.591   5.559  17.588  1.00  0.00     0.098 C 
HETATM   27  C7  UNL     1       3.812   5.222  16.814  1.00  0.00     0.026 C 
HETATM   28  C8  UNL     1       2.872   4.905  15.632  1.00  0.00     0.004 C 
HETATM   29  C9  UNL     1       1.822   4.613  16.708  1.00  0.00     0.026 C 
ENDBRANCH  25  26
BRANCH  25  30
HETATM   30  C10 UNL     1       1.729   6.225  19.712  1.00  0.00     0.034 C 
HETATM   31  C11 UNL     1       0.251   5.804  19.852  1.00  0.00     0.038 C 
HETATM   32  C12 UNL     1       2.186   6.506  21.108  1.00  0.00     0.038 C 
HETATM   33  C13 UNL     1       1.693   7.581  18.994  1.00  0.00     0.038 C 
ENDBRANCH  25  30
ENDBRANCH  22  25
ENDBRANCH   5  22
TORSDOF 11
ENDMDL
MODEL 3
REMARK VINA RESULT: -7.720255546      1.187      1.241
REMARK  11 active torsions:
REMARK  status: ('A' for Active; 'I' for Inactive)
REMARK    1  A    between atoms: C2_2  and  C3_3 
REMARK    2  A    between atoms: C2_2  and  C14_27 
REMARK    3  A    between atoms: C3_3  and  O1_7 
REMARK    4  A    between atoms: O1_7  and  C4_8 
REMARK    5  A    between atoms: C4_8  and  N2_9 
REMARK       I    between atoms: N2_9  and  C5_11 
REMARK       I    between atoms: C5_11  and  N3_13 
REMARK    6  A    between atoms: N3_13  and  S1_15 
REMARK    7  A    between atoms: S1_15  and  N4_18 
REMARK    8  A    between atoms: N4_18  and  C6_19 
REMARK    9  A    between atoms: N4_18  and  C10_23 
REMARK   10  A    between atoms: C14_27  and  O5_28 
REMARK   11  A    between atoms: N5_30  and  O6_32 
ROOT
HETATM    1  N2  UNL     1       3.177   6.337  16.357  1.00  0.00    -0.321 N 
ATOM      2  H2  UNL     1       2.664   7.117  15.947  1.00  0.00     0.166 HD
HETATM    3  C5  UNL     1       2.756   5.815  17.611  1.00  0.00     0.332 C 
HETATM    4  O2  UNL     1       3.413   4.860  18.080  1.00  0.00    -0.246 OA
HETATM    5  N3  UNL     1       1.656   6.319  18.329  1.00  0.00    -0.219 N 
ATOM      6  H3  UNL     1       1.111   7.095  17.953  1.00  0.00     0.185 HD
ENDROOT
BRANCH   1   7
HETATM    7  C4  UNL     1       4.315   5.791  15.645  1.00  0.00     0.304 C 
BRANCH   7   8
HETATM    8  O1  UNL     1       4.131   4.460  15.271  1.00  0.00    -0.319 OA
BRANCH   8   9
HETATM    9  C3  UNL     1       2.905   3.950  14.806  1.00  0.00     0.125 C 
HETATM   10  N1  UNL     1       2.388   4.421  13.748  1.00  0.00    -0.383 N 
ATOM     11  H12 UNL     1       1.499   4.052  13.410  1.00  0.00     0.158 HD
ATOM     12  H11 UNL     1       2.849   5.167  13.226  1.00  0.00     0.158 HD
BRANCH   9  13
HETATM   13  C2  UNL     1       2.241   2.876  15.560  1.00  0.00     0.132 C 
HETATM   14  C1  UNL     1       1.066   2.328  14.761  1.00  0.00     0.027 C 
BRANCH  13  15
HETATM   15  C14 UNL     1       3.148   1.757  15.876  1.00  0.00     0.147 C 
HETATM   16  N5  UNL     1       3.446   1.420  17.108  1.00  0.00    -0.250 N 
ATOM     17  H5  UNL     1       4.076   0.642  17.304  1.00  0.00     0.196 HD
BRANCH  15  18
HETATM   18  O5  UNL     1       3.755   0.973  14.899  1.00  0.00    -0.348 OA
ATOM     19  H5  UNL     1       4.493   0.401  15.078  1.00  0.00     0.219 HD
ENDBRANCH  15  18
BRANCH  16  20
HETATM   20  O6  UNL     1       2.883   2.148  18.122  1.00  0.00    -0.288 OA
ATOM     21  H6  UNL     1       2.101   1.799  18.535  1.00  0.00     0.244 HD
ENDBRANCH  16  20
ENDBRANCH  13  15
ENDBRANCH   9  13
ENDBRANCH   8   9
ENDBRANCH   7   8
ENDBRANCH   1   7
BRANCH   5  22
HETATM   22  S1  UNL     1       1.233   5.611  19.863  1.00  0.00     0.326 S 
HETATM   23  O3  UNL     1      -0.217   5.993  20.116  1.00  0.00    -0.182 OA
HETATM   24  O4  UNL     1       1.153   4.102  19.624  1.00  0.00    -0.182 OA
BRANCH  22  25
HETATM   25  N4  UNL     1       2.197   6.055  21.127  1.00  0.00    -0.280 N 
BRANCH  25  26
HETATM   26  C6  UNL     1       3.094   5.160  21.736  1.00  0.00     0.098 C 
HETATM   27  C7  UNL     1       2.807   3.709  21.862  1.00  0.00     0.026 C 
HETATM   28  C8  UNL     1       4.315   3.477  21.629  1.00  0.00     0.004 C 
HETATM   29  C9  UNL     1       4.276   4.810  20.875  1.00  0.00     0.026 C 
ENDBRANCH  25  26
BRANCH  25  30
HETATM   30  C10 UNL     1       2.001   7.280  21.809  1.00  0.00     0.034 C 
HETATM   31  C11 UNL     1       2.032   8.479  20.838  1.00  0.00     0.038 C 
HETATM   32  C12 UNL     1       0.732   7.442  22.585  1.00  0.00     0.038 C 
HETATM   33  C13 UNL     1       3.143   7.539  22.802  1.00  0.00     0.038 C 
ENDBRANCH  25  30
ENDBRANCH  22  25
ENDBRANCH   5  22
TORSDOF 11
ENDMDL
MODEL 4
REMARK VINA RESULT: -7.685718308      1.218      2.153
REMARK  11 active torsions:
REMARK  status: ('A' for Active; 'I' for Inactive)
REMARK    1  A    between atoms: C2_2  and  C3_3 
REMARK    2  A    between atoms: C2_2  and  C14_27 
REMARK    3  A    between atoms: C3_3  and  O1_7 
REMARK    4  A    between atoms: O1_7  and  C4_8 
REMARK    5  A    between atoms: C4_8  and  N2_9 
REMARK       I    between atoms: N2_9  and  C5_11 
REMARK       I    between atoms: C5_11  and  N3_13 
REMARK    6  A    between atoms: N3_13  and  S1_15 
REMARK    7  A    between atoms: S1_15  and  N4_18 
REMARK    8  A    between atoms: N4_18  and  C6_19 
REMARK    9  A    between atoms: N4_18  and  C10_23 
REMARK   10  A    between atoms: C14_27  and  O5_28 
REMARK   11  A    between atoms: N5_30  and  O6_32 
ROOT
HETATM    1  N2  UNL     1       2.964   5.801  16.306  1.00  0.00    -0.321 N 
ATOM      2  H2  UNL     1       3.392   6.711  16.135  1.00  0.00     0.166 HD
HETATM    3  C5  UNL     1       2.246   5.591  17.517  1.00  0.00     0.332 C 
HETATM    4  O2  UNL     1       1.739   4.461  17.688  1.00  0.00    -0.246 OA
HETATM    5  N3  UNL     1       2.089   6.580  18.505  1.00  0.00    -0.219 N 
ATOM      6  H3  UNL     1       2.494   7.506  18.372  1.00  0.00     0.185 HD
ENDROOT
BRANCH   1   7
HETATM    7  C4  UNL     1       3.104   4.759  15.310  1.00  0.00     0.304 C 
BRANCH   7   8
HETATM    8  O1  UNL     1       4.012   3.770  15.687  1.00  0.00    -0.319 OA
BRANCH   8   9
HETATM    9  C3  UNL     1       3.625   2.539  16.247  1.00  0.00     0.125 C 
HETATM   10  N1  UNL     1       3.812   2.322  17.482  1.00  0.00    -0.383 N 
ATOM     11  H12 UNL     1       3.531   1.429  17.888  1.00  0.00     0.158 HD
ATOM     12  H11 UNL     1       4.240   3.029  18.080  1.00  0.00     0.158 HD
BRANCH   9  13
HETATM   13  C2  UNL     1       3.008   1.519  15.384  1.00  0.00     0.132 C 
HETATM   14  C1  UNL     1       3.678   0.170  15.610  1.00  0.00     0.027 C 
BRANCH  13  15
HETATM   15  C14 UNL     1       1.562   1.365  15.628  1.00  0.00     0.147 C 
HETATM   16  N5  UNL     1       0.655   1.865  14.823  1.00  0.00    -0.250 N 
ATOM     17  H5  UNL     1      -0.340   1.747  15.011  1.00  0.00     0.196 HD
BRANCH  15  18
HETATM   18  O5  UNL     1       1.046   0.679  16.725  1.00  0.00    -0.348 OA
ATOM     19  H5  UNL     1       0.120   0.497  16.833  1.00  0.00     0.219 HD
ENDBRANCH  15  18
BRANCH  16  20
HETATM   20  O6  UNL     1       1.091   2.552  13.721  1.00  0.00    -0.288 OA
ATOM     21  H6  UNL     1       0.613   3.334  13.470  1.00  0.00     0.244 HD
ENDBRANCH  16  20
ENDBRANCH  13  15
ENDBRANCH   9  13
ENDBRANCH   8   9
ENDBRANCH   7   8
ENDBRANCH   1   7
BRANCH   5  22
HETATM   22  S1  UNL     1       1.198   6.212  19.955  1.00  0.00     0.326 S 
HETATM   23  O3  UNL     1       0.030   7.184  19.989  1.00  0.00    -0.182 OA
HETATM   24  O4  UNL     1       0.516   4.866  19.702  1.00  0.00    -0.182 OA
BRANCH  22  25
HETATM   25  N4  UNL     1       2.076   6.283  21.352  1.00  0.00    -0.280 N 
BRANCH  25  26
HETATM   26  C6  UNL     1       2.942   5.249  21.746  1.00  0.00     0.098 C 
HETATM   27  C7  UNL     1       2.549   3.819  21.697  1.00  0.00     0.026 C 
HETATM   28  C8  UNL     1       4.009   3.519  21.297  1.00  0.00     0.004 C 
HETATM   29  C9  UNL     1       4.018   4.945  20.739  1.00  0.00     0.026 C 
ENDBRANCH  25  26
BRANCH  25  30
HETATM   30  C10 UNL     1       1.823   7.274  22.331  1.00  0.00     0.034 C 
HETATM   31  C11 UNL     1       2.642   7.022  23.615  1.00  0.00     0.038 C 
HETATM   32  C12 UNL     1       2.106   8.696  21.963  1.00  0.00     0.038 C 
HETATM   33  C13 UNL     1       0.355   7.234  22.778  1.00  0.00     0.038 C 
ENDBRANCH  25  30
ENDBRANCH  22  25
ENDBRANCH   5  22
TORSDOF 11
ENDMDL
MODEL 5
REMARK VINA RESULT: -7.666086359      4.429      7.307
REMARK  11 active torsions:
REMARK  status: ('A' for Active; 'I' for Inactive)
REMARK    1  A    between atoms: C2_2  and  C3_3 
REMARK    2  A    between atoms: C2_2  and  C14_27 
REMARK    3  A    between atoms: C3_3  and  O1_7 
REMARK    4  A    between atoms: O1_7  and  C4_8 
REMARK    5  A    between atoms: C4_8  and  N2_9 
REMARK       I    between atoms: N2_9  and  C5_11 
REMARK       I    between atoms: C5_11  and  N3_13 
REMARK    6  A    between atoms: N3_13  and  S1_15 
REMARK    7  A    between atoms: S1_15  and  N4_18 
REMARK    8  A    between atoms: N4_18  and  C6_19 
REMARK    9  A    between atoms: N4_18  and  C10_23 
REMARK   10  A    between atoms: C14_27  and  O5_28 
REMARK   11  A    between atoms: N5_30  and  O6_32 
ROOT
HETATM    1  N2  UNL     1       2.650   1.785  23.157  1.00  0.00    -0.321 N 
ATOM      2  H2  UNL     1       1.651   1.588  23.095  1.00  0.00     0.166 HD
HETATM    3  C5  UNL     1       3.229   2.719  22.253  1.00  0.00     0.332 C 
HETATM    4  O2  UNL     1       4.456   2.930  22.361  1.00  0.00    -0.246 OA
HETATM    5  N3  UNL     1       2.492   3.398  21.266  1.00  0.00    -0.219 N 
ATOM      6  H3  UNL     1       1.489   3.237  21.173  1.00  0.00     0.185 HD
ENDROOT
BRANCH   1   7
HETATM    7  C4  UNL     1       3.440   1.105  24.164  1.00  0.00     0.304 C 
BRANCH   7   8
HETATM    8  O1  UNL     1       4.031  -0.065  23.687  1.00  0.00    -0.319 OA
BRANCH   8   9
HETATM    9  C3  UNL     1       4.749  -0.957  24.504  1.00  0.00     0.125 C 
HETATM   10  N1  UNL     1       4.133  -1.872  25.130  1.00  0.00    -0.383 N 
ATOM     11  H12 UNL     1       4.654  -2.519  25.723  1.00  0.00     0.158 HD
ATOM     12  H11 UNL     1       3.121  -1.973  25.050  1.00  0.00     0.158 HD
BRANCH   9  13
HETATM   13  C2  UNL     1       6.209  -0.810  24.619  1.00  0.00     0.132 C 
HETATM   14  C1  UNL     1       6.799  -2.020  25.331  1.00  0.00     0.027 C 
BRANCH  13  15
HETATM   15  C14 UNL     1       6.873  -0.673  23.310  1.00  0.00     0.147 C 
HETATM   16  N5  UNL     1       7.110   0.494  22.760  1.00  0.00    -0.250 N 
ATOM     17  H5  UNL     1       7.571   0.565  21.853  1.00  0.00     0.196 HD
BRANCH  15  18
HETATM   18  O5  UNL     1       7.301  -1.765  22.558  1.00  0.00    -0.348 OA
ATOM     19  H5  UNL     1       7.869  -1.681  21.801  1.00  0.00     0.219 HD
ENDBRANCH  15  18
BRANCH  16  20
HETATM   20  O6  UNL     1       6.717   1.613  23.445  1.00  0.00    -0.288 OA
ATOM     21  H6  UNL     1       7.123   2.440  23.211  1.00  0.00     0.244 HD
ENDBRANCH  16  20
ENDBRANCH  13  15
ENDBRANCH   9  13
ENDBRANCH   8   9
ENDBRANCH   7   8
ENDBRANCH   1   7
BRANCH   5  22
HETATM   22  S1  UNL     1       3.303   4.515  20.204  1.00  0.00     0.326 S 
HETATM   23  O3  UNL     1       3.884   5.598  21.098  1.00  0.00    -0.182 OA
HETATM   24  O4  UNL     1       4.549   3.786  19.696  1.00  0.00    -0.182 OA
BRANCH  22  25
HETATM   25  N4  UNL     1       2.357   5.164  19.017  1.00  0.00    -0.280 N 
BRANCH  25  26
HETATM   26  C6  UNL     1       1.190   5.893  19.304  1.00  0.00     0.098 C 
HETATM   27  C7  UNL     1       0.122   5.369  20.191  1.00  0.00     0.026 C 
HETATM   28  C8  UNL     1      -0.065   6.821  20.682  1.00  0.00     0.004 C 
HETATM   29  C9  UNL     1       1.403   7.010  20.289  1.00  0.00     0.026 C 
ENDBRANCH  25  26
BRANCH  25  30
HETATM   30  C10 UNL     1       2.542   4.820  17.656  1.00  0.00     0.034 C 
HETATM   31  C11 UNL     1       1.548   5.568  16.744  1.00  0.00     0.038 C 
HETATM   32  C12 UNL     1       3.888   5.078  17.057  1.00  0.00     0.038 C 
HETATM   33  C13 UNL     1       2.252   3.330  17.428  1.00  0.00     0.038 C 
ENDBRANCH  25  30
ENDBRANCH  22  25
ENDBRANCH   5  22
TORSDOF 11
ENDMDL
