MODEL 1
REMARK VINA RESULT: -7.780620724      0.000      0.000
REMARK  9 active torsions:
REMARK  status: ('A' for Active; 'I' for Inactive)
REMARK    1  A    between atoms: O1_2  and  C2_3 
REMARK    2  A    between atoms: C2_3  and  C3_5 
REMARK    3  A    between atoms: C3_5  and  C4_6 
REMARK    4  A    between atoms: C3_5  and  C12_18 
REMARK    5  A    between atoms: C4_6  and  C5_7 
REMARK    6  A    between atoms: C11_15  and  O3_16 
REMARK    7  A    between atoms: C12_18  and  C13_19 
REMARK    8  A    between atoms: C12_18  and  N2_23 
REMARK    9  A    between atoms: C13_19  and  C14_20 
REMARK       I    between atoms: N2_23  and  C15_25 
ROOT
HETATM    1  C3  UNL     1       3.857   2.263  17.003  1.00  0.00     0.112 C 
ENDROOT
BRANCH   1   2
HETATM    2  C2  UNL     1       3.695   0.847  16.785  1.00  0.00     0.265 C 
HETATM    3  O2  UNL     1       2.916   0.111  17.503  1.00  0.00    -0.265 OA
BRANCH   2   4
HETATM    4  O1  UNL     1       4.344   0.103  15.793  1.00  0.00    -0.326 OA
HETATM    5  C1  UNL     1       4.414  -1.291  15.771  1.00  0.00     0.213 C 
ENDBRANCH   2   4
ENDBRANCH   1   2
BRANCH   1   6
HETATM    6  C4  UNL     1       2.877   2.840  18.012  1.00  0.00     0.044 C 
BRANCH   6   7
HETATM    7  C5  UNL     1       3.518   3.463  19.162  1.00  0.00    -0.020 C 
HETATM    8  C6  UNL     1       3.161   4.626  19.630  1.00  0.00    -0.045 C 
HETATM    9  C7  UNL     1       2.046   5.227  18.868  1.00  0.00     0.037 C 
HETATM   10  C11 UNL     1       3.964   5.065  20.811  1.00  0.00     0.219 C 
HETATM   11  C8  UNL     1       1.706   6.624  19.338  1.00  0.00     0.005 C 
HETATM   12  C9  UNL     1       0.951   6.623  20.640  1.00  0.00     0.011 C 
HETATM   13  C10 UNL     1       1.518   7.735  21.500  1.00  0.00     0.086 C 
HETATM   14  S1  UNL     1       2.480   7.045  22.891  1.00  0.00    -0.095 SA
HETATM   15  S2  UNL     1       2.993   5.033  22.343  1.00  0.00    -0.061 SA
BRANCH  10  16
HETATM   16  O3  UNL     1       5.073   4.269  21.014  1.00  0.00    -0.380 OA
ATOM     17  H3  UNL     1       5.696   4.666  21.611  1.00  0.00     0.211 HD
ENDBRANCH  10  16
ENDBRANCH   6   7
ENDBRANCH   1   6
BRANCH   1  18
HETATM   18  C12 UNL     1       3.629   3.046  15.669  1.00  0.00     0.106 C 
BRANCH  18  19
HETATM   19  C13 UNL     1       4.333   4.350  15.869  1.00  0.00     0.125 C 
BRANCH  19  20
HETATM   20  C14 UNL     1       3.729   5.549  15.327  1.00  0.00     0.233 C 
HETATM   21  N1  UNL     1       3.645   5.698  13.899  1.00  0.00    -0.062 NA
HETATM   22  O4  UNL     1       3.273   6.469  16.011  1.00  0.00    -0.277 OA
ENDBRANCH  19  20
ENDBRANCH  18  19
BRANCH  18  23
HETATM   23  N2  UNL     1       2.172   3.284  15.694  1.00  0.00    -0.359 N 
HETATM   24  C15 UNL     1       1.200   2.627  14.928  1.00  0.00     0.182 C 
HETATM   25  N3  UNL     1       0.454   3.294  14.116  1.00  0.00    -0.374 N 
HETATM   26  N4  UNL     1       1.007   1.228  15.064  1.00  0.00    -0.064 NA
ATOM     27  H32 UNL     1       0.593   4.300  14.018  1.00  0.00     0.158 HD
ATOM     28  H31 UNL     1      -0.253   2.816  13.558  1.00  0.00     0.158 HD
ATOM     29  H2  UNL     1       1.838   4.003  16.336  1.00  0.00     0.162 HD
ENDBRANCH  18  23
ENDBRANCH   1  18
TORSDOF 9
ENDMDL
MODEL 2
REMARK VINA RESULT: -7.540171260      2.508      3.867
REMARK  9 active torsions:
REMARK  status: ('A' for Active; 'I' for Inactive)
REMARK    1  A    between atoms: O1_2  and  C2_3 
REMARK    2  A    between atoms: C2_3  and  C3_5 
REMARK    3  A    between atoms: C3_5  and  C4_6 
REMARK    4  A    between atoms: C3_5  and  C12_18 
REMARK    5  A    between atoms: C4_6  and  C5_7 
REMARK    6  A    between atoms: C11_15  and  O3_16 
REMARK    7  A    between atoms: C12_18  and  C13_19 
REMARK    8  A    between atoms: C12_18  and  N2_23 
REMARK    9  A    between atoms: C13_19  and  C14_20 
REMARK       I    between atoms: N2_23  and  C15_25 
ROOT
HETATM    1  C3  UNL     1       2.823   3.936  16.643  1.00  0.00     0.112 C 
ENDROOT
BRANCH   1   2
HETATM    2  C2  UNL     1       3.228   5.282  16.322  1.00  0.00     0.265 C 
HETATM    3  O2  UNL     1       2.596   6.325  16.743  1.00  0.00    -0.265 OA
BRANCH   2   4
HETATM    4  O1  UNL     1       4.330   5.627  15.531  1.00  0.00    -0.326 OA
HETATM    5  C1  UNL     1       4.319   5.671  14.136  1.00  0.00     0.213 C 
ENDBRANCH   2   4
ENDBRANCH   1   2
BRANCH   1   6
HETATM    6  C4  UNL     1       3.041   3.567  18.102  1.00  0.00     0.044 C 
BRANCH   6   7
HETATM    7  C5  UNL     1       1.941   3.954  18.975  1.00  0.00    -0.020 C 
HETATM    8  C6  UNL     1       2.122   4.487  20.150  1.00  0.00    -0.045 C 
HETATM    9  C7  UNL     1       3.551   4.652  20.486  1.00  0.00     0.037 C 
HETATM   10  C11 UNL     1       0.847   4.796  20.866  1.00  0.00     0.219 C 
HETATM   11  C8  UNL     1       3.764   5.165  21.893  1.00  0.00     0.005 C 
HETATM   12  C9  UNL     1       3.460   6.634  22.019  1.00  0.00     0.011 C 
HETATM   13  C10 UNL     1       2.699   6.835  23.315  1.00  0.00     0.086 C 
HETATM   14  S1  UNL     1       0.951   7.241  22.978  1.00  0.00    -0.095 SA
HETATM   15  S2  UNL     1       0.543   6.580  20.975  1.00  0.00    -0.061 SA
BRANCH  10  16
HETATM   16  O3  UNL     1      -0.250   4.232  20.247  1.00  0.00    -0.380 OA
ATOM     17  H3  UNL     1      -0.827   4.887  19.871  1.00  0.00     0.211 HD
ENDBRANCH  10  16
ENDBRANCH   6   7
ENDBRANCH   1   6
BRANCH   1  18
HETATM   18  C12 UNL     1       3.645   2.908  15.801  1.00  0.00     0.106 C 
BRANCH  18  19
HETATM   19  C13 UNL     1       2.697   2.439  14.743  1.00  0.00     0.125 C 
BRANCH  19  20
HETATM   20  C14 UNL     1       1.281   2.423  15.043  1.00  0.00     0.233 C 
HETATM   21  N1  UNL     1       0.783   1.452  15.980  1.00  0.00    -0.062 NA
HETATM   22  O4  UNL     1       0.455   3.193  14.548  1.00  0.00    -0.277 OA
ENDBRANCH  19  20
ENDBRANCH  18  19
BRANCH  18  23
HETATM   23  N2  UNL     1       3.856   1.812  16.767  1.00  0.00    -0.359 N 
HETATM   24  C15 UNL     1       3.878   0.439  16.490  1.00  0.00     0.182 C 
HETATM   25  N3  UNL     1       3.026  -0.350  17.049  1.00  0.00    -0.374 N 
HETATM   26  N4  UNL     1       4.858  -0.098  15.616  1.00  0.00    -0.064 NA
ATOM     27  H32 UNL     1       2.322   0.036  17.678  1.00  0.00     0.158 HD
ATOM     28  H31 UNL     1       3.043  -1.350  16.847  1.00  0.00     0.158 HD
ATOM     29  H2  UNL     1       4.001   2.083  17.740  1.00  0.00     0.162 HD
ENDBRANCH  18  23
ENDBRANCH   1  18
TORSDOF 9
ENDMDL
MODEL 3
REMARK VINA RESULT: -7.307380792      5.154      7.020
REMARK  9 active torsions:
REMARK  status: ('A' for Active; 'I' for Inactive)
REMARK    1  A    between atoms: O1_2  and  C2_3 
REMARK    2  A    between atoms: C2_3  and  C3_5 
REMARK    3  A    between atoms: C3_5  and  C4_6 
REMARK    4  A    between atoms: C3_5  and  C12_18 
REMARK    5  A    between atoms: C4_6  and  C5_7 
REMARK    6  A    between atoms: C11_15  and  O3_16 
REMARK    7  A    between atoms: C12_18  and  C13_19 
REMARK    8  A    between atoms: C12_18  and  N2_23 
REMARK    9  A    between atoms: C13_19  and  C14_20 
REMARK       I    between atoms: N2_23  and  C15_25 
ROOT
HETATM    1  C3  UNL     1       3.230   4.258  21.110  1.00  0.00     0.112 C 
ENDROOT
BRANCH   1   2
HETATM    2  C2  UNL     1       3.301   4.118  19.676  1.00  0.00     0.265 C 
HETATM    3  O2  UNL     1       3.425   2.978  19.087  1.00  0.00    -0.265 OA
BRANCH   2   4
HETATM    4  O1  UNL     1       3.248   5.173  18.758  1.00  0.00    -0.326 OA
HETATM    5  C1  UNL     1       2.837   5.045  17.431  1.00  0.00     0.213 C 
ENDBRANCH   2   4
ENDBRANCH   1   2
BRANCH   1   6
HETATM    6  C4  UNL     1       3.139   2.931  21.847  1.00  0.00     0.044 C 
BRANCH   6   7
HETATM    7  C5  UNL     1       4.399   2.499  22.435  1.00  0.00    -0.020 C 
HETATM    8  C6  UNL     1       4.471   1.611  23.386  1.00  0.00    -0.045 C 
HETATM    9  C7  UNL     1       3.143   1.101  23.789  1.00  0.00     0.037 C 
HETATM   10  C11 UNL     1       5.868   1.331  23.835  1.00  0.00     0.219 C 
HETATM   11  C8  UNL     1       3.216   0.156  24.968  1.00  0.00     0.005 C 
HETATM   12  C9  UNL     1       3.734  -1.203  24.582  1.00  0.00     0.011 C 
HETATM   13  C10 UNL     1       4.700  -1.650  25.661  1.00  0.00     0.086 C 
HETATM   14  S1  UNL     1       6.417  -1.618  25.041  1.00  0.00    -0.095 SA
HETATM   15  S2  UNL     1       6.426  -0.319  23.330  1.00  0.00    -0.061 SA
BRANCH  10  16
HETATM   16  O3  UNL     1       6.772   2.241  23.327  1.00  0.00    -0.380 OA
ATOM     17  H3  UNL     1       7.229   2.715  24.012  1.00  0.00     0.211 HD
ENDBRANCH  10  16
ENDBRANCH   6   7
ENDBRANCH   1   6
BRANCH   1  18
HETATM   18  C12 UNL     1       1.959   5.074  21.512  1.00  0.00     0.106 C 
BRANCH  18  19
HETATM   19  C13 UNL     1       0.867   4.527  20.650  1.00  0.00     0.125 C 
BRANCH  19  20
HETATM   20  C14 UNL     1      -0.491   4.965  20.896  1.00  0.00     0.233 C 
HETATM   21  N1  UNL     1      -0.761   6.376  20.966  1.00  0.00    -0.062 NA
HETATM   22  O4  UNL     1      -1.450   4.206  21.051  1.00  0.00    -0.277 OA
ENDBRANCH  19  20
ENDBRANCH  18  19
BRANCH  18  23
HETATM   23  N2  UNL     1       2.299   6.431  21.042  1.00  0.00    -0.359 N 
HETATM   24  C15 UNL     1       2.454   7.580  21.829  1.00  0.00     0.182 C 
HETATM   25  N3  UNL     1       1.698   8.605  21.637  1.00  0.00    -0.374 N 
HETATM   26  N4  UNL     1       3.465   7.635  22.823  1.00  0.00    -0.064 NA
ATOM     27  H32 UNL     1       0.971   8.566  20.922  1.00  0.00     0.158 HD
ATOM     28  H31 UNL     1       1.810   9.441  22.210  1.00  0.00     0.158 HD
ATOM     29  H2  UNL     1       2.436   6.546  20.037  1.00  0.00     0.162 HD
ENDBRANCH  18  23
ENDBRANCH   1  18
TORSDOF 9
ENDMDL
MODEL 4
REMARK VINA RESULT: -7.278544637      4.683      6.492
REMARK  9 active torsions:
REMARK  status: ('A' for Active; 'I' for Inactive)
REMARK    1  A    between atoms: O1_2  and  C2_3 
REMARK    2  A    between atoms: C2_3  and  C3_5 
REMARK    3  A    between atoms: C3_5  and  C4_6 
REMARK    4  A    between atoms: C3_5  and  C12_18 
REMARK    5  A    between atoms: C4_6  and  C5_7 
REMARK    6  A    between atoms: C11_15  and  O3_16 
REMARK    7  A    between atoms: C12_18  and  C13_19 
REMARK    8  A    between atoms: C12_18  and  N2_23 
REMARK    9  A    between atoms: C13_19  and  C14_20 
REMARK       I    between atoms: N2_23  and  C15_25 
ROOT
HETATM    1  C3  UNL     1       3.835   4.358  20.419  1.00  0.00     0.112 C 
ENDROOT
BRANCH   1   2
HETATM    2  C2  UNL     1       3.684   3.941  19.047  1.00  0.00     0.265 C 
HETATM    3  O2  UNL     1       3.412   2.727  18.707  1.00  0.00    -0.265 OA
BRANCH   2   4
HETATM    4  O1  UNL     1       3.811   4.776  17.930  1.00  0.00    -0.326 OA
HETATM    5  C1  UNL     1       3.174   4.561  16.707  1.00  0.00     0.213 C 
ENDBRANCH   2   4
ENDBRANCH   1   2
BRANCH   1   6
HETATM    6  C4  UNL     1       3.557   3.252  21.425  1.00  0.00     0.044 C 
BRANCH   6   7
HETATM    7  C5  UNL     1       4.750   2.760  22.100  1.00  0.00    -0.020 C 
HETATM    8  C6  UNL     1       4.710   1.881  23.061  1.00  0.00    -0.045 C 
HETATM    9  C7  UNL     1       3.333   1.447  23.378  1.00  0.00     0.037 C 
HETATM   10  C11 UNL     1       6.057   1.532  23.605  1.00  0.00     0.219 C 
HETATM   11  C8  UNL     1       3.276   0.514  24.567  1.00  0.00     0.005 C 
HETATM   12  C9  UNL     1       3.744  -0.876  24.227  1.00  0.00     0.011 C 
HETATM   13  C10 UNL     1       4.610  -1.361  25.372  1.00  0.00     0.086 C 
HETATM   14  S1  UNL     1       6.364  -1.428  24.869  1.00  0.00    -0.095 SA
HETATM   15  S2  UNL     1       6.558  -0.152  23.152  1.00  0.00    -0.061 SA
BRANCH  10  16
HETATM   16  O3  UNL     1       7.041   2.386  23.152  1.00  0.00    -0.380 OA
ATOM     17  H3  UNL     1       7.625   2.664  23.848  1.00  0.00     0.211 HD
ENDBRANCH  10  16
ENDBRANCH   6   7
ENDBRANCH   1   6
BRANCH   1  18
HETATM   18  C12 UNL     1       2.835   5.514  20.747  1.00  0.00     0.106 C 
BRANCH  18  19
HETATM   19  C13 UNL     1       2.600   5.406  22.220  1.00  0.00     0.125 C 
BRANCH  19  20
HETATM   20  C14 UNL     1       2.570   6.623  23.003  1.00  0.00     0.233 C 
HETATM   21  N1  UNL     1       3.492   7.678  22.681  1.00  0.00    -0.062 NA
HETATM   22  O4  UNL     1       1.798   6.827  23.943  1.00  0.00    -0.277 OA
ENDBRANCH  19  20
ENDBRANCH  18  19
BRANCH  18  23
HETATM   23  N2  UNL     1       1.614   5.079  20.039  1.00  0.00    -0.359 N 
HETATM   24  C15 UNL     1       0.289   5.282  20.446  1.00  0.00     0.182 C 
HETATM   25  N3  UNL     1      -0.484   4.275  20.665  1.00  0.00    -0.374 N 
HETATM   26  N4  UNL     1      -0.222   6.598  20.589  1.00  0.00    -0.064 NA
ATOM     27  H32 UNL     1      -0.116   3.329  20.562  1.00  0.00     0.158 HD
ATOM     28  H31 UNL     1      -1.448   4.423  20.962  1.00  0.00     0.158 HD
ATOM     29  H2  UNL     1       1.750   4.579  19.161  1.00  0.00     0.162 HD
ENDBRANCH  18  23
ENDBRANCH   1  18
TORSDOF 9
ENDMDL
MODEL 5
REMARK VINA RESULT: -7.113943441      2.252      3.668
REMARK  9 active torsions:
REMARK  status: ('A' for Active; 'I' for Inactive)
REMARK    1  A    between atoms: O1_2  and  C2_3 
REMARK    2  A    between atoms: C2_3  and  C3_5 
REMARK    3  A    between atoms: C3_5  and  C4_6 
REMARK    4  A    between atoms: C3_5  and  C12_18 
REMARK    5  A    between atoms: C4_6  and  C5_7 
REMARK    6  A    between atoms: C11_15  and  O3_16 
REMARK    7  A    between atoms: C12_18  and  C13_19 
REMARK    8  A    between atoms: C12_18  and  N2_23 
REMARK    9  A    between atoms: C13_19  and  C14_20 
REMARK       I    between atoms: N2_23  and  C15_25 
ROOT
HETATM    1  C3  UNL     1       3.545   4.667  17.726  1.00  0.00     0.112 C 
ENDROOT
BRANCH   1   2
HETATM    2  C2  UNL     1       3.573   4.000  19.004  1.00  0.00     0.265 C 
HETATM    3  O2  UNL     1       2.523   3.495  19.556  1.00  0.00    -0.265 OA
BRANCH   2   4
HETATM    4  O1  UNL     1       4.713   3.819  19.796  1.00  0.00    -0.326 OA
HETATM    5  C1  UNL     1       4.965   4.502  20.987  1.00  0.00     0.213 C 
ENDBRANCH   2   4
ENDBRANCH   1   2
BRANCH   1   6
HETATM    6  C4  UNL     1       2.283   5.485  17.495  1.00  0.00     0.044 C 
BRANCH   6   7
HETATM    7  C5  UNL     1       2.111   6.579  18.440  1.00  0.00    -0.020 C 
HETATM    8  C6  UNL     1       1.115   6.643  19.277  1.00  0.00    -0.045 C 
HETATM    9  C7  UNL     1       0.195   5.493  19.156  1.00  0.00     0.037 C 
HETATM   10  C11 UNL     1       1.144   7.858  20.146  1.00  0.00     0.219 C 
HETATM   11  C8  UNL     1      -1.021   5.623  20.045  1.00  0.00     0.005 C 
HETATM   12  C9  UNL     1      -0.706   5.348  21.491  1.00  0.00     0.011 C 
HETATM   13  C10 UNL     1      -1.435   6.381  22.325  1.00  0.00     0.086 C 
HETATM   14  S1  UNL     1      -0.257   7.575  23.046  1.00  0.00    -0.095 SA
HETATM   15  S2  UNL     1       1.536   7.452  21.870  1.00  0.00    -0.061 SA
BRANCH  10  16
HETATM   16  O3  UNL     1       2.078   8.781  19.722  1.00  0.00    -0.380 OA
ATOM     17  H3  UNL     1       2.947   8.405  19.645  1.00  0.00     0.211 HD
ENDBRANCH  10  16
ENDBRANCH   6   7
ENDBRANCH   1   6
BRANCH   1  18
HETATM   18  C12 UNL     1       3.611   3.620  16.568  1.00  0.00     0.106 C 
BRANCH  18  19
HETATM   19  C13 UNL     1       2.252   3.656  15.945  1.00  0.00     0.125 C 
BRANCH  19  20
HETATM   20  C14 UNL     1       2.153   3.590  14.502  1.00  0.00     0.233 C 
HETATM   21  N1  UNL     1       2.962   4.478  13.711  1.00  0.00    -0.062 NA
HETATM   22  O4  UNL     1       1.414   2.816  13.889  1.00  0.00    -0.277 OA
ENDBRANCH  19  20
ENDBRANCH  18  19
BRANCH  18  23
HETATM   23  N2  UNL     1       3.762   2.350  17.304  1.00  0.00    -0.359 N 
HETATM   24  C15 UNL     1       3.430   1.068  16.846  1.00  0.00     0.182 C 
HETATM   25  N3  UNL     1       2.552   0.363  17.473  1.00  0.00    -0.374 N 
HETATM   26  N4  UNL     1       4.080   0.524  15.708  1.00  0.00    -0.064 NA
ATOM     27  H32 UNL     1       2.085   0.754  18.291  1.00  0.00     0.158 HD
ATOM     28  H31 UNL     1       2.310  -0.571  17.139  1.00  0.00     0.158 HD
ATOM     29  H2  UNL     1       4.149   2.412  18.246  1.00  0.00     0.162 HD
ENDBRANCH  18  23
ENDBRANCH   1  18
TORSDOF 9
ENDMDL
