MODEL 1
REMARK VINA RESULT: -6.811113907      0.000      0.000
REMARK  10 active torsions:
REMARK  status: ('A' for Active; 'I' for Inactive)
REMARK    1  A    between atoms: C2_2  and  C3_3 
REMARK    2  A    between atoms: C3_3  and  C4_4 
REMARK    3  A    between atoms: C4_4  and  C5_5 
REMARK    4  A    between atoms: C4_4  and  N1_7 
REMARK    5  A    between atoms: N1_7  and  C7_9 
REMARK    6  A    between atoms: C8_12  and  C9_13 
REMARK    7  A    between atoms: C9_13  and  O1_15 
REMARK    8  A    between atoms: C12_20  and  N4_21 
REMARK    9  A    between atoms: N5_24  and  C15_25 
REMARK   10  A    between atoms: C18_30  and  N7_31 
ROOT
HETATM    1  C7  UNL     1       2.868   5.386  20.699  1.00  0.00     0.133 A 
HETATM    2  N2  UNL     1       3.474   4.464  21.449  1.00  0.00    -0.328 N 
ATOM      3  H2  UNL     1       3.718   4.679  22.415  1.00  0.00     0.169 HD
HETATM    4  C8  UNL     1       3.762   3.268  20.945  1.00  0.00     0.112 A 
HETATM    5  N3  UNL     1       3.447   2.974  19.674  1.00  0.00    -0.339 N 
ATOM      6  H3  UNL     1       3.680   2.049  19.312  1.00  0.00     0.167 HD
HETATM    7  C11 UNL     1       2.838   3.849  18.861  1.00  0.00     0.110 A 
HETATM    8  C12 UNL     1       2.528   3.550  17.564  1.00  0.00     0.150 A 
HETATM    9  N6  UNL     1       1.923   4.499  16.809  1.00  0.00    -0.175 N 
ATOM     10  H6  UNL     1       1.689   4.283  15.840  1.00  0.00     0.186 HD
HETATM   11  C18 UNL     1       1.619   5.715  17.296  1.00  0.00     0.678 A 
HETATM   12  N8  UNL     1       1.929   5.998  18.569  1.00  0.00    -0.186 N 
ATOM     13  H8  UNL     1       1.704   6.918  18.946  1.00  0.00     0.184 HD
HETATM   14  C19 UNL     1       2.538   5.079  19.372  1.00  0.00     0.123 A 
ENDROOT
BRANCH   1  15
HETATM   15  N1  UNL     1       2.558   6.556  21.064  1.00  0.00    -0.370 N 
ATOM     16  H1  UNL     1       3.115   7.311  20.665  1.00  0.00     0.161 HD
BRANCH  15  17
HETATM   17  C4  UNL     1       1.547   6.939  21.947  1.00  0.00     0.082 C 
BRANCH  17  18
HETATM   18  C3  UNL     1       0.194   7.258  21.442  1.00  0.00     0.024 C 
BRANCH  18  19
HETATM   19  C2  UNL     1      -0.922   6.338  21.761  1.00  0.00    -0.002 C 
HETATM   20  C1  UNL     1      -0.931   5.287  20.625  1.00  0.00     0.005 C 
ENDBRANCH  18  19
ENDBRANCH  17  18
BRANCH  17  21
HETATM   21  C5  UNL     1       2.048   8.297  22.548  1.00  0.00     0.021 C 
HETATM   22  C6  UNL     1       2.258   9.240  21.377  1.00  0.00     0.007 C 
ENDBRANCH  17  21
ENDBRANCH  15  17
ENDBRANCH   1  15
BRANCH   4  23
HETATM   23  C9  UNL     1       4.403   2.269  21.852  1.00  0.00     0.181 C 
HETATM   24  C10 UNL     1       3.577   2.174  23.116  1.00  0.00     0.047 C 
BRANCH  23  25
HETATM   25  O1  UNL     1       5.695   2.604  22.207  1.00  0.00    -0.388 OA
ATOM     26  H1  UNL     1       5.807   2.736  23.141  1.00  0.00     0.210 HD
ENDBRANCH  23  25
ENDBRANCH   4  23
BRANCH   8  27
HETATM   27  N4  UNL     1       2.837   2.263  17.031  1.00  0.00    -0.338 N 
HETATM   28  C13 UNL     1       1.984   1.089  16.992  1.00  0.00     0.156 C 
HETATM   29  C14 UNL     1       2.523   0.291  15.848  1.00  0.00     0.294 C 
HETATM   30  N5  UNL     1       3.898   0.683  15.688  1.00  0.00     0.107 N 
HETATM   31  C17 UNL     1       4.103   1.878  16.443  1.00  0.00     0.399 C 
BRANCH  30  32
HETATM   32  C15 UNL     1       4.772  -0.395  16.108  1.00  0.00     0.270 C 
HETATM   33  C16 UNL     1       4.081  -1.703  15.857  1.00  0.00     0.037 C 
ENDBRANCH  30  32
ENDBRANCH   8  27
BRANCH  11  34
HETATM   34  N7  UNL     1       1.036   6.546  16.506  1.00  0.00    -0.234 N 
ATOM     35  H72 UNL     1       0.023   6.624  16.419  1.00  0.00     0.174 HD
ATOM     36  H71 UNL     1       1.627   7.150  15.934  1.00  0.00     0.174 HD
ENDBRANCH  11  34
TORSDOF 10
ENDMDL
MODEL 2
REMARK VINA RESULT: -6.744182418      6.417      9.226
REMARK  10 active torsions:
REMARK  status: ('A' for Active; 'I' for Inactive)
REMARK    1  A    between atoms: C2_2  and  C3_3 
REMARK    2  A    between atoms: C3_3  and  C4_4 
REMARK    3  A    between atoms: C4_4  and  C5_5 
REMARK    4  A    between atoms: C4_4  and  N1_7 
REMARK    5  A    between atoms: N1_7  and  C7_9 
REMARK    6  A    between atoms: C8_12  and  C9_13 
REMARK    7  A    between atoms: C9_13  and  O1_15 
REMARK    8  A    between atoms: C12_20  and  N4_21 
REMARK    9  A    between atoms: N5_24  and  C15_25 
REMARK   10  A    between atoms: C18_30  and  N7_31 
ROOT
HETATM    1  C7  UNL     1       9.370   3.426  23.709  1.00  0.00     0.133 A 
HETATM    2  N2  UNL     1      10.234   2.925  24.593  1.00  0.00    -0.328 N 
ATOM      3  H2  UNL     1      11.123   3.396  24.754  1.00  0.00     0.169 HD
HETATM    4  C8  UNL     1       9.943   1.815  25.265  1.00  0.00     0.112 A 
HETATM    5  N3  UNL     1       8.775   1.185  25.061  1.00  0.00    -0.339 N 
ATOM      6  H3  UNL     1       8.578   0.335  25.589  1.00  0.00     0.167 HD
HETATM    7  C11 UNL     1       7.859   1.629  24.189  1.00  0.00     0.110 A 
HETATM    8  C12 UNL     1       6.676   0.979  23.976  1.00  0.00     0.150 A 
HETATM    9  N6  UNL     1       5.811   1.492  23.067  1.00  0.00    -0.175 N 
ATOM     10  H6  UNL     1       4.927   1.013  22.902  1.00  0.00     0.186 HD
HETATM   11  C18 UNL     1       6.082   2.614  22.376  1.00  0.00     0.678 A 
HETATM   12  N8  UNL     1       7.246   3.243  22.592  1.00  0.00    -0.186 N 
ATOM     13  H8  UNL     1       7.459   4.093  22.071  1.00  0.00     0.184 HD
HETATM   14  C19 UNL     1       8.151   2.769  23.496  1.00  0.00     0.123 A 
ENDROOT
BRANCH   1  15
HETATM   15  N1  UNL     1       9.543   4.462  23.005  1.00  0.00    -0.370 N 
ATOM     16  H1  UNL     1       8.702   4.877  22.605  1.00  0.00     0.161 HD
BRANCH  15  17
HETATM   17  C4  UNL     1      10.745   5.107  22.710  1.00  0.00     0.082 C 
BRANCH  17  18
HETATM   18  C3  UNL     1      11.016   6.464  23.232  1.00  0.00     0.024 C 
BRANCH  18  19
HETATM   19  C2  UNL     1      11.883   6.611  24.423  1.00  0.00    -0.002 C 
HETATM   20  C1  UNL     1      11.654   8.055  24.929  1.00  0.00     0.005 C 
ENDBRANCH  18  19
ENDBRANCH  17  18
BRANCH  17  21
HETATM   21  C5  UNL     1      10.709   5.308  21.156  1.00  0.00     0.021 C 
HETATM   22  C6  UNL     1      12.137   5.576  20.719  1.00  0.00     0.007 C 
ENDBRANCH  17  21
ENDBRANCH  15  17
ENDBRANCH   1  15
BRANCH   4  23
HETATM   23  C9  UNL     1      10.937   1.331  26.270  1.00  0.00     0.181 C 
HETATM   24  C10 UNL     1      10.201   0.533  27.323  1.00  0.00     0.047 C 
BRANCH  23  25
HETATM   25  O1  UNL     1      11.616   2.354  26.903  1.00  0.00    -0.388 OA
ATOM     26  H1  UNL     1      11.436   3.210  26.533  1.00  0.00     0.210 HD
ENDBRANCH  23  25
ENDBRANCH   4  23
BRANCH   8  27
HETATM   27  N4  UNL     1       6.369  -0.209  24.703  1.00  0.00    -0.338 N 
HETATM   28  C13 UNL     1       6.808  -1.564  24.420  1.00  0.00     0.156 C 
HETATM   29  C14 UNL     1       6.734  -2.250  25.746  1.00  0.00     0.294 C 
HETATM   30  N5  UNL     1       5.768  -1.526  26.528  1.00  0.00     0.107 N 
HETATM   31  C17 UNL     1       5.515  -0.283  25.870  1.00  0.00     0.399 C 
BRANCH  30  32
HETATM   32  C15 UNL     1       4.568  -2.321  26.691  1.00  0.00     0.270 C 
HETATM   33  C16 UNL     1       3.394  -1.399  26.846  1.00  0.00     0.037 C 
ENDBRANCH  30  32
ENDBRANCH   8  27
BRANCH  11  34
HETATM   34  N7  UNL     1       5.195   3.030  21.541  1.00  0.00    -0.234 N 
ATOM     35  H72 UNL     1       4.533   2.414  21.071  1.00  0.00     0.174 HD
ATOM     36  H71 UNL     1       5.166   4.030  21.341  1.00  0.00     0.174 HD
ENDBRANCH  11  34
TORSDOF 10
ENDMDL
MODEL 3
REMARK VINA RESULT: -6.663986746      4.771      8.712
REMARK  10 active torsions:
REMARK  status: ('A' for Active; 'I' for Inactive)
REMARK    1  A    between atoms: C2_2  and  C3_3 
REMARK    2  A    between atoms: C3_3  and  C4_4 
REMARK    3  A    between atoms: C4_4  and  C5_5 
REMARK    4  A    between atoms: C4_4  and  N1_7 
REMARK    5  A    between atoms: N1_7  and  C7_9 
REMARK    6  A    between atoms: C8_12  and  C9_13 
REMARK    7  A    between atoms: C9_13  and  O1_15 
REMARK    8  A    between atoms: C12_20  and  N4_21 
REMARK    9  A    between atoms: N5_24  and  C15_25 
REMARK   10  A    between atoms: C18_30  and  N7_31 
ROOT
HETATM    1  C7  UNL     1       6.988   0.274  24.915  1.00  0.00     0.133 A 
HETATM    2  N2  UNL     1       7.997   1.099  24.631  1.00  0.00    -0.328 N 
ATOM      3  H2  UNL     1       8.918   0.930  25.034  1.00  0.00     0.169 HD
HETATM    4  C8  UNL     1       7.811   2.140  23.825  1.00  0.00     0.112 A 
HETATM    5  N3  UNL     1       6.603   2.375  23.289  1.00  0.00    -0.339 N 
ATOM      6  H3  UNL     1       6.487   3.181  22.675  1.00  0.00     0.167 HD
HETATM    7  C11 UNL     1       5.543   1.590  23.529  1.00  0.00     0.110 A 
HETATM    8  C12 UNL     1       4.312   1.838  22.990  1.00  0.00     0.150 A 
HETATM    9  N6  UNL     1       3.291   0.999  23.295  1.00  0.00    -0.175 N 
ATOM     10  H6  UNL     1       2.370   1.178  22.897  1.00  0.00     0.186 HD
HETATM   11  C18 UNL     1       3.455  -0.062  24.105  1.00  0.00     0.678 A 
HETATM   12  N8  UNL     1       4.667  -0.295  24.630  1.00  0.00    -0.186 N 
ATOM     13  H8  UNL     1       4.800  -1.096  25.246  1.00  0.00     0.184 HD
HETATM   14  C19 UNL     1       5.727   0.518  24.355  1.00  0.00     0.123 A 
ENDROOT
BRANCH   1  15
HETATM   15  N1  UNL     1       7.043  -0.734  25.674  1.00  0.00    -0.370 N 
ATOM     16  H1  UNL     1       7.435  -1.583  25.265  1.00  0.00     0.161 HD
BRANCH  15  17
HETATM   17  C4  UNL     1       6.634  -0.829  27.006  1.00  0.00     0.082 C 
BRANCH  17  18
HETATM   18  C3  UNL     1       7.619  -1.101  28.075  1.00  0.00     0.024 C 
BRANCH  18  19
HETATM   19  C2  UNL     1       9.016  -1.414  27.695  1.00  0.00    -0.002 C 
HETATM   20  C1  UNL     1       9.765  -0.060  27.710  1.00  0.00     0.005 C 
ENDBRANCH  18  19
ENDBRANCH  17  18
BRANCH  17  21
HETATM   21  C5  UNL     1       5.696  -2.083  27.038  1.00  0.00     0.021 C 
HETATM   22  C6  UNL     1       4.416  -1.652  27.729  1.00  0.00     0.007 C 
ENDBRANCH  17  21
ENDBRANCH  15  17
ENDBRANCH   1  15
BRANCH   4  23
HETATM   23  C9  UNL     1       8.993   2.999  23.516  1.00  0.00     0.181 C 
HETATM   24  C10 UNL     1      10.217   2.368  24.142  1.00  0.00     0.047 C 
BRANCH  23  25
HETATM   25  O1  UNL     1       8.877   4.286  24.004  1.00  0.00    -0.388 OA
ATOM     26  H1  UNL     1       9.183   4.948  23.396  1.00  0.00     0.210 HD
ENDBRANCH  23  25
ENDBRANCH   4  23
BRANCH   8  27
HETATM   27  N4  UNL     1       4.119   2.955  22.124  1.00  0.00    -0.338 N 
HETATM   28  C13 UNL     1       5.046   3.489  21.142  1.00  0.00     0.156 C 
HETATM   29  C14 UNL     1       4.164   4.187  20.157  1.00  0.00     0.294 C 
HETATM   30  N5  UNL     1       2.957   4.530  20.861  1.00  0.00     0.107 N 
HETATM   31  C17 UNL     1       2.943   3.799  22.088  1.00  0.00     0.399 C 
BRANCH  30  32
HETATM   32  C15 UNL     1       2.895   5.963  21.069  1.00  0.00     0.270 C 
HETATM   33  C16 UNL     1       2.874   6.237  22.544  1.00  0.00     0.037 C 
ENDBRANCH  30  32
ENDBRANCH   8  27
BRANCH  11  34
HETATM   34  N7  UNL     1       2.431  -0.806  24.329  1.00  0.00    -0.234 N 
ATOM     35  H72 UNL     1       1.483  -0.562  24.041  1.00  0.00     0.174 HD
ATOM     36  H71 UNL     1       2.582  -1.683  24.828  1.00  0.00     0.174 HD
ENDBRANCH  11  34
TORSDOF 10
ENDMDL
MODEL 4
REMARK VINA RESULT: -6.596012600      5.866      8.889
REMARK  10 active torsions:
REMARK  status: ('A' for Active; 'I' for Inactive)
REMARK    1  A    between atoms: C2_2  and  C3_3 
REMARK    2  A    between atoms: C3_3  and  C4_4 
REMARK    3  A    between atoms: C4_4  and  C5_5 
REMARK    4  A    between atoms: C4_4  and  N1_7 
REMARK    5  A    between atoms: N1_7  and  C7_9 
REMARK    6  A    between atoms: C8_12  and  C9_13 
REMARK    7  A    between atoms: C9_13  and  O1_15 
REMARK    8  A    between atoms: C12_20  and  N4_21 
REMARK    9  A    between atoms: N5_24  and  C15_25 
REMARK   10  A    between atoms: C18_30  and  N7_31 
ROOT
HETATM    1  C7  UNL     1       8.667   1.922  24.116  1.00  0.00     0.133 A 
HETATM    2  N2  UNL     1       9.121   1.233  25.164  1.00  0.00    -0.328 N 
ATOM      3  H2  UNL     1      10.097   1.322  25.444  1.00  0.00     0.169 HD
HETATM    4  C8  UNL     1       8.309   0.429  25.845  1.00  0.00     0.112 A 
HETATM    5  N3  UNL     1       7.022   0.302  25.485  1.00  0.00    -0.339 N 
ATOM      6  H3  UNL     1       6.422  -0.322  26.025  1.00  0.00     0.167 HD
HETATM    7  C11 UNL     1       6.496   0.962  24.445  1.00  0.00     0.110 A 
HETATM    8  C12 UNL     1       5.188   0.821  24.074  1.00  0.00     0.150 A 
HETATM    9  N6  UNL     1       4.741   1.518  23.001  1.00  0.00    -0.175 N 
ATOM     10  H6  UNL     1       3.766   1.418  22.719  1.00  0.00     0.186 HD
HETATM   11  C18 UNL     1       5.542   2.338  22.297  1.00  0.00     0.678 A 
HETATM   12  N8  UNL     1       6.823   2.468  22.668  1.00  0.00    -0.186 N 
ATOM     13  H8  UNL     1       7.437   3.086  22.138  1.00  0.00     0.184 HD
HETATM   14  C19 UNL     1       7.323   1.789  23.740  1.00  0.00     0.123 A 
ENDROOT
BRANCH   1  15
HETATM   15  N1  UNL     1       9.345   2.701  23.388  1.00  0.00    -0.370 N 
ATOM     16  H1  UNL     1       9.565   2.362  22.452  1.00  0.00     0.161 HD
BRANCH  15  17
HETATM   17  C4  UNL     1       9.829   3.971  23.710  1.00  0.00     0.082 C 
BRANCH  17  18
HETATM   18  C3  UNL     1       9.568   5.121  22.817  1.00  0.00     0.024 C 
BRANCH  18  19
HETATM   19  C2  UNL     1      10.717   5.818  22.196  1.00  0.00    -0.002 C 
HETATM   20  C1  UNL     1      10.603   5.537  20.678  1.00  0.00     0.005 C 
ENDBRANCH  18  19
ENDBRANCH  17  18
BRANCH  17  21
HETATM   21  C5  UNL     1      11.388   3.816  23.667  1.00  0.00     0.021 C 
HETATM   22  C6  UNL     1      11.853   3.695  25.107  1.00  0.00     0.007 C 
ENDBRANCH  17  21
ENDBRANCH  15  17
ENDBRANCH   1  15
BRANCH   4  23
HETATM   23  C9  UNL     1       8.873  -0.281  27.033  1.00  0.00     0.181 C 
HETATM   24  C10 UNL     1       7.725  -0.853  27.835  1.00  0.00     0.047 C 
BRANCH  23  25
HETATM   25  O1  UNL     1       9.609   0.542  27.863  1.00  0.00    -0.388 OA
ATOM     26  H1  UNL     1       9.195   0.694  28.704  1.00  0.00     0.210 HD
ENDBRANCH  23  25
ENDBRANCH   4  23
BRANCH   8  27
HETATM   27  N4  UNL     1       4.322  -0.040  24.812  1.00  0.00    -0.338 N 
HETATM   28  C13 UNL     1       2.875   0.027  24.911  1.00  0.00     0.156 C 
HETATM   29  C14 UNL     1       2.474  -1.373  25.250  1.00  0.00     0.294 C 
HETATM   30  N5  UNL     1       3.612  -1.984  25.881  1.00  0.00     0.107 N 
HETATM   31  C17 UNL     1       4.746  -1.148  25.643  1.00  0.00     0.399 C 
BRANCH  30  32
HETATM   32  C15 UNL     1       3.352  -2.174  27.294  1.00  0.00     0.270 C 
HETATM   33  C16 UNL     1       4.441  -1.507  28.082  1.00  0.00     0.037 C 
ENDBRANCH  30  32
ENDBRANCH   8  27
BRANCH  11  34
HETATM   34  N7  UNL     1       5.025   2.965  21.299  1.00  0.00    -0.234 N 
ATOM     35  H72 UNL     1       5.351   3.876  20.977  1.00  0.00     0.174 HD
ATOM     36  H71 UNL     1       4.243   2.523  20.816  1.00  0.00     0.174 HD
ENDBRANCH  11  34
TORSDOF 10
ENDMDL
MODEL 5
REMARK VINA RESULT: -6.591724443      4.660      8.479
REMARK  10 active torsions:
REMARK  status: ('A' for Active; 'I' for Inactive)
REMARK    1  A    between atoms: C2_2  and  C3_3 
REMARK    2  A    between atoms: C3_3  and  C4_4 
REMARK    3  A    between atoms: C4_4  and  C5_5 
REMARK    4  A    between atoms: C4_4  and  N1_7 
REMARK    5  A    between atoms: N1_7  and  C7_9 
REMARK    6  A    between atoms: C8_12  and  C9_13 
REMARK    7  A    between atoms: C9_13  and  O1_15 
REMARK    8  A    between atoms: C12_20  and  N4_21 
REMARK    9  A    between atoms: N5_24  and  C15_25 
REMARK   10  A    between atoms: C18_30  and  N7_31 
ROOT
HETATM    1  C7  UNL     1       7.165  -0.060  24.539  1.00  0.00     0.133 A 
HETATM    2  N2  UNL     1       8.114   0.873  24.450  1.00  0.00    -0.328 N 
ATOM      3  H2  UNL     1       9.029   0.706  24.869  1.00  0.00     0.169 HD
HETATM    4  C8  UNL     1       7.877   2.019  23.818  1.00  0.00     0.112 A 
HETATM    5  N3  UNL     1       6.676   2.251  23.263  1.00  0.00    -0.339 N 
ATOM      6  H3  UNL     1       6.521   3.139  22.786  1.00  0.00     0.167 HD
HETATM    7  C11 UNL     1       5.675   1.362  23.313  1.00  0.00     0.110 A 
HETATM    8  C12 UNL     1       4.451   1.606  22.757  1.00  0.00     0.150 A 
HETATM    9  N6  UNL     1       3.491   0.654  22.863  1.00  0.00    -0.175 N 
ATOM     10  H6  UNL     1       2.575   0.830  22.451  1.00  0.00     0.186 HD
HETATM   11  C18 UNL     1       3.708  -0.513  23.496  1.00  0.00     0.678 A 
HETATM   12  N8  UNL     1       4.912  -0.741  24.039  1.00  0.00    -0.186 N 
ATOM     13  H8  UNL     1       5.083  -1.623  24.521  1.00  0.00     0.184 HD
HETATM   14  C19 UNL     1       5.912   0.182  23.959  1.00  0.00     0.123 A 
ENDROOT
BRANCH   1  15
HETATM   15  N1  UNL     1       7.271  -1.175  25.123  1.00  0.00    -0.370 N 
ATOM     16  H1  UNL     1       7.447  -1.981  24.523  1.00  0.00     0.161 HD
BRANCH  15  17
HETATM   17  C4  UNL     1       7.178  -1.439  26.491  1.00  0.00     0.082 C 
BRANCH  17  18
HETATM   18  C3  UNL     1       5.896  -1.250  27.205  1.00  0.00     0.024 C 
BRANCH  18  19
HETATM   19  C2  UNL     1       4.771  -2.165  26.906  1.00  0.00    -0.002 C 
HETATM   20  C1  UNL     1       3.496  -1.424  27.376  1.00  0.00     0.005 C 
ENDBRANCH  18  19
ENDBRANCH  17  18
BRANCH  17  21
HETATM   21  C5  UNL     1       8.130  -0.388  27.157  1.00  0.00     0.021 C 
HETATM   22  C6  UNL     1       9.124  -1.171  27.996  1.00  0.00     0.007 C 
ENDBRANCH  17  21
ENDBRANCH  15  17
ENDBRANCH   1  15
BRANCH   4  23
HETATM   23  C9  UNL     1       8.997   3.002  23.720  1.00  0.00     0.181 C 
HETATM   24  C10 UNL     1      10.249   2.354  24.267  1.00  0.00     0.047 C 
BRANCH  23  25
HETATM   25  O1  UNL     1       8.769   4.164  24.430  1.00  0.00    -0.388 OA
ATOM     26  H1  UNL     1       9.500   4.419  24.979  1.00  0.00     0.210 HD
ENDBRANCH  23  25
ENDBRANCH   4  23
BRANCH   8  27
HETATM   27  N4  UNL     1       4.204   2.835  22.077  1.00  0.00    -0.338 N 
HETATM   28  C13 UNL     1       4.943   3.399  20.962  1.00  0.00     0.156 C 
HETATM   29  C14 UNL     1       3.952   4.295  20.290  1.00  0.00     0.294 C 
HETATM   30  N5  UNL     1       2.985   4.658  21.291  1.00  0.00     0.107 N 
HETATM   31  C17 UNL     1       3.160   3.783  22.407  1.00  0.00     0.399 C 
BRANCH  30  32
HETATM   32  C15 UNL     1       3.144   6.053  21.651  1.00  0.00     0.270 C 
HETATM   33  C16 UNL     1       2.729   6.235  23.081  1.00  0.00     0.037 C 
ENDBRANCH  30  32
ENDBRANCH   8  27
BRANCH  11  34
HETATM   34  N7  UNL     1       2.738  -1.358  23.537  1.00  0.00    -0.234 N 
ATOM     35  H72 UNL     1       2.406  -1.791  24.399  1.00  0.00     0.174 HD
ATOM     36  H71 UNL     1       2.290  -1.607  22.656  1.00  0.00     0.174 HD
ENDBRANCH  11  34
TORSDOF 10
ENDMDL
