MODEL 1
REMARK VINA RESULT: -6.402922901      0.000      0.000
REMARK  2 active torsions:
REMARK  status: ('A' for Active; 'I' for Inactive)
REMARK    1  A    between atoms: C3_7  and  C4_8 
REMARK    2  A    between atoms: N2_9  and  C5_11 
ROOT
HETATM    1  C5  UNL     1       9.542  16.534  32.481  1.00  0.00     0.189 A 
HETATM    2  N3  UNL     1      10.082  16.441  33.718  1.00  0.00    -0.277 N 
ATOM      3  H3  UNL     1       9.580  16.836  34.513  1.00  0.00     0.189 HD
HETATM    4  N4  UNL     1      11.243  15.851  33.915  1.00  0.00    -0.250 N 
ATOM      5  H4  UNL     1      11.610  15.805  34.866  1.00  0.00     0.192 HD
HETATM    6  C6  UNL     1      11.968  15.304  32.917  1.00  0.00     0.341 A 
HETATM    7  O3  UNL     1      13.086  14.738  33.123  1.00  0.00    -0.245 OA
HETATM    8  N5  UNL     1      11.461  15.378  31.674  1.00  0.00    -0.271 N 
ATOM      9  H5  UNL     1      11.980  14.975  30.893  1.00  0.00     0.174 HD
HETATM   10  C7  UNL     1      10.264  15.983  31.444  1.00  0.00     0.294 A 
HETATM   11  O4  UNL     1       9.801  16.046  30.284  1.00  0.00    -0.264 OA
ENDROOT
BRANCH   1  12
HETATM   12  N2  UNL     1       8.292  17.167  32.248  1.00  0.00    -0.349 N 
HETATM   13  C4  UNL     1       8.234  18.428  32.014  1.00  0.00     0.086 C 
ATOM     14  H2  UNL     1       7.434  16.615  32.267  1.00  0.00     0.166 HD
BRANCH  13  15
HETATM   15  C3  UNL     1       6.961  19.146  31.764  1.00  0.00     0.208 C 
HETATM   16  C1  UNL     1       5.882  18.159  31.494  1.00  0.00     0.242 C 
HETATM   17  O1  UNL     1       5.085  17.573  32.259  1.00  0.00    -0.272 OA
HETATM   18  N1  UNL     1       6.215  18.244  30.118  1.00  0.00    -0.296 N 
HETATM   19  C2  UNL     1       6.742  19.532  30.362  1.00  0.00     0.242 C 
ATOM     20  H1  UNL     1       6.117  17.638  29.303  1.00  0.00     0.171 HD
HETATM   21  O2  UNL     1       6.926  20.542  29.662  1.00  0.00    -0.272 OA
ENDBRANCH  13  15
ENDBRANCH   1  12
TORSDOF 2
ENDMDL
MODEL 2
REMARK VINA RESULT: -6.306219826      0.865      1.906
REMARK  2 active torsions:
REMARK  status: ('A' for Active; 'I' for Inactive)
REMARK    1  A    between atoms: C3_7  and  C4_8 
REMARK    2  A    between atoms: N2_9  and  C5_11 
ROOT
HETATM    1  C5  UNL     1       9.499  16.047  32.042  1.00  0.00     0.189 A 
HETATM    2  N3  UNL     1       9.937  16.322  33.292  1.00  0.00    -0.277 N 
ATOM      3  H3  UNL     1       9.324  16.817  33.940  1.00  0.00     0.189 HD
HETATM    4  N4  UNL     1      11.141  15.963  33.689  1.00  0.00    -0.250 N 
ATOM      5  H4  UNL     1      11.427  16.192  34.642  1.00  0.00     0.192 HD
HETATM    6  C6  UNL     1      12.012  15.307  32.895  1.00  0.00     0.341 A 
HETATM    7  O3  UNL     1      13.169  14.968  33.293  1.00  0.00    -0.245 OA
HETATM    8  N5  UNL     1      11.610  15.017  31.645  1.00  0.00    -0.271 N 
ATOM      9  H5  UNL     1      12.240  14.521  31.015  1.00  0.00     0.174 HD
HETATM   10  C7  UNL     1      10.371  15.377  31.210  1.00  0.00     0.294 A 
HETATM   11  O4  UNL     1      10.006  15.103  30.047  1.00  0.00    -0.264 OA
ENDROOT
BRANCH   1  12
HETATM   12  N2  UNL     1       8.206  16.426  31.595  1.00  0.00    -0.349 N 
HETATM   13  C4  UNL     1       7.982  17.624  31.190  1.00  0.00     0.086 C 
ATOM     14  H2  UNL     1       7.450  15.742  31.595  1.00  0.00     0.166 HD
BRANCH  13  15
HETATM   15  C3  UNL     1       6.654  18.080  30.711  1.00  0.00     0.208 C 
HETATM   16  C1  UNL     1       6.652  19.563  30.602  1.00  0.00     0.242 C 
HETATM   17  O1  UNL     1       6.951  20.324  29.656  1.00  0.00    -0.272 OA
HETATM   18  N1  UNL     1       6.198  19.612  31.945  1.00  0.00    -0.296 N 
HETATM   19  C2  UNL     1       5.668  18.314  31.776  1.00  0.00     0.242 C 
ATOM     20  H1  UNL     1       6.238  20.291  32.705  1.00  0.00     0.171 HD
HETATM   21  O2  UNL     1       4.751  17.673  32.318  1.00  0.00    -0.272 OA
ENDBRANCH  13  15
ENDBRANCH   1  12
TORSDOF 2
ENDMDL
MODEL 3
REMARK VINA RESULT: -6.266151417      2.455      2.780
REMARK  2 active torsions:
REMARK  status: ('A' for Active; 'I' for Inactive)
REMARK    1  A    between atoms: C3_7  and  C4_8 
REMARK    2  A    between atoms: N2_9  and  C5_11 
ROOT
HETATM    1  C5  UNL     1      10.064  14.719  32.237  1.00  0.00     0.189 A 
HETATM    2  N3  UNL     1       9.093  13.799  32.446  1.00  0.00    -0.277 N 
ATOM      3  H3  UNL     1       8.158  13.966  32.074  1.00  0.00     0.189 HD
HETATM    4  N4  UNL     1       9.333  12.694  33.120  1.00  0.00    -0.250 N 
ATOM      5  H4  UNL     1       8.569  12.029  33.252  1.00  0.00     0.192 HD
HETATM    6  C6  UNL     1      10.540  12.399  33.644  1.00  0.00     0.341 A 
HETATM    7  O3  UNL     1      10.756  11.328  34.292  1.00  0.00    -0.245 OA
HETATM    8  N5  UNL     1      11.529  13.291  33.455  1.00  0.00    -0.271 N 
ATOM      9  H5  UNL     1      12.457  13.103  33.836  1.00  0.00     0.174 HD
HETATM   10  C7  UNL     1      11.307  14.441  32.762  1.00  0.00     0.294 A 
HETATM   11  O4  UNL     1      12.233  15.264  32.592  1.00  0.00    -0.264 OA
ENDROOT
BRANCH   1  12
HETATM   12  N2  UNL     1       9.825  15.917  31.513  1.00  0.00    -0.349 N 
HETATM   13  C4  UNL     1       8.633  16.378  31.392  1.00  0.00     0.086 C 
ATOM     14  H2  UNL     1      10.607  16.415  31.087  1.00  0.00     0.166 HD
BRANCH  13  15
HETATM   15  C3  UNL     1       8.320  17.623  30.649  1.00  0.00     0.208 C 
HETATM   16  C1  UNL     1       7.225  18.352  31.345  1.00  0.00     0.242 C 
HETATM   17  O1  UNL     1       7.249  19.218  32.245  1.00  0.00    -0.272 OA
HETATM   18  N1  UNL     1       6.303  17.628  30.545  1.00  0.00    -0.296 N 
HETATM   19  C2  UNL     1       7.322  17.464  29.581  1.00  0.00     0.242 C 
ATOM     20  H1  UNL     1       5.326  17.347  30.630  1.00  0.00     0.171 HD
HETATM   21  O2  UNL     1       7.333  17.269  28.354  1.00  0.00    -0.272 OA
ENDBRANCH  13  15
ENDBRANCH   1  12
TORSDOF 2
ENDMDL
MODEL 4
REMARK VINA RESULT: -6.225193495      3.847      5.598
REMARK  2 active torsions:
REMARK  status: ('A' for Active; 'I' for Inactive)
REMARK    1  A    between atoms: C3_7  and  C4_8 
REMARK    2  A    between atoms: N2_9  and  C5_11 
ROOT
HETATM    1  C5  UNL     1      10.109  16.892  36.066  1.00  0.00     0.189 A 
HETATM    2  N3  UNL     1      11.418  17.158  36.279  1.00  0.00    -0.277 N 
ATOM      3  H3  UNL     1      12.124  16.672  35.724  1.00  0.00     0.189 HD
HETATM    4  N4  UNL     1      11.800  18.031  37.187  1.00  0.00    -0.250 N 
ATOM      5  H4  UNL     1      12.799  18.199  37.312  1.00  0.00     0.192 HD
HETATM    6  C6  UNL     1      10.931  18.714  37.961  1.00  0.00     0.341 A 
HETATM    7  O3  UNL     1      11.315  19.553  38.833  1.00  0.00    -0.245 OA
HETATM    8  N5  UNL     1       9.621  18.475  37.778  1.00  0.00    -0.271 N 
ATOM      9  H5  UNL     1       8.933  18.973  38.343  1.00  0.00     0.174 HD
HETATM   10  C7  UNL     1       9.201  17.577  36.845  1.00  0.00     0.294 A 
HETATM   11  O4  UNL     1       7.980  17.361  36.681  1.00  0.00    -0.264 OA
ENDROOT
BRANCH   1  12
HETATM   12  N2  UNL     1       9.677  15.953  35.092  1.00  0.00    -0.349 N 
HETATM   13  C4  UNL     1       9.788  16.215  33.840  1.00  0.00     0.086 C 
ATOM     14  H2  UNL     1       9.276  15.063  35.390  1.00  0.00     0.166 HD
BRANCH  13  15
HETATM   15  C3  UNL     1       9.356  15.277  32.776  1.00  0.00     0.208 C 
HETATM   16  C1  UNL     1       9.765  13.894  33.141  1.00  0.00     0.242 C 
HETATM   17  O1  UNL     1       9.178  13.001  33.789  1.00  0.00    -0.272 OA
HETATM   18  N1  UNL     1      10.986  14.128  32.457  1.00  0.00    -0.296 N 
HETATM   19  C2  UNL     1      10.323  15.105  31.683  1.00  0.00     0.242 C 
ATOM     20  H1  UNL     1      11.933  13.752  32.504  1.00  0.00     0.171 HD
HETATM   21  O2  UNL     1      10.508  15.591  30.554  1.00  0.00    -0.272 OA
ENDBRANCH  13  15
ENDBRANCH   1  12
TORSDOF 2
ENDMDL
MODEL 5
REMARK VINA RESULT: -6.121422194      1.766      2.560
REMARK  2 active torsions:
REMARK  status: ('A' for Active; 'I' for Inactive)
REMARK    1  A    between atoms: C3_7  and  C4_8 
REMARK    2  A    between atoms: N2_9  and  C5_11 
ROOT
HETATM    1  C5  UNL     1      10.203  15.432  31.390  1.00  0.00     0.189 A 
HETATM    2  N3  UNL     1      11.348  15.844  30.799  1.00  0.00    -0.277 N 
ATOM      3  H3  UNL     1      11.303  16.324  29.899  1.00  0.00     0.189 HD
HETATM    4  N4  UNL     1      12.521  15.639  31.362  1.00  0.00    -0.250 N 
ATOM      5  H4  UNL     1      13.358  15.968  30.878  1.00  0.00     0.192 HD
HETATM    6  C6  UNL     1      12.667  15.013  32.548  1.00  0.00     0.341 A 
HETATM    7  O3  UNL     1      13.806  14.823  33.078  1.00  0.00    -0.245 OA
HETATM    8  N5  UNL     1      11.550  14.590  33.165  1.00  0.00    -0.271 N 
ATOM      9  H5  UNL     1      11.620  14.114  34.064  1.00  0.00     0.174 HD
HETATM   10  C7  UNL     1      10.326  14.790  32.604  1.00  0.00     0.294 A 
HETATM   11  O4  UNL     1       9.293  14.393  33.185  1.00  0.00    -0.264 OA
ENDROOT
BRANCH   1  12
HETATM   12  N2  UNL     1       8.930  15.644  30.799  1.00  0.00    -0.349 N 
HETATM   13  C4  UNL     1       8.425  16.823  30.744  1.00  0.00     0.086 C 
ATOM     14  H2  UNL     1       8.413  14.853  30.415  1.00  0.00     0.166 HD
BRANCH  13  15
HETATM   15  C3  UNL     1       7.100  17.107  30.139  1.00  0.00     0.208 C 
HETATM   16  C1  UNL     1       7.229  18.231  29.173  1.00  0.00     0.242 C 
HETATM   17  O1  UNL     1       7.487  18.246  27.950  1.00  0.00    -0.272 OA
HETATM   18  N1  UNL     1       6.945  19.118  30.244  1.00  0.00    -0.296 N 
HETATM   19  C2  UNL     1       6.275  18.060  30.896  1.00  0.00     0.242 C 
ATOM     20  H1  UNL     1       7.141  20.097  30.452  1.00  0.00     0.171 HD
HETATM   21  O2  UNL     1       5.371  17.998  31.746  1.00  0.00    -0.272 OA
ENDBRANCH  13  15
ENDBRANCH   1  12
TORSDOF 2
ENDMDL
