MODEL 1
REMARK VINA RESULT: -5.696966254      0.000      0.000
REMARK  5 active torsions:
REMARK  status: ('A' for Active; 'I' for Inactive)
REMARK    1  A    between atoms: O1_2  and  C2_3 
REMARK    2  A    between atoms: C3_6  and  N2_7 
REMARK    3  A    between atoms: C4_12  and  S1_13 
REMARK    4  A    between atoms: S1_13  and  N4_14 
REMARK    5  A    between atoms: N5_19  and  N6_20 
ROOT
HETATM    1  C2  UNL     1      12.089  14.701  32.522  1.00  0.00     0.261 A 
HETATM    2  N1  UNL     1      11.954  13.574  33.264  1.00  0.00    -0.153 N 
ATOM      3  H1  UNL     1      12.779  13.200  33.734  1.00  0.00     0.188 HD
HETATM    4  C3  UNL     1      10.791  12.928  33.410  1.00  0.00     0.681 A 
HETATM    5  N3  UNL     1       9.710  13.421  32.793  1.00  0.00    -0.163 N 
ATOM      6  H3  UNL     1       8.814  12.942  32.891  1.00  0.00     0.186 HD
HETATM    7  C4  UNL     1       9.783  14.538  32.043  1.00  0.00     0.262 A 
HETATM    8  N5  UNL     1      10.972  15.163  31.917  1.00  0.00    -0.196 N 
ENDROOT
BRANCH   7   9
HETATM    9  S1  UNL     1       8.363  15.156  31.254  1.00  0.00     0.291 S 
HETATM   10  O2  UNL     1       8.638  15.552  29.819  1.00  0.00    -0.198 OA
HETATM   11  O3  UNL     1       7.831  16.392  31.932  1.00  0.00    -0.198 OA
BRANCH   9  12
HETATM   12  N4  UNL     1       7.131  13.955  31.359  1.00  0.00    -0.322 N 
ATOM     13  H42 UNL     1       6.794  13.531  32.224  1.00  0.00     0.169 HD
ATOM     14  H41 UNL     1       6.806  13.753  30.413  1.00  0.00     0.169 HD
ENDBRANCH   9  12
ENDBRANCH   7   9
BRANCH   8  15
HETATM   15  N6  UNL     1      10.985  16.319  31.125  1.00  0.00    -0.333 N 
ATOM     16  H62 UNL     1      11.903  16.680  30.867  1.00  0.00     0.177 HD
ATOM     17  H61 UNL     1      10.124  16.773  30.823  1.00  0.00     0.177 HD
ENDBRANCH   8  15
BRANCH   4  18
HETATM   18  N2  UNL     1      10.710  11.842  34.138  1.00  0.00    -0.234 N 
ATOM     19  H22 UNL     1      11.534  11.466  34.607  1.00  0.00     0.174 HD
ATOM     20  H21 UNL     1       9.823  11.351  34.250  1.00  0.00     0.174 HD
ENDBRANCH   4  18
BRANCH   1  21
HETATM   21  O1  UNL     1      13.273  15.370  32.365  1.00  0.00    -0.325 OA
HETATM   22  C1  UNL     1      14.238  15.146  31.382  1.00  0.00     0.213 C 
ENDBRANCH   1  21
TORSDOF 5
ENDMDL
MODEL 2
REMARK VINA RESULT: -5.338280342      2.395      2.952
REMARK  5 active torsions:
REMARK  status: ('A' for Active; 'I' for Inactive)
REMARK    1  A    between atoms: O1_2  and  C2_3 
REMARK    2  A    between atoms: C3_6  and  N2_7 
REMARK    3  A    between atoms: C4_12  and  S1_13 
REMARK    4  A    between atoms: S1_13  and  N4_14 
REMARK    5  A    between atoms: N5_19  and  N6_20 
ROOT
HETATM    1  C2  UNL     1      10.768  15.518  32.568  1.00  0.00     0.261 A 
HETATM    2  N1  UNL     1      10.470  16.169  33.720  1.00  0.00    -0.153 N 
ATOM      3  H1  UNL     1      11.094  16.053  34.519  1.00  0.00     0.188 HD
HETATM    4  C3  UNL     1       9.397  16.956  33.860  1.00  0.00     0.681 A 
HETATM    5  N3  UNL     1       8.579  17.107  32.810  1.00  0.00    -0.163 N 
ATOM      6  H3  UNL     1       7.755  17.702  32.898  1.00  0.00     0.186 HD
HETATM    7  C4  UNL     1       8.824  16.487  31.640  1.00  0.00     0.262 A 
HETATM    8  N5  UNL     1       9.915  15.700  31.535  1.00  0.00    -0.196 N 
ENDROOT
BRANCH   7   9
HETATM    9  S1  UNL     1       7.747  16.701  30.294  1.00  0.00     0.291 S 
HETATM   10  O2  UNL     1       7.417  15.389  29.615  1.00  0.00    -0.198 OA
HETATM   11  O3  UNL     1       8.342  17.583  29.227  1.00  0.00    -0.198 OA
BRANCH   9  12
HETATM   12  N4  UNL     1       6.329  17.495  30.868  1.00  0.00    -0.322 N 
ATOM     13  H42 UNL     1       5.984  17.463  31.828  1.00  0.00     0.169 HD
ATOM     14  H41 UNL     1       5.907  17.994  30.084  1.00  0.00     0.169 HD
ENDBRANCH   9  12
ENDBRANCH   7   9
BRANCH   8  15
HETATM   15  N6  UNL     1      10.117  15.081  30.294  1.00  0.00    -0.333 N 
ATOM     16  H62 UNL     1      10.782  14.309  30.277  1.00  0.00     0.177 HD
ATOM     17  H61 UNL     1       9.624  15.386  29.455  1.00  0.00     0.177 HD
ENDBRANCH   8  15
BRANCH   4  18
HETATM   18  N2  UNL     1       9.150  17.564  34.994  1.00  0.00    -0.234 N 
ATOM     19  H22 UNL     1       9.904  17.766  35.651  1.00  0.00     0.174 HD
ATOM     20  H21 UNL     1       8.202  17.849  35.241  1.00  0.00     0.174 HD
ENDBRANCH   4  18
BRANCH   1  21
HETATM   21  O1  UNL     1      11.862  14.710  32.413  1.00  0.00    -0.325 OA
HETATM   22  C1  UNL     1      13.181  15.117  32.206  1.00  0.00     0.213 C 
ENDBRANCH   1  21
TORSDOF 5
ENDMDL
MODEL 3
REMARK VINA RESULT: -5.205529661      3.213      5.226
REMARK  5 active torsions:
REMARK  status: ('A' for Active; 'I' for Inactive)
REMARK    1  A    between atoms: O1_2  and  C2_3 
REMARK    2  A    between atoms: C3_6  and  N2_7 
REMARK    3  A    between atoms: C4_12  and  S1_13 
REMARK    4  A    between atoms: S1_13  and  N4_14 
REMARK    5  A    between atoms: N5_19  and  N6_20 
ROOT
HETATM    1  C2  UNL     1       8.262  17.140  30.396  1.00  0.00     0.261 A 
HETATM    2  N1  UNL     1       7.859  18.177  31.172  1.00  0.00    -0.153 N 
ATOM      3  H1  UNL     1       7.129  18.794  30.817  1.00  0.00     0.188 HD
HETATM    4  C3  UNL     1       8.373  18.429  32.381  1.00  0.00     0.681 A 
HETATM    5  N3  UNL     1       9.331  17.618  32.847  1.00  0.00    -0.163 N 
ATOM      6  H3  UNL     1       9.736  17.795  33.766  1.00  0.00     0.186 HD
HETATM    7  C4  UNL     1       9.771  16.571  32.122  1.00  0.00     0.262 A 
HETATM    8  N5  UNL     1       9.231  16.346  30.906  1.00  0.00    -0.196 N 
ENDROOT
BRANCH   7   9
HETATM    9  S1  UNL     1      11.015  15.533  32.750  1.00  0.00     0.291 S 
HETATM   10  O2  UNL     1      12.264  15.561  31.895  1.00  0.00    -0.198 OA
HETATM   11  O3  UNL     1      10.578  14.092  32.801  1.00  0.00    -0.198 OA
BRANCH   9  12
HETATM   12  N4  UNL     1      11.342  16.016  34.372  1.00  0.00    -0.322 N 
ATOM     13  H42 UNL     1      10.964  16.848  34.826  1.00  0.00     0.169 HD
ATOM     14  H41 UNL     1      11.972  15.327  34.785  1.00  0.00     0.169 HD
ENDBRANCH   9  12
ENDBRANCH   7   9
BRANCH   8  15
HETATM   15  N6  UNL     1       9.729  15.243  30.199  1.00  0.00    -0.333 N 
ATOM     16  H62 UNL     1       9.688  15.302  29.182  1.00  0.00     0.177 HD
ATOM     17  H61 UNL     1      10.113  14.428  30.677  1.00  0.00     0.177 HD
ENDBRANCH   8  15
BRANCH   4  18
HETATM   18  N2  UNL     1       7.951  19.444  33.094  1.00  0.00    -0.234 N 
ATOM     19  H22 UNL     1       8.511  19.807  33.866  1.00  0.00     0.174 HD
ATOM     20  H21 UNL     1       7.057  19.891  32.893  1.00  0.00     0.174 HD
ENDBRANCH   4  18
BRANCH   1  21
HETATM   21  O1  UNL     1       7.745  16.871  29.158  1.00  0.00    -0.325 OA
HETATM   22  C1  UNL     1       7.249  17.796  28.239  1.00  0.00     0.213 C 
ENDBRANCH   1  21
TORSDOF 5
ENDMDL
MODEL 4
REMARK VINA RESULT: -5.150273742      1.880      3.146
REMARK  5 active torsions:
REMARK  status: ('A' for Active; 'I' for Inactive)
REMARK    1  A    between atoms: O1_2  and  C2_3 
REMARK    2  A    between atoms: C3_6  and  N2_7 
REMARK    3  A    between atoms: C4_12  and  S1_13 
REMARK    4  A    between atoms: S1_13  and  N4_14 
REMARK    5  A    between atoms: N5_19  and  N6_20 
ROOT
HETATM    1  C2  UNL     1      10.559  13.202  33.255  1.00  0.00     0.261 A 
HETATM    2  N1  UNL     1      11.829  13.678  33.225  1.00  0.00    -0.153 N 
ATOM      3  H1  UNL     1      12.551  13.167  33.735  1.00  0.00     0.188 HD
HETATM    4  C3  UNL     1      12.181  14.784  32.560  1.00  0.00     0.681 A 
HETATM    5  N3  UNL     1      11.232  15.452  31.891  1.00  0.00    -0.163 N 
ATOM      6  H3  UNL     1      11.481  16.298  31.379  1.00  0.00     0.186 HD
HETATM    7  C4  UNL     1       9.954  15.026  31.883  1.00  0.00     0.262 A 
HETATM    8  N5  UNL     1       9.635  13.907  32.565  1.00  0.00    -0.196 N 
ENDROOT
BRANCH   7   9
HETATM    9  S1  UNL     1       8.744  15.912  31.006  1.00  0.00     0.291 S 
HETATM   10  O2  UNL     1       7.865  15.002  30.174  1.00  0.00    -0.198 OA
HETATM   11  O3  UNL     1       9.351  16.898  30.041  1.00  0.00    -0.198 OA
BRANCH   9  12
HETATM   12  N4  UNL     1       7.823  16.823  32.143  1.00  0.00    -0.322 N 
ATOM     13  H42 UNL     1       7.833  16.685  33.154  1.00  0.00     0.169 HD
ATOM     14  H41 UNL     1       7.278  17.514  31.626  1.00  0.00     0.169 HD
ENDBRANCH   9  12
ENDBRANCH   7   9
BRANCH   8  15
HETATM   15  N6  UNL     1       8.290  13.514  32.520  1.00  0.00    -0.333 N 
ATOM     16  H62 UNL     1       7.961  13.130  31.635  1.00  0.00     0.177 HD
ATOM     17  H61 UNL     1       7.676  13.607  33.328  1.00  0.00     0.177 HD
ENDBRANCH   8  15
BRANCH   4  18
HETATM   18  N2  UNL     1      13.422  15.205  32.561  1.00  0.00    -0.234 N 
ATOM     19  H22 UNL     1      13.872  15.501  31.695  1.00  0.00     0.174 HD
ATOM     20  H21 UNL     1      13.960  15.246  33.426  1.00  0.00     0.174 HD
ENDBRANCH   4  18
BRANCH   1  21
HETATM   21  O1  UNL     1      10.187  12.071  33.931  1.00  0.00    -0.325 OA
HETATM   22  C1  UNL     1      10.612  10.766  33.680  1.00  0.00     0.213 C 
ENDBRANCH   1  21
TORSDOF 5
ENDMDL
MODEL 5
REMARK VINA RESULT: -5.091506132      3.282      4.304
REMARK  5 active torsions:
REMARK  status: ('A' for Active; 'I' for Inactive)
REMARK    1  A    between atoms: O1_2  and  C2_3 
REMARK    2  A    between atoms: C3_6  and  N2_7 
REMARK    3  A    between atoms: C4_12  and  S1_13 
REMARK    4  A    between atoms: S1_13  and  N4_14 
REMARK    5  A    between atoms: N5_19  and  N6_20 
ROOT
HETATM    1  C2  UNL     1       9.435  16.154  32.093  1.00  0.00     0.261 A 
HETATM    2  N1  UNL     1       9.651  14.815  32.116  1.00  0.00    -0.153 N 
ATOM      3  H1  UNL     1       9.682  14.313  31.229  1.00  0.00     0.188 HD
HETATM    4  C3  UNL     1       9.826  14.121  33.247  1.00  0.00     0.681 A 
HETATM    5  N3  UNL     1       9.785  14.782  34.410  1.00  0.00    -0.163 N 
ATOM      6  H3  UNL     1       9.915  14.270  35.283  1.00  0.00     0.186 HD
HETATM    7  C4  UNL     1       9.576  16.113  34.450  1.00  0.00     0.262 A 
HETATM    8  N5  UNL     1       9.402  16.781  33.291  1.00  0.00    -0.196 N 
ENDROOT
BRANCH   7   9
HETATM    9  S1  UNL     1       9.529  16.945  35.974  1.00  0.00     0.291 S 
HETATM   10  O2  UNL     1       8.160  17.523  36.264  1.00  0.00    -0.198 OA
HETATM   11  O3  UNL     1      10.487  18.107  36.015  1.00  0.00    -0.198 OA
BRANCH   9  12
HETATM   12  N4  UNL     1      10.026  15.840  37.200  1.00  0.00    -0.322 N 
ATOM     13  H42 UNL     1      10.548  14.978  37.039  1.00  0.00     0.169 HD
ATOM     14  H41 UNL     1       9.708  16.203  38.100  1.00  0.00     0.169 HD
ENDBRANCH   9  12
ENDBRANCH   7   9
BRANCH   8  15
HETATM   15  N6  UNL     1       9.188  18.162  33.396  1.00  0.00    -0.333 N 
ATOM     16  H62 UNL     1       8.215  18.469  33.404  1.00  0.00     0.177 HD
ATOM     17  H61 UNL     1       9.962  18.822  33.463  1.00  0.00     0.177 HD
ENDBRANCH   8  15
BRANCH   4  18
HETATM   18  N2  UNL     1      10.032  12.828  33.218  1.00  0.00    -0.234 N 
ATOM     19  H22 UNL     1       9.255  12.175  33.321  1.00  0.00     0.174 HD
ATOM     20  H21 UNL     1      10.970  12.449  33.093  1.00  0.00     0.174 HD
ENDBRANCH   4  18
BRANCH   1  21
HETATM   21  O1  UNL     1       9.254  16.876  30.944  1.00  0.00    -0.325 OA
HETATM   22  C1  UNL     1       8.269  16.676  29.976  1.00  0.00     0.213 C 
ENDBRANCH   1  21
TORSDOF 5
ENDMDL
