MODEL 1
REMARK VINA RESULT: -6.773793459      0.000      0.000
REMARK  3 active torsions:
REMARK  status: ('A' for Active; 'I' for Inactive)
REMARK    1  A    between atoms: C2_5  and  N3_6 
REMARK    2  A    between atoms: N5_12  and  C4_14 
REMARK    3  A    between atoms: C4_14  and  C5_15 
ROOT
HETATM    1  C1  UNL     1      13.530  15.064  32.212  1.00  0.00     0.182 C 
HETATM    2  N1  UNL     1      12.089  14.930  32.293  1.00  0.00    -0.245 N 
HETATM    3  N2  UNL     1      11.474  14.356  33.319  1.00  0.00    -0.128 N 
ATOM      4  H2  UNL     1      12.033  13.990  34.090  1.00  0.00     0.206 HD
HETATM    5  C2  UNL     1      10.137  14.243  33.371  1.00  0.00     0.692 A 
HETATM    6  N4  UNL     1       9.424  14.741  32.330  1.00  0.00    -0.170 N 
ATOM      7  H4  UNL     1       8.408  14.666  32.348  1.00  0.00     0.186 HD
HETATM    8  C3  UNL     1      10.013  15.326  31.281  1.00  0.00     0.187 A 
HETATM    9  N5  UNL     1       9.341  15.796  30.295  1.00  0.00    -0.364 N 
ATOM     10  H5  UNL     1       9.810  16.238  29.504  1.00  0.00     0.161 HD
HETATM   11  C8  UNL     1      11.382  15.428  31.250  1.00  0.00     0.306 A 
HETATM   12  O1  UNL     1      11.959  15.980  30.262  1.00  0.00    -0.262 OA
ENDROOT
BRANCH   9  13
HETATM   13  C4  UNL     1       7.894  15.683  30.336  1.00  0.00     0.197 C 
BRANCH  13  14
HETATM   14  C5  UNL     1       7.367  17.065  30.507  1.00  0.00     0.090 C 
HETATM   15  N6  UNL     1       7.391  17.715  31.622  1.00  0.00    -0.377 N 
HETATM   16  C6  UNL     1       6.811  19.021  31.467  1.00  0.00     0.140 C 
ATOM     17  H6  UNL     1       7.770  17.351  32.495  1.00  0.00     0.160 HD
HETATM   18  C7  UNL     1       6.846  19.223  29.967  1.00  0.00     0.140 C 
HETATM   19  N7  UNL     1       6.773  17.856  29.486  1.00  0.00    -0.377 N 
ATOM     20  H7  UNL     1       6.379  17.532  28.602  1.00  0.00     0.160 HD
ENDBRANCH  13  14
ENDBRANCH   9  13
BRANCH   5  21
HETATM   21  N3  UNL     1       9.543  13.685  34.369  1.00  0.00    -0.233 N 
ATOM     22  H32 UNL     1       9.173  12.738  34.292  1.00  0.00     0.174 HD
ATOM     23  H31 UNL     1       9.424  14.168  35.260  1.00  0.00     0.174 HD
ENDBRANCH   5  21
TORSDOF 3
ENDMDL
MODEL 2
REMARK VINA RESULT: -6.385433926      1.129      1.129
REMARK  3 active torsions:
REMARK  status: ('A' for Active; 'I' for Inactive)
REMARK    1  A    between atoms: C2_5  and  N3_6 
REMARK    2  A    between atoms: N5_12  and  C4_14 
REMARK    3  A    between atoms: C4_14  and  C5_15 
ROOT
HETATM    1  C1  UNL     1      13.253  15.241  32.105  1.00  0.00     0.182 C 
HETATM    2  N1  UNL     1      11.885  15.495  32.509  1.00  0.00    -0.245 N 
HETATM    3  N2  UNL     1      11.510  15.575  33.779  1.00  0.00    -0.128 N 
ATOM      4  H2  UNL     1      12.210  15.452  34.511  1.00  0.00     0.206 HD
HETATM    5  C2  UNL     1      10.235  15.812  34.128  1.00  0.00     0.692 A 
HETATM    6  N4  UNL     1       9.330  15.970  33.131  1.00  0.00    -0.170 N 
ATOM      7  H4  UNL     1       8.356  16.151  33.373  1.00  0.00     0.186 HD
HETATM    8  C3  UNL     1       9.675  15.896  31.840  1.00  0.00     0.187 A 
HETATM    9  N5  UNL     1       8.820  16.046  30.896  1.00  0.00    -0.364 N 
ATOM     10  H5  UNL     1       9.104  15.985  29.918  1.00  0.00     0.161 HD
HETATM   11  C8  UNL     1      10.984  15.653  31.508  1.00  0.00     0.306 A 
HETATM   12  O1  UNL     1      11.331  15.579  30.288  1.00  0.00    -0.262 OA
ENDROOT
BRANCH   9  13
HETATM   13  C4  UNL     1       7.437  16.303  31.256  1.00  0.00     0.197 C 
BRANCH  13  14
HETATM   14  C5  UNL     1       7.129  17.683  30.790  1.00  0.00     0.090 C 
HETATM   15  N6  UNL     1       7.150  18.725  31.551  1.00  0.00    -0.377 N 
HETATM   16  C6  UNL     1       6.809  19.908  30.809  1.00  0.00     0.140 C 
ATOM     17  H6  UNL     1       7.376  18.711  32.545  1.00  0.00     0.160 HD
HETATM   18  C7  UNL     1       7.024  19.474  29.375  1.00  0.00     0.140 C 
HETATM   19  N7  UNL     1       6.777  18.047  29.461  1.00  0.00    -0.377 N 
ATOM     20  H7  UNL     1       6.424  17.435  28.725  1.00  0.00     0.160 HD
ENDBRANCH  13  14
ENDBRANCH   9  13
BRANCH   5  21
HETATM   21  N3  UNL     1       9.874  15.888  35.363  1.00  0.00    -0.233 N 
ATOM     22  H32 UNL     1       9.055  15.382  35.699  1.00  0.00     0.174 HD
ATOM     23  H31 UNL     1      10.390  16.452  36.038  1.00  0.00     0.174 HD
ENDBRANCH   5  21
TORSDOF 3
ENDMDL
MODEL 3
REMARK VINA RESULT: -6.349378623      1.256      1.602
REMARK  3 active torsions:
REMARK  status: ('A' for Active; 'I' for Inactive)
REMARK    1  A    between atoms: C2_5  and  N3_6 
REMARK    2  A    between atoms: N5_12  and  C4_14 
REMARK    3  A    between atoms: C4_14  and  C5_15 
ROOT
HETATM    1  C1  UNL     1      13.142  15.158  32.075  1.00  0.00     0.182 C 
HETATM    2  N1  UNL     1      11.793  15.508  32.469  1.00  0.00    -0.245 N 
HETATM    3  N2  UNL     1      11.401  15.558  33.735  1.00  0.00    -0.128 N 
ATOM      4  H2  UNL     1      12.074  15.342  34.471  1.00  0.00     0.206 HD
HETATM    5  C2  UNL     1      10.144  15.886  34.076  1.00  0.00     0.692 A 
HETATM    6  N4  UNL     1       9.276  16.169  33.074  1.00  0.00    -0.170 N 
ATOM      7  H4  UNL     1       8.316  16.420  33.309  1.00  0.00     0.186 HD
HETATM    8  C3  UNL     1       9.638  16.128  31.787  1.00  0.00     0.187 A 
HETATM    9  N5  UNL     1       8.818  16.394  30.838  1.00  0.00    -0.364 N 
ATOM     10  H5  UNL     1       9.115  16.357  29.863  1.00  0.00     0.161 HD
HETATM   11  C8  UNL     1      10.929  15.789  31.463  1.00  0.00     0.306 A 
HETATM   12  O1  UNL     1      11.292  15.745  30.247  1.00  0.00    -0.262 OA
ENDROOT
BRANCH   9  13
HETATM   13  C4  UNL     1       7.455  16.751  31.189  1.00  0.00     0.197 C 
BRANCH  13  14
HETATM   14  C5  UNL     1       7.345  18.225  31.010  1.00  0.00     0.090 C 
HETATM   15  N6  UNL     1       6.861  18.791  29.957  1.00  0.00    -0.377 N 
HETATM   16  C6  UNL     1       6.888  20.223  30.085  1.00  0.00     0.140 C 
ATOM     17  H6  UNL     1       6.506  18.291  29.142  1.00  0.00     0.160 HD
HETATM   18  C7  UNL     1       7.049  20.418  31.577  1.00  0.00     0.140 C 
HETATM   19  N7  UNL     1       7.748  19.206  31.958  1.00  0.00    -0.377 N 
ATOM     20  H7  UNL     1       8.393  19.082  32.739  1.00  0.00     0.160 HD
ENDBRANCH  13  14
ENDBRANCH   9  13
BRANCH   5  21
HETATM   21  N3  UNL     1       9.767  15.934  35.308  1.00  0.00    -0.233 N 
ATOM     22  H32 UNL     1       9.587  16.828  35.763  1.00  0.00     0.174 HD
ATOM     23  H31 UNL     1       9.639  15.088  35.862  1.00  0.00     0.174 HD
ENDBRANCH   5  21
TORSDOF 3
ENDMDL
MODEL 4
REMARK VINA RESULT: -6.024743082      1.948      5.738
REMARK  3 active torsions:
REMARK  status: ('A' for Active; 'I' for Inactive)
REMARK    1  A    between atoms: C2_5  and  N3_6 
REMARK    2  A    between atoms: N5_12  and  C4_14 
REMARK    3  A    between atoms: C4_14  and  C5_15 
ROOT
HETATM    1  C1  UNL     1       6.145  19.565  32.122  1.00  0.00     0.182 C 
HETATM    2  N1  UNL     1       6.797  18.430  31.502  1.00  0.00    -0.245 N 
HETATM    3  N2  UNL     1       6.656  18.130  30.217  1.00  0.00    -0.128 N 
ATOM      4  H2  UNL     1       6.064  18.720  29.632  1.00  0.00     0.206 HD
HETATM    5  C2  UNL     1       7.271  17.071  29.664  1.00  0.00     0.692 A 
HETATM    6  N4  UNL     1       8.051  16.308  30.469  1.00  0.00    -0.170 N 
ATOM      7  H4  UNL     1       8.528  15.499  30.072  1.00  0.00     0.186 HD
HETATM    8  C3  UNL     1       8.215  16.583  31.769  1.00  0.00     0.187 A 
HETATM    9  N5  UNL     1       8.951  15.862  32.531  1.00  0.00    -0.364 N 
ATOM     10  H5  UNL     1       9.062  16.089  33.520  1.00  0.00     0.161 HD
HETATM   11  C8  UNL     1       7.575  17.670  32.310  1.00  0.00     0.306 A 
HETATM   12  O1  UNL     1       7.718  17.947  33.542  1.00  0.00    -0.262 OA
ENDROOT
BRANCH   9  13
HETATM   13  C4  UNL     1       9.624  14.714  31.950  1.00  0.00     0.197 C 
BRANCH  13  14
HETATM   14  C5  UNL     1      11.085  14.953  32.112  1.00  0.00     0.090 C 
HETATM   15  N6  UNL     1      11.786  14.500  33.095  1.00  0.00    -0.377 N 
HETATM   16  C6  UNL     1      13.162  14.898  32.970  1.00  0.00     0.140 C 
ATOM     17  H6  UNL     1      11.416  13.934  33.859  1.00  0.00     0.160 HD
HETATM   18  C7  UNL     1      13.263  15.285  31.511  1.00  0.00     0.140 C 
HETATM   19  N7  UNL     1      11.904  15.701  31.223  1.00  0.00    -0.377 N 
ATOM     20  H7  UNL     1      11.600  16.385  30.530  1.00  0.00     0.160 HD
ENDBRANCH  13  14
ENDBRANCH   9  13
BRANCH   5  21
HETATM   21  N3  UNL     1       7.132  16.783  28.416  1.00  0.00    -0.233 N 
ATOM     22  H32 UNL     1       7.304  17.484  27.697  1.00  0.00     0.174 HD
ATOM     23  H31 UNL     1       6.847  15.853  28.110  1.00  0.00     0.174 HD
ENDBRANCH   5  21
TORSDOF 3
ENDMDL
MODEL 5
REMARK VINA RESULT: -5.943477238      1.907      5.673
REMARK  3 active torsions:
REMARK  status: ('A' for Active; 'I' for Inactive)
REMARK    1  A    between atoms: C2_5  and  N3_6 
REMARK    2  A    between atoms: N5_12  and  C4_14 
REMARK    3  A    between atoms: C4_14  and  C5_15 
ROOT
HETATM    1  C1  UNL     1       7.138  20.142  31.729  1.00  0.00     0.182 C 
HETATM    2  N1  UNL     1       7.498  18.775  31.413  1.00  0.00    -0.245 N 
HETATM    3  N2  UNL     1       7.132  18.174  30.288  1.00  0.00    -0.128 N 
ATOM      4  H2  UNL     1       6.572  18.691  29.609  1.00  0.00     0.206 HD
HETATM    5  C2  UNL     1       7.477  16.905  30.017  1.00  0.00     0.692 A 
HETATM    6  N4  UNL     1       8.221  16.247  30.940  1.00  0.00    -0.170 N 
ATOM      7  H4  UNL     1       8.495  15.282  30.756  1.00  0.00     0.186 HD
HETATM    8  C3  UNL     1       8.607  16.823  32.084  1.00  0.00     0.187 A 
HETATM    9  N5  UNL     1       9.311  16.202  32.958  1.00  0.00    -0.364 N 
ATOM     10  H5  UNL     1       9.594  16.660  33.824  1.00  0.00     0.161 HD
HETATM   11  C8  UNL     1       8.241  18.122  32.339  1.00  0.00     0.306 A 
HETATM   12  O1  UNL     1       8.598  18.686  33.419  1.00  0.00    -0.262 OA
ENDROOT
BRANCH   9  13
HETATM   13  C4  UNL     1       9.693  14.829  32.681  1.00  0.00     0.197 C 
BRANCH  13  14
HETATM   14  C5  UNL     1      11.157  14.845  32.407  1.00  0.00     0.090 C 
HETATM   15  N6  UNL     1      11.701  15.476  31.422  1.00  0.00    -0.377 N 
HETATM   16  C6  UNL     1      13.128  15.302  31.426  1.00  0.00     0.140 C 
ATOM     17  H6  UNL     1      11.188  16.024  30.732  1.00  0.00     0.160 HD
HETATM   18  C7  UNL     1      13.400  14.836  32.841  1.00  0.00     0.140 C 
HETATM   19  N7  UNL     1      12.150  14.183  33.180  1.00  0.00    -0.377 N 
ATOM     20  H7  UNL     1      12.013  13.411  33.833  1.00  0.00     0.160 HD
ENDBRANCH  13  14
ENDBRANCH   9  13
BRANCH   5  21
HETATM   21  N3  UNL     1       7.120  16.325  28.923  1.00  0.00    -0.233 N 
ATOM     22  H32 UNL     1       7.157  15.310  28.836  1.00  0.00     0.174 HD
ATOM     23  H31 UNL     1       6.793  16.856  28.117  1.00  0.00     0.174 HD
ENDBRANCH   5  21
TORSDOF 3
ENDMDL
