MODEL 1
REMARK VINA RESULT: -5.659512132      0.000      0.000
REMARK  4 active torsions:
REMARK  status: ('A' for Active; 'I' for Inactive)
REMARK    1  A    between atoms: C4_8  and  C5_9 
REMARK    2  A    between atoms: C5_9  and  N2_10 
REMARK    3  A    between atoms: N2_10  and  O3_12 
REMARK    4  A    between atoms: C7_17  and  O4_18 
ROOT
HETATM    1  O1  UNL     1       5.860  19.299  31.341  1.00  0.00    -0.266 OA
HETATM    2  C1  UNL     1       6.756  18.433  31.158  1.00  0.00     0.277 A 
HETATM    3  N1  UNL     1       6.652  17.555  30.147  1.00  0.00    -0.287 N 
ATOM      4  H1  UNL     1       5.838  17.601  29.534  1.00  0.00     0.172 HD
HETATM    5  C2  UNL     1       7.575  16.627  29.921  1.00  0.00     0.275 A 
HETATM    6  O2  UNL     1       7.407  15.831  28.944  1.00  0.00    -0.266 OA
HETATM    7  C3  UNL     1       8.691  16.540  30.736  1.00  0.00     0.103 A 
HETATM    8  C4  UNL     1       9.590  15.600  30.477  1.00  0.00     0.054 C 
HETATM    9  N3  UNL     1       8.826  17.404  31.757  1.00  0.00    -0.346 N 
ATOM     10  H3  UNL     1       9.641  17.354  32.368  1.00  0.00     0.166 HD
HETATM   11  C6  UNL     1       7.869  18.344  31.969  1.00  0.00     0.123 A 
HETATM   12  C7  UNL     1       8.020  19.193  32.987  1.00  0.00     0.166 C 
ENDROOT
BRANCH   8  13
HETATM   13  C5  UNL     1      10.804  15.376  31.228  1.00  0.00     0.117 C 
BRANCH  13  14
HETATM   14  N2  UNL     1      11.919  15.846  30.803  1.00  0.00    -0.264 N 
ATOM     15  H2  UNL     1      11.897  16.543  30.060  1.00  0.00     0.194 HD
BRANCH  14  16
HETATM   16  O3  UNL     1      13.140  15.458  31.296  1.00  0.00    -0.191 OA
HETATM   17  S1  UNL     1      13.306  14.727  32.860  1.00  0.00     0.125 SA
ENDBRANCH  14  16
ENDBRANCH  13  14
ENDBRANCH   8  13
BRANCH  12  18
HETATM   18  O4  UNL     1       9.116  19.124  33.806  1.00  0.00    -0.370 OA
ATOM     19  H4  UNL     1       9.957  19.469  33.527  1.00  0.00     0.216 HD
ENDBRANCH  12  18
TORSDOF 4
ENDMDL
MODEL 2
REMARK VINA RESULT: -5.648857302      3.823      5.343
REMARK  4 active torsions:
REMARK  status: ('A' for Active; 'I' for Inactive)
REMARK    1  A    between atoms: C4_8  and  C5_9 
REMARK    2  A    between atoms: C5_9  and  N2_10 
REMARK    3  A    between atoms: N2_10  and  O3_12 
REMARK    4  A    between atoms: C7_17  and  O4_18 
ROOT
HETATM    1  O1  UNL     1       9.847  16.940  30.588  1.00  0.00    -0.266 OA
HETATM    2  C1  UNL     1      10.173  15.946  31.289  1.00  0.00     0.277 A 
HETATM    3  N1  UNL     1      11.397  15.879  31.838  1.00  0.00    -0.287 N 
ATOM      4  H1  UNL     1      12.054  16.642  31.677  1.00  0.00     0.172 HD
HETATM    5  C2  UNL     1      11.779  14.848  32.584  1.00  0.00     0.275 A 
HETATM    6  O2  UNL     1      12.954  14.855  33.070  1.00  0.00    -0.266 OA
HETATM    7  C3  UNL     1      10.909  13.797  32.820  1.00  0.00     0.103 A 
HETATM    8  C4  UNL     1      11.329  12.787  33.570  1.00  0.00     0.054 C 
HETATM    9  N3  UNL     1       9.677  13.833  32.285  1.00  0.00    -0.346 N 
ATOM     10  H3  UNL     1       9.023  13.068  32.449  1.00  0.00     0.166 HD
HETATM   11  C6  UNL     1       9.308  14.898  31.526  1.00  0.00     0.123 A 
HETATM   12  C7  UNL     1       8.081  14.917  31.003  1.00  0.00     0.166 C 
ENDROOT
BRANCH   8  13
HETATM   13  C5  UNL     1      10.549  11.618  33.910  1.00  0.00     0.117 C 
BRANCH  13  14
HETATM   14  N2  UNL     1      10.531  10.607  33.122  1.00  0.00    -0.264 N 
ATOM     15  H2  UNL     1      10.784  10.751  32.145  1.00  0.00     0.194 HD
BRANCH  14  16
HETATM   16  O3  UNL     1      10.189   9.340  33.525  1.00  0.00    -0.191 OA
HETATM   17  S1  UNL     1      11.084   7.944  33.017  1.00  0.00     0.125 SA
ENDBRANCH  14  16
ENDBRANCH  13  14
ENDBRANCH   8  13
BRANCH  12  18
HETATM   18  O4  UNL     1       7.204  13.887  31.225  1.00  0.00    -0.370 OA
ATOM     19  H4  UNL     1       6.600  13.909  31.957  1.00  0.00     0.216 HD
ENDBRANCH  12  18
TORSDOF 4
ENDMDL
MODEL 3
REMARK VINA RESULT: -5.598496237      2.608      3.319
REMARK  4 active torsions:
REMARK  status: ('A' for Active; 'I' for Inactive)
REMARK    1  A    between atoms: C4_8  and  C5_9 
REMARK    2  A    between atoms: C5_9  and  N2_10 
REMARK    3  A    between atoms: N2_10  and  O3_12 
REMARK    4  A    between atoms: C7_17  and  O4_18 
ROOT
HETATM    1  O1  UNL     1       6.786  17.417  28.930  1.00  0.00    -0.266 OA
HETATM    2  C1  UNL     1       7.517  17.058  29.891  1.00  0.00     0.277 A 
HETATM    3  N1  UNL     1       8.631  16.342  29.662  1.00  0.00    -0.287 N 
ATOM      4  H1  UNL     1       8.871  16.095  28.702  1.00  0.00     0.172 HD
HETATM    5  C2  UNL     1       9.428  15.944  30.647  1.00  0.00     0.275 A 
HETATM    6  O2  UNL     1      10.464  15.269  30.352  1.00  0.00    -0.266 OA
HETATM    7  C3  UNL     1       9.127  16.264  31.960  1.00  0.00     0.103 A 
HETATM    8  C4  UNL     1       9.949  15.848  32.915  1.00  0.00     0.054 C 
HETATM    9  N3  UNL     1       8.021  16.980  32.223  1.00  0.00    -0.346 N 
ATOM     10  H3  UNL     1       7.783  17.224  33.185  1.00  0.00     0.166 HD
HETATM   11  C6  UNL     1       7.220  17.375  31.200  1.00  0.00     0.123 A 
HETATM   12  C7  UNL     1       6.126  18.085  31.480  1.00  0.00     0.166 C 
ENDROOT
BRANCH   8  13
HETATM   13  C5  UNL     1       9.779  16.096  34.329  1.00  0.00     0.117 C 
BRANCH  13  14
HETATM   14  N2  UNL     1      10.790  16.415  35.050  1.00  0.00    -0.264 N 
ATOM     15  H2  UNL     1      11.679  15.949  34.870  1.00  0.00     0.194 HD
BRANCH  14  16
HETATM   16  O3  UNL     1      10.737  17.353  36.053  1.00  0.00    -0.191 OA
HETATM   17  S1  UNL     1      10.535  16.904  37.716  1.00  0.00     0.125 SA
ENDBRANCH  14  16
ENDBRANCH  13  14
ENDBRANCH   8  13
BRANCH  12  18
HETATM   18  O4  UNL     1       5.810  18.412  32.772  1.00  0.00    -0.370 OA
ATOM     19  H4  UNL     1       6.205  17.952  33.504  1.00  0.00     0.216 HD
ENDBRANCH  12  18
TORSDOF 4
ENDMDL
MODEL 4
REMARK VINA RESULT: -5.581060593      1.532      1.558
REMARK  4 active torsions:
REMARK  status: ('A' for Active; 'I' for Inactive)
REMARK    1  A    between atoms: C4_8  and  C5_9 
REMARK    2  A    between atoms: C5_9  and  N2_10 
REMARK    3  A    between atoms: N2_10  and  O3_12 
REMARK    4  A    between atoms: C7_17  and  O4_18 
ROOT
HETATM    1  O1  UNL     1       6.385  18.668  30.591  1.00  0.00    -0.266 OA
HETATM    2  C1  UNL     1       7.148  17.748  30.988  1.00  0.00     0.277 A 
HETATM    3  N1  UNL     1       7.064  16.521  30.449  1.00  0.00    -0.287 N 
ATOM      4  H1  UNL     1       6.374  16.347  29.718  1.00  0.00     0.172 HD
HETATM    5  C2  UNL     1       7.851  15.524  30.840  1.00  0.00     0.275 A 
HETATM    6  O2  UNL     1       7.712  14.390  30.283  1.00  0.00    -0.266 OA
HETATM    7  C3  UNL     1       8.797  15.729  31.830  1.00  0.00     0.103 A 
HETATM    8  C4  UNL     1       9.564  14.709  32.191  1.00  0.00     0.054 C 
HETATM    9  N3  UNL     1       8.908  16.947  32.389  1.00  0.00    -0.346 N 
ATOM     10  H3  UNL     1       9.599  17.116  33.120  1.00  0.00     0.166 HD
HETATM   11  C6  UNL     1       8.092  17.950  31.973  1.00  0.00     0.123 A 
HETATM   12  C7  UNL     1       8.216  19.152  32.540  1.00  0.00     0.166 C 
ENDROOT
BRANCH   8  13
HETATM   13  C5  UNL     1      10.594  14.756  33.204  1.00  0.00     0.117 C 
BRANCH  13  14
HETATM   14  N2  UNL     1      11.540  13.890  33.198  1.00  0.00    -0.264 N 
ATOM     15  H2  UNL     1      11.295  12.906  33.304  1.00  0.00     0.194 HD
BRANCH  14  16
HETATM   16  O3  UNL     1      12.865  14.219  33.057  1.00  0.00    -0.191 OA
HETATM   17  S1  UNL     1      13.442  15.136  31.703  1.00  0.00     0.125 SA
ENDBRANCH  14  16
ENDBRANCH  13  14
ENDBRANCH   8  13
BRANCH  12  18
HETATM   18  O4  UNL     1       9.146  19.376  33.521  1.00  0.00    -0.370 OA
ATOM     19  H4  UNL     1       8.879  19.555  34.415  1.00  0.00     0.216 HD
ENDBRANCH  12  18
TORSDOF 4
ENDMDL
MODEL 5
REMARK VINA RESULT: -5.557926293      1.653      3.180
REMARK  4 active torsions:
REMARK  status: ('A' for Active; 'I' for Inactive)
REMARK    1  A    between atoms: C4_8  and  C5_9 
REMARK    2  A    between atoms: C5_9  and  N2_10 
REMARK    3  A    between atoms: N2_10  and  O3_12 
REMARK    4  A    between atoms: C7_17  and  O4_18 
ROOT
HETATM    1  O1  UNL     1       6.813  19.267  30.979  1.00  0.00    -0.266 OA
HETATM    2  C1  UNL     1       7.566  18.411  31.515  1.00  0.00     0.277 A 
HETATM    3  N1  UNL     1       8.035  18.607  32.758  1.00  0.00    -0.287 N 
ATOM      4  H1  UNL     1       7.774  19.458  33.257  1.00  0.00     0.172 HD
HETATM    5  C2  UNL     1       8.830  17.729  33.358  1.00  0.00     0.275 A 
HETATM    6  O2  UNL     1       9.235  17.984  34.536  1.00  0.00    -0.266 OA
HETATM    7  C3  UNL     1       9.202  16.565  32.707  1.00  0.00     0.103 A 
HETATM    8  C4  UNL     1       9.997  15.713  33.341  1.00  0.00     0.054 C 
HETATM    9  N3  UNL     1       8.749  16.337  31.462  1.00  0.00    -0.346 N 
ATOM     10  H3  UNL     1       9.013  15.486  30.967  1.00  0.00     0.166 HD
HETATM   11  C6  UNL     1       7.937  17.250  30.868  1.00  0.00     0.123 A 
HETATM   12  C7  UNL     1       7.498  17.007  29.632  1.00  0.00     0.166 C 
ENDROOT
BRANCH   8  13
HETATM   13  C5  UNL     1      10.475  14.460  32.803  1.00  0.00     0.117 C 
BRANCH  13  14
HETATM   14  N2  UNL     1      11.626  14.010  33.149  1.00  0.00    -0.264 N 
ATOM     15  H2  UNL     1      11.690  13.046  33.474  1.00  0.00     0.194 HD
BRANCH  14  16
HETATM   16  O3  UNL     1      12.775  14.760  33.104  1.00  0.00    -0.191 OA
HETATM   17  S1  UNL     1      13.544  15.169  31.604  1.00  0.00     0.125 SA
ENDBRANCH  14  16
ENDBRANCH  13  14
ENDBRANCH   8  13
BRANCH  12  18
HETATM   18  O4  UNL     1       7.853  15.862  28.969  1.00  0.00    -0.370 OA
ATOM     19  H4  UNL     1       7.207  15.198  28.760  1.00  0.00     0.216 HD
ENDBRANCH  12  18
TORSDOF 4
ENDMDL
