MODEL 1
REMARK VINA RESULT: -6.460057580      0.000      0.000
REMARK  4 active torsions:
REMARK  status: ('A' for Active; 'I' for Inactive)
REMARK    1  A    between atoms: C1_2  and  N1_3 
REMARK    2  A    between atoms: N1_3  and  N2_5 
REMARK    3  A    between atoms: N4_13  and  N5_14 
REMARK    4  A    between atoms: N5_14  and  C5_16 
ROOT
HETATM    1  N2  UNL     1       9.179  16.528  31.820  1.00  0.00    -0.284 N 
ATOM      2  H2  UNL     1       8.451  16.646  32.524  1.00  0.00     0.188 HD
HETATM    3  C2  UNL     1      10.313  15.977  32.146  1.00  0.00     0.145 A 
HETATM    4  C3  UNL     1      11.442  15.751  31.209  1.00  0.00     0.186 A 
HETATM    5  C4  UNL     1      12.526  15.269  32.083  1.00  0.00     0.244 A 
HETATM    6  O2  UNL     1      13.717  15.083  31.679  1.00  0.00    -0.271 OA
HETATM    7  N3  UNL     1      12.042  15.053  33.399  1.00  0.00    -0.247 N 
ATOM      8  H3  UNL     1      12.563  14.658  34.182  1.00  0.00     0.192 HD
HETATM    9  N4  UNL     1      10.713  15.484  33.418  1.00  0.00    -0.177 N 
ENDROOT
BRANCH   9  10
HETATM   10  N5  UNL     1       9.854  15.451  34.529  1.00  0.00    -0.248 N 
ATOM     11  H5  UNL     1       9.180  14.693  34.638  1.00  0.00     0.192 HD
BRANCH  10  12
HETATM   12  C5  UNL     1       9.937  16.497  35.510  1.00  0.00     0.192 C 
HETATM   13  N6  UNL     1      10.992  16.920  36.122  1.00  0.00    -0.360 N 
HETATM   14  C6  UNL     1      10.682  17.975  37.029  1.00  0.00     0.142 C 
ATOM     15  H6  UNL     1      11.930  16.547  35.974  1.00  0.00     0.162 HD
HETATM   16  C7  UNL     1       9.187  17.976  37.096  1.00  0.00     0.142 C 
HETATM   17  N7  UNL     1       8.798  17.220  35.940  1.00  0.00    -0.360 N 
ATOM     18  H7  UNL     1       7.874  17.205  35.509  1.00  0.00     0.162 HD
ENDBRANCH  10  12
ENDBRANCH   9  10
BRANCH   1  19
HETATM   19  N1  UNL     1       8.954  16.959  30.509  1.00  0.00    -0.276 N 
ATOM     20  H1  UNL     1       9.711  17.415  29.998  1.00  0.00     0.189 HD
BRANCH  19  21
HETATM   21  C1  UNL     1       7.710  16.778  29.876  1.00  0.00     0.368 C 
HETATM   22  O1  UNL     1       7.535  15.802  29.117  1.00  0.00    -0.282 OA
ENDBRANCH  19  21
ENDBRANCH   1  19
TORSDOF 4
ENDMDL
MODEL 2
REMARK VINA RESULT: -6.240718052      3.507      5.360
REMARK  4 active torsions:
REMARK  status: ('A' for Active; 'I' for Inactive)
REMARK    1  A    between atoms: C1_2  and  N1_3 
REMARK    2  A    between atoms: N1_3  and  N2_5 
REMARK    3  A    between atoms: N4_13  and  N5_14 
REMARK    4  A    between atoms: N5_14  and  C5_16 
ROOT
HETATM    1  N2  UNL     1       9.513  13.433  33.116  1.00  0.00    -0.284 N 
ATOM      2  H2  UNL     1       8.520  13.261  32.962  1.00  0.00     0.188 HD
HETATM    3  C2  UNL     1      10.152  14.270  32.350  1.00  0.00     0.145 A 
HETATM    4  C3  UNL     1      11.594  14.602  32.479  1.00  0.00     0.186 A 
HETATM    5  C4  UNL     1      11.862  15.444  31.300  1.00  0.00     0.244 A 
HETATM    6  O2  UNL     1      13.027  15.832  30.972  1.00  0.00    -0.271 OA
HETATM    7  N3  UNL     1      10.654  15.741  30.619  1.00  0.00    -0.247 N 
ATOM      8  H3  UNL     1      10.546  16.359  29.814  1.00  0.00     0.192 HD
HETATM    9  N4  UNL     1       9.639  15.028  31.262  1.00  0.00    -0.177 N 
ENDROOT
BRANCH   9  10
HETATM   10  N5  UNL     1       8.280  15.034  30.909  1.00  0.00    -0.248 N 
ATOM     11  H5  UNL     1       7.694  14.220  31.096  1.00  0.00     0.192 HD
BRANCH  10  12
HETATM   12  C5  UNL     1       7.725  16.201  30.282  1.00  0.00     0.192 C 
HETATM   13  N6  UNL     1       7.898  16.598  29.065  1.00  0.00    -0.360 N 
HETATM   14  C6  UNL     1       7.185  17.804  28.803  1.00  0.00     0.142 C 
ATOM     15  H6  UNL     1       8.473  16.109  28.378  1.00  0.00     0.162 HD
HETATM   16  C7  UNL     1       6.735  18.267  30.154  1.00  0.00     0.142 C 
HETATM   17  N7  UNL     1       6.876  17.099  30.974  1.00  0.00    -0.360 N 
ATOM     18  H7  UNL     1       6.447  16.944  31.886  1.00  0.00     0.162 HD
ENDBRANCH  10  12
ENDBRANCH   9  10
BRANCH   1  19
HETATM   19  N1  UNL     1      10.182  12.769  34.149  1.00  0.00    -0.276 N 
ATOM     20  H1  UNL     1      10.220  13.197  35.074  1.00  0.00     0.189 HD
BRANCH  19  21
HETATM   21  C1  UNL     1      10.805  11.524  33.943  1.00  0.00     0.368 C 
HETATM   22  O1  UNL     1      10.519  10.557  34.679  1.00  0.00    -0.282 OA
ENDBRANCH  19  21
ENDBRANCH   1  19
TORSDOF 4
ENDMDL
MODEL 3
REMARK VINA RESULT: -6.238375488      3.428      4.523
REMARK  4 active torsions:
REMARK  status: ('A' for Active; 'I' for Inactive)
REMARK    1  A    between atoms: C1_2  and  N1_3 
REMARK    2  A    between atoms: N1_3  and  N2_5 
REMARK    3  A    between atoms: N4_13  and  N5_14 
REMARK    4  A    between atoms: N5_14  and  C5_16 
ROOT
HETATM    1  N2  UNL     1       9.927  13.885  32.769  1.00  0.00    -0.284 N 
ATOM      2  H2  UNL     1       8.985  13.942  32.385  1.00  0.00     0.188 HD
HETATM    3  C2  UNL     1      10.899  14.544  32.205  1.00  0.00     0.145 A 
HETATM    4  C3  UNL     1      12.307  14.541  32.675  1.00  0.00     0.186 A 
HETATM    5  C4  UNL     1      13.025  15.283  31.624  1.00  0.00     0.244 A 
HETATM    6  O2  UNL     1      14.291  15.391  31.588  1.00  0.00    -0.271 OA
HETATM    7  N3  UNL     1      12.107  15.838  30.696  1.00  0.00    -0.247 N 
ATOM      8  H3  UNL     1      12.331  16.453  29.912  1.00  0.00     0.192 HD
HETATM    9  N4  UNL     1      10.837  15.384  31.059  1.00  0.00    -0.177 N 
ENDROOT
BRANCH   9  10
HETATM   10  N5  UNL     1       9.634  15.694  30.404  1.00  0.00    -0.248 N 
ATOM     11  H5  UNL     1       9.422  15.285  29.494  1.00  0.00     0.192 HD
BRANCH  10  12
HETATM   12  C5  UNL     1       8.708  16.595  31.030  1.00  0.00     0.192 C 
HETATM   13  N6  UNL     1       8.976  17.556  31.849  1.00  0.00    -0.360 N 
HETATM   14  C6  UNL     1       7.793  18.235  32.265  1.00  0.00     0.142 C 
ATOM     15  H6  UNL     1       9.917  17.800  32.160  1.00  0.00     0.162 HD
HETATM   16  C7  UNL     1       6.678  17.363  31.776  1.00  0.00     0.142 C 
HETATM   17  N7  UNL     1       7.311  16.519  30.805  1.00  0.00    -0.360 N 
ATOM     18  H7  UNL     1       6.844  15.967  30.087  1.00  0.00     0.162 HD
ENDBRANCH  10  12
ENDBRANCH   9  10
BRANCH   1  19
HETATM   19  N1  UNL     1      10.171  13.101  33.901  1.00  0.00    -0.276 N 
ATOM     20  H1  UNL     1      10.043  13.510  34.827  1.00  0.00     0.189 HD
BRANCH  19  21
HETATM   21  C1  UNL     1      10.586  11.761  33.794  1.00  0.00     0.368 C 
HETATM   22  O1  UNL     1      10.583  11.026  34.803  1.00  0.00    -0.282 OA
ENDBRANCH  19  21
ENDBRANCH   1  19
TORSDOF 4
ENDMDL
MODEL 4
REMARK VINA RESULT: -6.084531574      3.305      4.892
REMARK  4 active torsions:
REMARK  status: ('A' for Active; 'I' for Inactive)
REMARK    1  A    between atoms: C1_2  and  N1_3 
REMARK    2  A    between atoms: N1_3  and  N2_5 
REMARK    3  A    between atoms: N4_13  and  N5_14 
REMARK    4  A    between atoms: N5_14  and  C5_16 
ROOT
HETATM    1  N2  UNL     1       9.628  13.567  33.294  1.00  0.00    -0.284 N 
ATOM      2  H2  UNL     1       8.620  13.457  33.405  1.00  0.00     0.188 HD
HETATM    3  C2  UNL     1      10.095  14.442  32.450  1.00  0.00     0.145 A 
HETATM    4  C3  UNL     1      11.538  14.692  32.205  1.00  0.00     0.186 A 
HETATM    5  C4  UNL     1      11.539  15.629  31.067  1.00  0.00     0.244 A 
HETATM    6  O2  UNL     1      12.598  15.991  30.464  1.00  0.00    -0.271 OA
HETATM    7  N3  UNL     1      10.216  16.045  30.768  1.00  0.00    -0.247 N 
ATOM      8  H3  UNL     1       9.940  16.740  30.074  1.00  0.00     0.192 HD
HETATM    9  N4  UNL     1       9.364  15.322  31.606  1.00  0.00    -0.177 N 
ENDROOT
BRANCH   9  10
HETATM   10  N5  UNL     1       7.964  15.425  31.640  1.00  0.00    -0.248 N 
ATOM     11  H5  UNL     1       7.388  14.594  31.775  1.00  0.00     0.192 HD
BRANCH  10  12
HETATM   12  C5  UNL     1       7.353  16.716  31.483  1.00  0.00     0.192 C 
HETATM   13  N6  UNL     1       6.751  17.180  30.440  1.00  0.00    -0.360 N 
HETATM   14  C6  UNL     1       6.272  18.504  30.658  1.00  0.00     0.142 C 
ATOM     15  H6  UNL     1       6.633  16.663  29.567  1.00  0.00     0.162 HD
HETATM   16  C7  UNL     1       6.912  18.919  31.946  1.00  0.00     0.142 C 
HETATM   17  N7  UNL     1       7.347  17.679  32.521  1.00  0.00    -0.360 N 
ATOM     18  H7  UNL     1       7.603  17.521  33.495  1.00  0.00     0.162 HD
ENDBRANCH  10  12
ENDBRANCH   9  10
BRANCH   1  19
HETATM   19  N1  UNL     1      10.501  12.778  34.049  1.00  0.00    -0.276 N 
ATOM     20  H1  UNL     1      11.023  13.206  34.814  1.00  0.00     0.189 HD
BRANCH  19  21
HETATM   21  C1  UNL     1      10.677  11.408  33.779  1.00  0.00     0.368 C 
HETATM   22  O1  UNL     1      10.563  10.573  34.701  1.00  0.00    -0.282 OA
ENDBRANCH  19  21
ENDBRANCH   1  19
TORSDOF 4
ENDMDL
MODEL 5
REMARK VINA RESULT: -6.080243332      1.907      2.209
REMARK  4 active torsions:
REMARK  status: ('A' for Active; 'I' for Inactive)
REMARK    1  A    between atoms: C1_2  and  N1_3 
REMARK    2  A    between atoms: N1_3  and  N2_5 
REMARK    3  A    between atoms: N4_13  and  N5_14 
REMARK    4  A    between atoms: N5_14  and  C5_16 
ROOT
HETATM    1  N2  UNL     1       9.204  16.642  31.627  1.00  0.00    -0.284 N 
ATOM      2  H2  UNL     1       9.240  17.616  31.927  1.00  0.00     0.188 HD
HETATM    3  C2  UNL     1       9.347  15.689  32.502  1.00  0.00     0.145 A 
HETATM    4  C3  UNL     1       9.311  14.238  32.186  1.00  0.00     0.186 A 
HETATM    5  C4  UNL     1       9.684  13.596  33.459  1.00  0.00     0.244 A 
HETATM    6  O2  UNL     1       9.896  12.348  33.574  1.00  0.00    -0.271 OA
HETATM    7  N3  UNL     1       9.763  14.562  34.495  1.00  0.00    -0.247 N 
ATOM      8  H3  UNL     1       9.935  14.380  35.484  1.00  0.00     0.192 HD
HETATM    9  N4  UNL     1       9.559  15.811  33.903  1.00  0.00    -0.177 N 
ENDROOT
BRANCH   9  10
HETATM   10  N5  UNL     1       9.557  17.046  34.571  1.00  0.00    -0.248 N 
ATOM     11  H5  UNL     1       9.403  17.912  34.055  1.00  0.00     0.192 HD
BRANCH  10  12
HETATM   12  C5  UNL     1       9.773  17.075  35.991  1.00  0.00     0.192 C 
HETATM   13  N6  UNL     1       8.880  17.067  36.924  1.00  0.00    -0.360 N 
HETATM   14  C6  UNL     1       9.476  17.104  38.218  1.00  0.00     0.142 C 
ATOM     15  H6  UNL     1       7.874  17.038  36.755  1.00  0.00     0.162 HD
HETATM   16  C7  UNL     1      10.916  17.413  37.952  1.00  0.00     0.142 C 
HETATM   17  N7  UNL     1      11.071  17.120  36.556  1.00  0.00    -0.360 N 
ATOM     18  H7  UNL     1      11.951  16.972  36.063  1.00  0.00     0.162 HD
ENDBRANCH  10  12
ENDBRANCH   9  10
BRANCH   1  19
HETATM   19  N1  UNL     1       9.001  16.337  30.278  1.00  0.00    -0.276 N 
ATOM     20  H1  UNL     1       9.720  15.820  29.771  1.00  0.00     0.189 HD
BRANCH  19  21
HETATM   21  C1  UNL     1       7.830  16.724  29.602  1.00  0.00     0.368 C 
HETATM   22  O1  UNL     1       7.331  15.971  28.739  1.00  0.00    -0.282 OA
ENDBRANCH  19  21
ENDBRANCH   1  19
TORSDOF 4
ENDMDL
