MODEL 1
REMARK VINA RESULT: -5.811096785      0.000      0.000
REMARK  6 active torsions:
REMARK  status: ('A' for Active; 'I' for Inactive)
REMARK    1  A    between atoms: C2_2  and  O1_3 
REMARK    2  A    between atoms: C2_2  and  N1_5 
REMARK    3  A    between atoms: N1_5  and  C3_7 
REMARK    4  A    between atoms: C4_10  and  N3_11 
REMARK    5  A    between atoms: C7_16  and  N5_17 
REMARK    6  A    between atoms: N5_17  and  N6_19 
ROOT
HETATM    1  C3  UNL     1      10.340  16.448  31.502  1.00  0.00     0.709 A 
HETATM    2  N2  UNL     1      10.007  16.950  32.717  1.00  0.00    -0.021 N 
ATOM      3  H2  UNL     1      10.734  17.093  33.418  1.00  0.00     0.203 HD
HETATM    4  C4  UNL     1       8.732  17.263  33.013  1.00  0.00     0.708 A 
HETATM    5  N4  UNL     1       7.776  17.067  32.070  1.00  0.00    -0.020 N 
ATOM      6  H4  UNL     1       6.808  17.302  32.288  1.00  0.00     0.203 HD
HETATM    7  C7  UNL     1       8.072  16.571  30.854  1.00  0.00     0.725 A 
HETATM    8  N7  UNL     1       9.368  16.277  30.618  1.00  0.00    -0.020 N 
ATOM      9  H7  UNL     1       9.614  15.900  29.703  1.00  0.00     0.203 HD
ENDROOT
BRANCH   1  10
HETATM   10  N1  UNL     1      11.584  16.178  31.310  1.00  0.00    -0.199 N 
ATOM     11  H1  UNL     1      12.108  16.722  30.625  1.00  0.00     0.180 HD
BRANCH  10  12
HETATM   12  C2  UNL     1      12.268  15.117  32.043  1.00  0.00     0.230 C 
HETATM   13  C1  UNL     1      13.726  15.065  31.668  1.00  0.00     0.063 C 
BRANCH  12  14
HETATM   14  O1  UNL     1      12.194  15.339  33.422  1.00  0.00    -0.377 OA
ATOM     15  H1  UNL     1      12.253  16.276  33.564  1.00  0.00     0.212 HD
ENDBRANCH  12  14
ENDBRANCH  10  12
ENDBRANCH   1  10
BRANCH   4  16
HETATM   16  N3  UNL     1       8.391  17.788  34.287  1.00  0.00    -0.225 N 
HETATM   17  C5  UNL     1       9.118  17.344  35.458  1.00  0.00     0.168 C 
HETATM   18  C6  UNL     1       7.327  18.759  34.421  1.00  0.00     0.168 C 
ENDBRANCH   4  16
BRANCH   7  19
HETATM   19  N5  UNL     1       7.132  16.407  30.004  1.00  0.00    -0.138 N 
ATOM     20  H5  UNL     1       6.331  15.848  30.299  1.00  0.00     0.205 HD
BRANCH  19  21
HETATM   21  N6  UNL     1       7.103  16.917  28.728  1.00  0.00    -0.331 N 
ATOM     22  H62 UNL     1       7.882  16.655  28.125  1.00  0.00     0.177 HD
ATOM     23  H61 UNL     1       6.380  17.526  28.344  1.00  0.00     0.177 HD
ENDBRANCH  19  21
ENDBRANCH   7  19
TORSDOF 6
ENDMDL
MODEL 2
REMARK VINA RESULT: -5.757335712      2.132      5.076
REMARK  6 active torsions:
REMARK  status: ('A' for Active; 'I' for Inactive)
REMARK    1  A    between atoms: C2_2  and  O1_3 
REMARK    2  A    between atoms: C2_2  and  N1_5 
REMARK    3  A    between atoms: N1_5  and  C3_7 
REMARK    4  A    between atoms: C4_10  and  N3_11 
REMARK    5  A    between atoms: C7_16  and  N5_17 
REMARK    6  A    between atoms: N5_17  and  N6_19 
ROOT
HETATM    1  C3  UNL     1       9.368  16.871  31.989  1.00  0.00     0.709 A 
HETATM    2  N2  UNL     1      10.524  16.220  31.701  1.00  0.00    -0.021 N 
ATOM      3  H2  UNL     1      10.829  16.145  30.730  1.00  0.00     0.203 HD
HETATM    4  C4  UNL     1      11.274  15.674  32.675  1.00  0.00     0.708 A 
HETATM    5  N4  UNL     1      10.855  15.783  33.960  1.00  0.00    -0.020 N 
ATOM      6  H4  UNL     1      11.419  15.370  34.703  1.00  0.00     0.203 HD
HETATM    7  C7  UNL     1       9.714  16.421  34.282  1.00  0.00     0.725 A 
HETATM    8  N7  UNL     1       9.006  16.948  33.260  1.00  0.00    -0.020 N 
ATOM      9  H7  UNL     1       8.138  17.436  33.482  1.00  0.00     0.203 HD
ENDROOT
BRANCH   1  10
HETATM   10  N1  UNL     1       8.718  17.361  30.992  1.00  0.00    -0.199 N 
ATOM     11  H1  UNL     1       8.785  18.361  30.802  1.00  0.00     0.180 HD
BRANCH  10  12
HETATM   12  C2  UNL     1       7.887  16.530  30.126  1.00  0.00     0.230 C 
HETATM   13  C1  UNL     1       7.420  17.312  28.927  1.00  0.00     0.063 C 
BRANCH  12  14
HETATM   14  O1  UNL     1       8.607  15.427  29.657  1.00  0.00    -0.377 OA
ATOM     15  H1  UNL     1       8.374  14.682  30.198  1.00  0.00     0.212 HD
ENDBRANCH  12  14
ENDBRANCH  10  12
ENDBRANCH   1  10
BRANCH   4  16
HETATM   16  N3  UNL     1      12.482  14.995  32.365  1.00  0.00    -0.225 N 
HETATM   17  C5  UNL     1      12.885  13.858  33.165  1.00  0.00     0.168 C 
HETATM   18  C6  UNL     1      13.308  15.430  31.260  1.00  0.00     0.168 C 
ENDBRANCH   4  16
BRANCH   7  19
HETATM   19  N5  UNL     1       9.368  16.494  35.510  1.00  0.00    -0.138 N 
ATOM     20  H5  UNL     1       8.447  16.887  35.710  1.00  0.00     0.205 HD
BRANCH  19  21
HETATM   21  N6  UNL     1      10.123  16.091  36.584  1.00  0.00    -0.331 N 
ATOM     22  H62 UNL     1      10.491  16.836  37.176  1.00  0.00     0.177 HD
ATOM     23  H61 UNL     1      10.342  15.126  36.833  1.00  0.00     0.177 HD
ENDBRANCH  19  21
ENDBRANCH   7  19
TORSDOF 6
ENDMDL
MODEL 3
REMARK VINA RESULT: -5.729748364      1.254      1.271
REMARK  6 active torsions:
REMARK  status: ('A' for Active; 'I' for Inactive)
REMARK    1  A    between atoms: C2_2  and  O1_3 
REMARK    2  A    between atoms: C2_2  and  N1_5 
REMARK    3  A    between atoms: N1_5  and  C3_7 
REMARK    4  A    between atoms: C4_10  and  N3_11 
REMARK    5  A    between atoms: C7_16  and  N5_17 
REMARK    6  A    between atoms: N5_17  and  N6_19 
ROOT
HETATM    1  C3  UNL     1       9.732  15.760  31.612  1.00  0.00     0.709 A 
HETATM    2  N2  UNL     1       9.238  16.516  32.625  1.00  0.00    -0.021 N 
ATOM      3  H2  UNL     1       9.744  16.563  33.509  1.00  0.00     0.203 HD
HETATM    4  C4  UNL     1       8.091  17.204  32.481  1.00  0.00     0.708 A 
HETATM    5  N4  UNL     1       7.429  17.131  31.299  1.00  0.00    -0.020 N 
ATOM      6  H4  UNL     1       6.559  17.650  31.184  1.00  0.00     0.203 HD
HETATM    7  C7  UNL     1       7.891  16.391  30.273  1.00  0.00     0.725 A 
HETATM    8  N7  UNL     1       9.046  15.724  30.480  1.00  0.00    -0.020 N 
ATOM      9  H7  UNL     1       9.414  15.157  29.715  1.00  0.00     0.203 HD
ENDROOT
BRANCH   1  10
HETATM   10  N1  UNL     1      10.834  15.136  31.842  1.00  0.00    -0.199 N 
ATOM     11  H1  UNL     1      10.797  14.193  32.228  1.00  0.00     0.180 HD
BRANCH  10  12
HETATM   12  C2  UNL     1      12.135  15.738  31.567  1.00  0.00     0.230 C 
HETATM   13  C1  UNL     1      13.248  14.851  32.061  1.00  0.00     0.063 C 
BRANCH  12  14
HETATM   14  O1  UNL     1      12.319  15.918  30.192  1.00  0.00    -0.377 OA
ATOM     15  H1  UNL     1      12.055  16.806  29.982  1.00  0.00     0.212 HD
ENDBRANCH  12  14
ENDBRANCH  10  12
ENDBRANCH   1  10
BRANCH   4  16
HETATM   16  N3  UNL     1       7.580  17.993  33.545  1.00  0.00    -0.225 N 
HETATM   17  C5  UNL     1       8.443  18.335  34.656  1.00  0.00     0.168 C 
HETATM   18  C6  UNL     1       6.209  18.455  33.526  1.00  0.00     0.168 C 
ENDBRANCH   4  16
BRANCH   7  19
HETATM   19  N5  UNL     1       7.227  16.359  29.181  1.00  0.00    -0.138 N 
ATOM     20  H5  UNL     1       6.898  15.447  28.865  1.00  0.00     0.205 HD
BRANCH  19  21
HETATM   21  N6  UNL     1       6.918  17.443  28.396  1.00  0.00    -0.331 N 
ATOM     22  H62 UNL     1       5.934  17.549  28.148  1.00  0.00     0.177 HD
ATOM     23  H61 UNL     1       7.580  18.137  28.048  1.00  0.00     0.177 HD
ENDBRANCH  19  21
ENDBRANCH   7  19
TORSDOF 6
ENDMDL
MODEL 4
REMARK VINA RESULT: -5.698358703      1.800      3.824
REMARK  6 active torsions:
REMARK  status: ('A' for Active; 'I' for Inactive)
REMARK    1  A    between atoms: C2_2  and  O1_3 
REMARK    2  A    between atoms: C2_2  and  N1_5 
REMARK    3  A    between atoms: N1_5  and  C3_7 
REMARK    4  A    between atoms: C4_10  and  N3_11 
REMARK    5  A    between atoms: C7_16  and  N5_17 
REMARK    6  A    between atoms: N5_17  and  N6_19 
ROOT
HETATM    1  C3  UNL     1      10.934  15.655  32.936  1.00  0.00     0.709 A 
HETATM    2  N2  UNL     1       9.969  16.011  32.050  1.00  0.00    -0.021 N 
ATOM      3  H2  UNL     1      10.103  15.821  31.057  1.00  0.00     0.203 HD
HETATM    4  C4  UNL     1       8.837  16.611  32.462  1.00  0.00     0.708 A 
HETATM    5  N4  UNL     1       8.672  16.857  33.786  1.00  0.00    -0.020 N 
ATOM      6  H4  UNL     1       7.817  17.312  34.103  1.00  0.00     0.203 HD
HETATM    7  C7  UNL     1       9.609  16.517  34.691  1.00  0.00     0.725 A 
HETATM    8  N7  UNL     1      10.722  15.918  34.216  1.00  0.00    -0.020 N 
ATOM      9  H7  UNL     1      11.444  15.652  34.885  1.00  0.00     0.203 HD
ENDROOT
BRANCH   1  10
HETATM   10  N1  UNL     1      11.981  15.087  32.450  1.00  0.00    -0.199 N 
ATOM     11  H1  UNL     1      12.217  14.142  32.753  1.00  0.00     0.180 HD
BRANCH  10  12
HETATM   12  C2  UNL     1      12.844  15.754  31.479  1.00  0.00     0.230 C 
HETATM   13  C1  UNL     1      14.156  15.026  31.343  1.00  0.00     0.063 C 
BRANCH  12  14
HETATM   14  O1  UNL     1      12.243  15.779  30.216  1.00  0.00    -0.377 OA
ATOM     15  H1  UNL     1      12.340  16.658  29.871  1.00  0.00     0.212 HD
ENDBRANCH  12  14
ENDBRANCH  10  12
ENDBRANCH   1  10
BRANCH   4  16
HETATM   16  N3  UNL     1       7.832  16.981  31.529  1.00  0.00    -0.225 N 
HETATM   17  C5  UNL     1       8.015  16.675  30.126  1.00  0.00     0.168 C 
HETATM   18  C6  UNL     1       6.632  17.657  31.971  1.00  0.00     0.168 C 
ENDBRANCH   4  16
BRANCH   7  19
HETATM   19  N5  UNL     1       9.401  16.772  35.926  1.00  0.00    -0.138 N 
ATOM     20  H5  UNL     1       8.721  17.501  36.141  1.00  0.00     0.205 HD
BRANCH  19  21
HETATM   21  N6  UNL     1      10.011  16.151  36.989  1.00  0.00    -0.331 N 
ATOM     22  H62 UNL     1      10.929  16.512  37.250  1.00  0.00     0.177 HD
ATOM     23  H61 UNL     1       9.628  15.374  37.527  1.00  0.00     0.177 HD
ENDBRANCH  19  21
ENDBRANCH   7  19
TORSDOF 6
ENDMDL
MODEL 5
REMARK VINA RESULT: -5.691351098      1.289      3.540
REMARK  6 active torsions:
REMARK  status: ('A' for Active; 'I' for Inactive)
REMARK    1  A    between atoms: C2_2  and  O1_3 
REMARK    2  A    between atoms: C2_2  and  N1_5 
REMARK    3  A    between atoms: N1_5  and  C3_7 
REMARK    4  A    between atoms: C4_10  and  N3_11 
REMARK    5  A    between atoms: C7_16  and  N5_17 
REMARK    6  A    between atoms: N5_17  and  N6_19 
ROOT
HETATM    1  C3  UNL     1      10.795  16.301  31.894  1.00  0.00     0.709 A 
HETATM    2  N2  UNL     1       9.792  16.591  31.028  1.00  0.00    -0.021 N 
ATOM      3  H2  UNL     1       9.969  16.559  30.024  1.00  0.00     0.203 HD
HETATM    4  C4  UNL     1       8.565  16.921  31.473  1.00  0.00     0.708 A 
HETATM    5  N4  UNL     1       8.345  16.960  32.811  1.00  0.00    -0.020 N 
ATOM      6  H4  UNL     1       7.417  17.210  33.154  1.00  0.00     0.203 HD
HETATM    7  C7  UNL     1       9.317  16.678  33.698  1.00  0.00     0.725 A 
HETATM    8  N7  UNL     1      10.526  16.355  33.189  1.00  0.00    -0.020 N 
ATOM      9  H7  UNL     1      11.277  16.137  33.844  1.00  0.00     0.203 HD
ENDROOT
BRANCH   1  10
HETATM   10  N1  UNL     1      11.934  15.997  31.377  1.00  0.00    -0.199 N 
ATOM     11  H1  UNL     1      12.244  16.490  30.540  1.00  0.00     0.180 HD
BRANCH  10  12
HETATM   12  C2  UNL     1      12.795  14.968  31.951  1.00  0.00     0.230 C 
HETATM   13  C1  UNL     1      14.184  15.053  31.376  1.00  0.00     0.063 C 
BRANCH  12  14
HETATM   14  O1  UNL     1      12.902  15.126  33.336  1.00  0.00    -0.377 OA
ATOM     15  H1  UNL     1      12.277  14.536  33.741  1.00  0.00     0.212 HD
ENDBRANCH  12  14
ENDBRANCH  10  12
ENDBRANCH   1  10
BRANCH   4  16
HETATM   16  N3  UNL     1       7.521  17.224  30.560  1.00  0.00    -0.225 N 
HETATM   17  C5  UNL     1       6.438  18.089  30.979  1.00  0.00     0.168 C 
HETATM   18  C6  UNL     1       7.532  16.675  29.221  1.00  0.00     0.168 C 
ENDBRANCH   4  16
BRANCH   7  19
HETATM   19  N5  UNL     1       9.053  16.730  34.947  1.00  0.00    -0.138 N 
ATOM     20  H5  UNL     1       8.238  17.276  35.227  1.00  0.00     0.205 HD
BRANCH  19  21
HETATM   21  N6  UNL     1       9.769  16.116  35.946  1.00  0.00    -0.331 N 
ATOM     22  H62 UNL     1       9.221  15.606  36.640  1.00  0.00     0.177 HD
ATOM     23  H61 UNL     1      10.784  16.128  36.048  1.00  0.00     0.177 HD
ENDBRANCH  19  21
ENDBRANCH   7  19
TORSDOF 6
ENDMDL
