MODEL 1
REMARK VINA RESULT: -7.645369765      0.000      0.000
REMARK  4 active torsions:
REMARK  status: ('A' for Active; 'I' for Inactive)
REMARK    1  A    between atoms: N1_1  and  C1_5 
REMARK    2  A    between atoms: C1_5  and  C2_6 
REMARK    3  A    between atoms: C10_14  and  C11_15 
REMARK    4  A    between atoms: C11_15  and  C12_16 
ROOT
HETATM    1  C2  UNL     1      19.911 -32.351  -3.774  1.00  0.00     0.064 A 
HETATM    2  C3  UNL     1      18.996 -31.900  -2.706  1.00  0.00    -0.004 A 
HETATM    3  C4  UNL     1      18.386 -32.976  -2.237  1.00  0.00    -0.029 A 
HETATM    4  C5  UNL     1      17.438 -33.036  -1.226  1.00  0.00     0.012 A 
HETATM    5  C6  UNL     1      16.920 -34.265  -0.883  1.00  0.00     0.001 A 
HETATM    6  C7  UNL     1      17.352 -35.398  -1.552  1.00  0.00     0.001 A 
HETATM    7  C8  UNL     1      18.288 -35.342  -2.553  1.00  0.00     0.012 A 
HETATM    8  C9  UNL     1      18.814 -34.107  -2.902  1.00  0.00    -0.023 A 
HETATM    9  C10 UNL     1      19.705 -33.823  -3.813  1.00  0.00    -0.054 A 
ENDROOT
BRANCH   9  10
HETATM   10  C11 UNL     1      20.433 -34.719  -4.758  1.00  0.00     0.094 C 
BRANCH  10  11
HETATM   11  C12 UNL     1      21.894 -34.429  -4.762  1.00  0.00     0.029 A 
HETATM   12  C13 UNL     1      22.851 -34.925  -3.902  1.00  0.00     0.114 A 
HETATM   13  N2  UNL     1      24.072 -34.430  -4.223  1.00  0.00    -0.360 N 
HETATM   14  C14 UNL     1      23.888 -33.628  -5.275  1.00  0.00     0.180 A 
ATOM     15  H2  UNL     1      24.956 -34.631  -3.754  1.00  0.00     0.166 HD
HETATM   16  N3  UNL     1      22.576 -33.618  -5.611  1.00  0.00    -0.354 N 
ATOM     17  H3  UNL     1      22.166 -33.086  -6.378  1.00  0.00     0.166 HD
ENDBRANCH  10  11
ENDBRANCH   9  10
BRANCH   1  18
HETATM   18  C1  UNL     1      19.476 -31.736  -5.086  1.00  0.00     0.242 C 
BRANCH  18  19
HETATM   19  N1  UNL     1      18.760 -30.505  -4.813  1.00  0.00    -0.078 N 
ATOM     20  H13 UNL     1      18.097 -30.602  -4.044  1.00  0.00     0.274 HD
ATOM     21  H12 UNL     1      19.358 -29.791  -4.396  1.00  0.00     0.274 HD
ATOM     22  H11 UNL     1      18.314 -30.184  -5.673  1.00  0.00     0.274 HD
ENDBRANCH  18  19
ENDBRANCH   1  18
TORSDOF 4
ENDMDL
MODEL 2
REMARK VINA RESULT: -7.554307193      2.152      2.732
REMARK  4 active torsions:
REMARK  status: ('A' for Active; 'I' for Inactive)
REMARK    1  A    between atoms: N1_1  and  C1_5 
REMARK    2  A    between atoms: C1_5  and  C2_6 
REMARK    3  A    between atoms: C10_14  and  C11_15 
REMARK    4  A    between atoms: C11_15  and  C12_16 
ROOT
HETATM    1  C2  UNL     1      19.759 -32.345  -3.431  1.00  0.00     0.064 A 
HETATM    2  C3  UNL     1      18.720 -31.814  -2.526  1.00  0.00    -0.004 A 
HETATM    3  C4  UNL     1      18.069 -32.853  -2.029  1.00  0.00    -0.029 A 
HETATM    4  C5  UNL     1      17.010 -32.837  -1.134  1.00  0.00     0.012 A 
HETATM    5  C6  UNL     1      16.467 -34.038  -0.735  1.00  0.00     0.001 A 
HETATM    6  C7  UNL     1      16.987 -35.220  -1.236  1.00  0.00     0.001 A 
HETATM    7  C8  UNL     1      18.034 -35.240  -2.121  1.00  0.00     0.012 A 
HETATM    8  C9  UNL     1      18.585 -34.033  -2.525  1.00  0.00    -0.023 A 
HETATM    9  C10 UNL     1      19.574 -33.818  -3.350  1.00  0.00    -0.054 A 
ENDROOT
BRANCH   9  10
HETATM   10  C11 UNL     1      20.417 -34.785  -4.111  1.00  0.00     0.094 C 
BRANCH  10  11
HETATM   11  C12 UNL     1      19.675 -35.351  -5.273  1.00  0.00     0.029 A 
HETATM   12  C13 UNL     1      19.582 -34.828  -6.546  1.00  0.00     0.114 A 
HETATM   13  N2  UNL     1      18.819 -35.631  -7.328  1.00  0.00    -0.360 N 
HETATM   14  C14 UNL     1      18.433 -36.650  -6.557  1.00  0.00     0.180 A 
ATOM     15  H2  UNL     1      18.586 -35.484  -8.310  1.00  0.00     0.166 HD
HETATM   16  N3  UNL     1      18.943 -36.494  -5.313  1.00  0.00    -0.354 N 
ATOM     17  H3  UNL     1      18.801 -37.132  -4.530  1.00  0.00     0.166 HD
ENDBRANCH  10  11
ENDBRANCH   9  10
BRANCH   1  18
HETATM   18  C1  UNL     1      19.476 -31.869  -4.839  1.00  0.00     0.242 C 
BRANCH  18  19
HETATM   19  N1  UNL     1      18.823 -30.575  -4.774  1.00  0.00    -0.078 N 
ATOM     20  H13 UNL     1      17.820 -30.653  -4.607  1.00  0.00     0.274 HD
ATOM     21  H12 UNL     1      19.067 -30.058  -3.929  1.00  0.00     0.274 HD
ATOM     22  H11 UNL     1      19.036 -30.054  -5.624  1.00  0.00     0.274 HD
ENDBRANCH  18  19
ENDBRANCH   1  18
TORSDOF 4
ENDMDL
MODEL 3
REMARK VINA RESULT: -7.369758966      2.655      4.773
REMARK  4 active torsions:
REMARK  status: ('A' for Active; 'I' for Inactive)
REMARK    1  A    between atoms: N1_1  and  C1_5 
REMARK    2  A    between atoms: C1_5  and  C2_6 
REMARK    3  A    between atoms: C10_14  and  C11_15 
REMARK    4  A    between atoms: C11_15  and  C12_16 
ROOT
HETATM    1  C2  UNL     1      19.851 -32.396  -6.657  1.00  0.00     0.064 A 
HETATM    2  C3  UNL     1      19.340 -33.560  -7.408  1.00  0.00    -0.004 A 
HETATM    3  C4  UNL     1      19.130 -34.527  -6.530  1.00  0.00    -0.029 A 
HETATM    4  C5  UNL     1      18.652 -35.805  -6.779  1.00  0.00     0.012 A 
HETATM    5  C6  UNL     1      18.503 -36.670  -5.718  1.00  0.00     0.001 A 
HETATM    6  C7  UNL     1      18.833 -36.246  -4.441  1.00  0.00     0.001 A 
HETATM    7  C8  UNL     1      19.306 -34.983  -4.192  1.00  0.00     0.012 A 
HETATM    8  C9  UNL     1      19.458 -34.108  -5.257  1.00  0.00    -0.023 A 
HETATM    9  C10 UNL     1      19.887 -32.875  -5.251  1.00  0.00    -0.054 A 
ENDROOT
BRANCH   9  10
HETATM   10  C11 UNL     1      20.344 -32.023  -4.115  1.00  0.00     0.094 C 
BRANCH  10  11
HETATM   11  C12 UNL     1      19.196 -31.339  -3.455  1.00  0.00     0.029 A 
HETATM   12  C13 UNL     1      18.507 -31.748  -2.333  1.00  0.00     0.114 A 
HETATM   13  N2  UNL     1      17.526 -30.861  -2.035  1.00  0.00    -0.360 N 
HETATM   14  C14 UNL     1      17.593 -29.901  -2.961  1.00  0.00     0.180 A 
ATOM     15  H2  UNL     1      16.867 -30.917  -1.259  1.00  0.00     0.166 HD
HETATM   16  N3  UNL     1      18.598 -30.178  -3.826  1.00  0.00    -0.354 N 
ATOM     17  H3  UNL     1      18.864 -29.605  -4.627  1.00  0.00     0.166 HD
ENDBRANCH  10  11
ENDBRANCH   9  10
BRANCH   1  18
HETATM   18  C1  UNL     1      21.254 -32.084  -7.129  1.00  0.00     0.242 C 
BRANCH  18  19
HETATM   19  N1  UNL     1      21.221 -31.811  -8.554  1.00  0.00    -0.078 N 
ATOM     20  H13 UNL     1      20.501 -32.350  -9.036  1.00  0.00     0.274 HD
ATOM     21  H12 UNL     1      20.864 -30.879  -8.764  1.00  0.00     0.274 HD
ATOM     22  H11 UNL     1      22.150 -31.969  -8.942  1.00  0.00     0.274 HD
ENDBRANCH  18  19
ENDBRANCH   1  18
TORSDOF 4
ENDMDL
MODEL 4
REMARK VINA RESULT: -7.354733933      2.093      3.020
REMARK  4 active torsions:
REMARK  status: ('A' for Active; 'I' for Inactive)
REMARK    1  A    between atoms: N1_1  and  C1_5 
REMARK    2  A    between atoms: C1_5  and  C2_6 
REMARK    3  A    between atoms: C10_14  and  C11_15 
REMARK    4  A    between atoms: C11_15  and  C12_16 
ROOT
HETATM    1  C2  UNL     1      20.665 -32.736  -4.454  1.00  0.00     0.064 A 
HETATM    2  C3  UNL     1      19.862 -31.719  -3.746  1.00  0.00    -0.004 A 
HETATM    3  C4  UNL     1      19.053 -32.367  -2.923  1.00  0.00    -0.029 A 
HETATM    4  C5  UNL     1      18.117 -31.823  -2.057  1.00  0.00     0.012 A 
HETATM    5  C6  UNL     1      17.367 -32.676  -1.278  1.00  0.00     0.001 A 
HETATM    6  C7  UNL     1      17.564 -34.043  -1.381  1.00  0.00     0.001 A 
HETATM    7  C8  UNL     1      18.489 -34.584  -2.236  1.00  0.00     0.012 A 
HETATM    8  C9  UNL     1      19.247 -33.730  -3.023  1.00  0.00    -0.023 A 
HETATM    9  C10 UNL     1      20.173 -34.022  -3.896  1.00  0.00    -0.054 A 
ENDROOT
BRANCH   9  10
HETATM   10  C11 UNL     1      20.705 -35.349  -4.323  1.00  0.00     0.094 C 
BRANCH  10  11
HETATM   11  C12 UNL     1      19.911 -35.913  -5.450  1.00  0.00     0.029 A 
HETATM   12  C13 UNL     1      18.600 -36.342  -5.422  1.00  0.00     0.114 A 
HETATM   13  N2  UNL     1      18.227 -36.791  -6.646  1.00  0.00    -0.360 N 
HETATM   14  C14 UNL     1      19.292 -36.648  -7.439  1.00  0.00     0.180 A 
ATOM     15  H2  UNL     1      17.315 -37.164  -6.908  1.00  0.00     0.166 HD
HETATM   16  N3  UNL     1      20.316 -36.119  -6.729  1.00  0.00    -0.354 N 
ATOM     17  H3  UNL     1      21.244 -35.908  -7.097  1.00  0.00     0.166 HD
ENDBRANCH  10  11
ENDBRANCH   9  10
BRANCH   1  18
HETATM   18  C1  UNL     1      20.355 -32.665  -5.933  1.00  0.00     0.242 C 
BRANCH  18  19
HETATM   19  N1  UNL     1      21.588 -32.829  -6.680  1.00  0.00    -0.078 N 
ATOM     20  H13 UNL     1      22.071 -33.696  -6.448  1.00  0.00     0.274 HD
ATOM     21  H12 UNL     1      21.422 -33.019  -7.668  1.00  0.00     0.274 HD
ATOM     22  H11 UNL     1      22.173 -32.006  -6.535  1.00  0.00     0.274 HD
ENDBRANCH  18  19
ENDBRANCH   1  18
TORSDOF 4
ENDMDL
MODEL 5
REMARK VINA RESULT: -7.083526339      2.330      5.136
REMARK  4 active torsions:
REMARK  status: ('A' for Active; 'I' for Inactive)
REMARK    1  A    between atoms: N1_1  and  C1_5 
REMARK    2  A    between atoms: C1_5  and  C2_6 
REMARK    3  A    between atoms: C10_14  and  C11_15 
REMARK    4  A    between atoms: C11_15  and  C12_16 
ROOT
HETATM    1  C2  UNL     1      19.453 -32.821  -4.322  1.00  0.00     0.064 A 
HETATM    2  C3  UNL     1      19.523 -33.064  -5.778  1.00  0.00    -0.004 A 
HETATM    3  C4  UNL     1      19.274 -34.349  -5.969  1.00  0.00    -0.029 A 
HETATM    4  C5  UNL     1      19.233 -35.031  -7.176  1.00  0.00     0.012 A 
HETATM    5  C6  UNL     1      18.954 -36.380  -7.161  1.00  0.00     0.001 A 
HETATM    6  C7  UNL     1      18.725 -37.015  -5.952  1.00  0.00     0.001 A 
HETATM    7  C8  UNL     1      18.765 -36.344  -4.757  1.00  0.00     0.012 A 
HETATM    8  C9  UNL     1      19.045 -34.986  -4.766  1.00  0.00    -0.023 A 
HETATM    9  C10 UNL     1      19.132 -34.159  -3.759  1.00  0.00    -0.054 A 
ENDROOT
BRANCH   9  10
HETATM   10  C11 UNL     1      18.962 -34.404  -2.298  1.00  0.00     0.094 C 
BRANCH  10  11
HETATM   11  C12 UNL     1      17.841 -33.596  -1.741  1.00  0.00     0.029 A 
HETATM   12  C13 UNL     1      16.676 -34.060  -1.167  1.00  0.00     0.114 A 
HETATM   13  N2  UNL     1      15.898 -33.019  -0.778  1.00  0.00    -0.360 N 
HETATM   14  C14 UNL     1      16.565 -31.909  -1.104  1.00  0.00     0.180 A 
ATOM     15  H2  UNL     1      14.985 -33.074  -0.327  1.00  0.00     0.166 HD
HETATM   16  N3  UNL     1      17.741 -32.243  -1.687  1.00  0.00    -0.354 N 
ATOM     17  H3  UNL     1      18.439 -31.584  -2.031  1.00  0.00     0.166 HD
ENDBRANCH  10  11
ENDBRANCH   9  10
BRANCH   1  18
HETATM   18  C1  UNL     1      20.812 -32.371  -3.834  1.00  0.00     0.242 C 
BRANCH  18  19
HETATM   19  N1  UNL     1      21.822 -32.825  -4.771  1.00  0.00    -0.078 N 
ATOM     20  H13 UNL     1      22.329 -33.642  -4.431  1.00  0.00     0.274 HD
ATOM     21  H12 UNL     1      21.417 -33.247  -5.606  1.00  0.00     0.274 HD
ATOM     22  H11 UNL     1      22.443 -32.046  -4.990  1.00  0.00     0.274 HD
ENDBRANCH  18  19
ENDBRANCH   1  18
TORSDOF 4
ENDMDL
