MODEL 1
REMARK VINA RESULT: -5.455589011      0.000      0.000
REMARK  5 active torsions:
REMARK  status: ('A' for Active; 'I' for Inactive)
REMARK    1  A    between atoms: N1_1  and  N2_4 
REMARK    2  A    between atoms: N2_4  and  C1_5 
REMARK    3  A    between atoms: C1_5  and  C2_6 
REMARK    4  A    between atoms: C2_6  and  C3_7 
REMARK    5  A    between atoms: C3_7  and  N3_8 
ROOT
HETATM    1  N3  UNL     1      20.891 -34.524  -5.580  1.00  0.00    -0.350 N 
HETATM    2  C4  UNL     1      21.378 -35.789  -5.422  1.00  0.00     0.183 A 
HETATM    3  N4  UNL     1      22.625 -35.747  -4.920  1.00  0.00    -0.345 N 
ATOM      4  H4  UNL     1      23.207 -36.557  -4.710  1.00  0.00     0.167 HD
HETATM    5  C5  UNL     1      22.982 -34.458  -4.738  1.00  0.00     0.096 A 
HETATM    6 BR1  UNL     1      24.640 -33.793  -4.052  1.00  0.00    -0.030 Br
HETATM    7  C6  UNL     1      21.889 -33.728  -5.156  1.00  0.00     0.129 A 
ENDROOT
BRANCH   1   8
HETATM    8  C3  UNL     1      19.576 -34.160  -6.100  1.00  0.00     0.130 C 
BRANCH   8   9
HETATM    9  C2  UNL     1      19.514 -32.681  -6.349  1.00  0.00     0.038 C 
BRANCH   9  10
HETATM   10  C1  UNL     1      19.559 -32.307  -7.808  1.00  0.00     0.136 C 
BRANCH  10  11
HETATM   11  N2  UNL     1      20.474 -31.249  -8.099  1.00  0.00    -0.148 NA
BRANCH  11  12
HETATM   12  N1  UNL     1      21.568 -31.660  -8.851  1.00  0.00    -0.348 N 
ATOM     13  H12 UNL     1      22.324 -32.219  -8.458  1.00  0.00     0.172 HD
ATOM     14  H11 UNL     1      21.532 -31.345  -9.821  1.00  0.00     0.172 HD
ENDBRANCH  11  12
ENDBRANCH  10  11
ENDBRANCH   9  10
ENDBRANCH   8   9
ENDBRANCH   1   8
TORSDOF 5
ENDMDL
MODEL 2
REMARK VINA RESULT: -5.265111240      2.675      4.526
REMARK  5 active torsions:
REMARK  status: ('A' for Active; 'I' for Inactive)
REMARK    1  A    between atoms: N1_1  and  N2_4 
REMARK    2  A    between atoms: N2_4  and  C1_5 
REMARK    3  A    between atoms: C1_5  and  C2_6 
REMARK    4  A    between atoms: C2_6  and  C3_7 
REMARK    5  A    between atoms: C3_7  and  N3_8 
ROOT
HETATM    1  N3  UNL     1      19.540 -33.572  -5.384  1.00  0.00    -0.350 N 
HETATM    2  C4  UNL     1      19.188 -34.395  -6.413  1.00  0.00     0.183 A 
HETATM    3  N4  UNL     1      19.380 -33.773  -7.591  1.00  0.00    -0.345 N 
ATOM      4  H4  UNL     1      19.193 -34.173  -8.510  1.00  0.00     0.167 HD
HETATM    5  C5  UNL     1      19.862 -32.534  -7.360  1.00  0.00     0.096 A 
HETATM    6 BR1  UNL     1      20.322 -31.201  -8.654  1.00  0.00    -0.030 Br
HETATM    7  C6  UNL     1      19.949 -32.441  -5.986  1.00  0.00     0.129 A 
ENDROOT
BRANCH   1   8
HETATM    8  C3  UNL     1      19.471 -33.887  -3.959  1.00  0.00     0.130 C 
BRANCH   8   9
HETATM    9  C2  UNL     1      20.272 -35.123  -3.668  1.00  0.00     0.038 C 
BRANCH   9  10
HETATM   10  C1  UNL     1      21.757 -34.941  -3.841  1.00  0.00     0.136 C 
BRANCH  10  11
HETATM   11  N2  UNL     1      22.430 -36.123  -4.278  1.00  0.00    -0.148 NA
BRANCH  11  12
HETATM   12  N1  UNL     1      22.444 -36.270  -5.660  1.00  0.00    -0.348 N 
ATOM     13  H12 UNL     1      23.172 -35.864  -6.247  1.00  0.00     0.172 HD
ATOM     14  H11 UNL     1      21.660 -36.818  -6.016  1.00  0.00     0.172 HD
ENDBRANCH  11  12
ENDBRANCH  10  11
ENDBRANCH   9  10
ENDBRANCH   8   9
ENDBRANCH   1   8
TORSDOF 5
ENDMDL
MODEL 3
REMARK VINA RESULT: -5.242121214      2.588      2.971
REMARK  5 active torsions:
REMARK  status: ('A' for Active; 'I' for Inactive)
REMARK    1  A    between atoms: N1_1  and  N2_4 
REMARK    2  A    between atoms: N2_4  and  C1_5 
REMARK    3  A    between atoms: C1_5  and  C2_6 
REMARK    4  A    between atoms: C2_6  and  C3_7 
REMARK    5  A    between atoms: C3_7  and  N3_8 
ROOT
HETATM    1  N3  UNL     1      20.893 -35.008  -4.664  1.00  0.00    -0.350 N 
HETATM    2  C4  UNL     1      21.644 -35.945  -5.311  1.00  0.00     0.183 A 
HETATM    3  N4  UNL     1      22.953 -35.665  -5.174  1.00  0.00    -0.345 N 
ATOM      4  H4  UNL     1      23.720 -36.212  -5.564  1.00  0.00     0.167 HD
HETATM    5  C5  UNL     1      23.087 -34.543  -4.437  1.00  0.00     0.096 A 
HETATM    6 BR1  UNL     1      24.712 -33.673  -3.922  1.00  0.00    -0.030 Br
HETATM    7  C6  UNL     1      21.795 -34.162  -4.138  1.00  0.00     0.129 A 
ENDROOT
BRANCH   1   8
HETATM    8  C3  UNL     1      19.435 -34.969  -4.586  1.00  0.00     0.130 C 
BRANCH   8   9
HETATM    9  C2  UNL     1      18.842 -35.176  -5.951  1.00  0.00     0.038 C 
BRANCH   9  10
HETATM   10  C1  UNL     1      18.386 -36.588  -6.208  1.00  0.00     0.136 C 
BRANCH  10  11
HETATM   11  N2  UNL     1      18.674 -37.048  -7.530  1.00  0.00    -0.148 NA
BRANCH  11  12
HETATM   12  N1  UNL     1      19.454 -36.163  -8.264  1.00  0.00    -0.348 N 
ATOM     13  H12 UNL     1      19.370 -36.068  -9.275  1.00  0.00     0.172 HD
ATOM     14  H11 UNL     1      20.107 -35.629  -7.690  1.00  0.00     0.172 HD
ENDBRANCH  11  12
ENDBRANCH  10  11
ENDBRANCH   9  10
ENDBRANCH   8   9
ENDBRANCH   1   8
TORSDOF 5
ENDMDL
MODEL 4
REMARK VINA RESULT: -5.199660653      2.173      3.164
REMARK  5 active torsions:
REMARK  status: ('A' for Active; 'I' for Inactive)
REMARK    1  A    between atoms: N1_1  and  N2_4 
REMARK    2  A    between atoms: N2_4  and  C1_5 
REMARK    3  A    between atoms: C1_5  and  C2_6 
REMARK    4  A    between atoms: C2_6  and  C3_7 
REMARK    5  A    between atoms: C3_7  and  N3_8 
ROOT
HETATM    1  N3  UNL     1      20.794 -34.078  -4.846  1.00  0.00    -0.350 N 
HETATM    2  C4  UNL     1      21.264 -33.235  -5.811  1.00  0.00     0.183 A 
HETATM    3  N4  UNL     1      22.586 -33.043  -5.655  1.00  0.00    -0.345 N 
ATOM      4  H4  UNL     1      23.173 -32.455  -6.246  1.00  0.00     0.167 HD
HETATM    5  C5  UNL     1      23.011 -33.754  -4.590  1.00  0.00     0.096 A 
HETATM    6 BR1  UNL     1      24.791 -33.865  -3.896  1.00  0.00    -0.030 Br
HETATM    7  C6  UNL     1      21.879 -34.382  -4.113  1.00  0.00     0.129 A 
ENDROOT
BRANCH   1   8
HETATM    8  C3  UNL     1      19.413 -34.525  -4.682  1.00  0.00     0.130 C 
BRANCH   8   9
HETATM    9  C2  UNL     1      18.877 -35.026  -5.992  1.00  0.00     0.038 C 
BRANCH   9  10
HETATM   10  C1  UNL     1      18.724 -36.523  -6.054  1.00  0.00     0.136 C 
BRANCH  10  11
HETATM   11  N2  UNL     1      18.737 -37.044  -7.385  1.00  0.00    -0.148 NA
BRANCH  11  12
HETATM   12  N1  UNL     1      19.447 -36.251  -8.279  1.00  0.00    -0.348 N 
ATOM     13  H12 UNL     1      19.419 -35.233  -8.249  1.00  0.00     0.172 HD
ATOM     14  H11 UNL     1      19.988 -36.790  -8.955  1.00  0.00     0.172 HD
ENDBRANCH  11  12
ENDBRANCH  10  11
ENDBRANCH   9  10
ENDBRANCH   8   9
ENDBRANCH   1   8
TORSDOF 5
ENDMDL
MODEL 5
REMARK VINA RESULT: -5.178253372      2.910      4.103
REMARK  5 active torsions:
REMARK  status: ('A' for Active; 'I' for Inactive)
REMARK    1  A    between atoms: N1_1  and  N2_4 
REMARK    2  A    between atoms: N2_4  and  C1_5 
REMARK    3  A    between atoms: C1_5  and  C2_6 
REMARK    4  A    between atoms: C2_6  and  C3_7 
REMARK    5  A    between atoms: C3_7  and  N3_8 
ROOT
HETATM    1  N3  UNL     1      20.078 -34.341  -5.236  1.00  0.00    -0.350 N 
HETATM    2  C4  UNL     1      21.405 -34.130  -5.472  1.00  0.00     0.183 A 
HETATM    3  N4  UNL     1      21.564 -33.165  -6.396  1.00  0.00    -0.345 N 
ATOM      4  H4  UNL     1      22.458 -32.822  -6.746  1.00  0.00     0.167 HD
HETATM    5  C5  UNL     1      20.350 -32.722  -6.783  1.00  0.00     0.096 A 
HETATM    6 BR1  UNL     1      19.960 -31.360  -8.069  1.00  0.00    -0.030 Br
HETATM    7  C6  UNL     1      19.453 -33.470  -6.048  1.00  0.00     0.129 A 
ENDROOT
BRANCH   1   8
HETATM    8  C3  UNL     1      19.506 -35.308  -4.303  1.00  0.00     0.130 C 
BRANCH   8   9
HETATM    9  C2  UNL     1      18.597 -36.252  -5.036  1.00  0.00     0.038 C 
BRANCH   9  10
HETATM   10  C1  UNL     1      19.290 -37.060  -6.102  1.00  0.00     0.136 C 
BRANCH  10  11
HETATM   11  N2  UNL     1      18.685 -36.942  -7.391  1.00  0.00    -0.148 NA
BRANCH  11  12
HETATM   12  N1  UNL     1      19.421 -36.162  -8.275  1.00  0.00    -0.348 N 
ATOM     13  H12 UNL     1      20.434 -36.069  -8.210  1.00  0.00     0.172 HD
ATOM     14  H11 UNL     1      18.847 -35.703  -8.983  1.00  0.00     0.172 HD
ENDBRANCH  11  12
ENDBRANCH  10  11
ENDBRANCH   9  10
ENDBRANCH   8   9
ENDBRANCH   1   8
TORSDOF 5
ENDMDL
