MODEL 1
REMARK VINA RESULT: -7.450071426      0.000      0.000
REMARK  4 active torsions:
REMARK  status: ('A' for Active; 'I' for Inactive)
REMARK    1  A    between atoms: C1_4  and  C2_6 
REMARK    2  A    between atoms: N3_9  and  C5_10 
REMARK    3  A    between atoms: C5_10  and  C6_11 
REMARK    4  A    between atoms: C6_11  and  N4_12 
ROOT
HETATM    1  C2  UNL     1      19.357 -34.864  -5.802  1.00  0.00     0.007 A 
HETATM    2  C3  UNL     1      19.340 -34.876  -4.418  1.00  0.00     0.032 A 
HETATM    3  C4  UNL     1      19.463 -33.712  -3.688  1.00  0.00     0.091 A 
HETATM    4  N3  UNL     1      19.606 -32.517  -4.290  1.00  0.00    -0.365 N 
HETATM    5  C9  UNL     1      19.624 -32.492  -5.628  1.00  0.00     0.091 A 
HETATM    6  C10 UNL     1      19.502 -33.645  -6.409  1.00  0.00     0.032 A 
ENDROOT
BRANCH   4   7
HETATM    7  C5  UNL     1      19.735 -31.291  -3.537  1.00  0.00     0.149 C 
BRANCH   7   8
HETATM    8  C6  UNL     1      18.741 -31.139  -2.427  1.00  0.00     0.170 C 
BRANCH   8   9
HETATM    9  N4  UNL     1      17.719 -30.155  -2.724  1.00  0.00    -0.286 N 
HETATM   10  C7  UNL     1      16.969 -29.439  -1.875  1.00  0.00     0.130 A 
HETATM   11  C8  UNL     1      16.147 -28.645  -2.602  1.00  0.00     0.127 A 
HETATM   12  N5  UNL     1      16.403 -28.882  -3.901  1.00  0.00    -0.296 N 
HETATM   13  N6  UNL     1      17.354 -29.796  -3.942  1.00  0.00    -0.241 N 
ATOM     14  H5  UNL     1      15.949 -28.441  -4.700  1.00  0.00     0.187 HD
ATOM     15  H6  UNL     1      17.754 -30.175  -4.800  1.00  0.00     0.208 HD
ENDBRANCH   8   9
ENDBRANCH   7   8
ENDBRANCH   4   7
BRANCH   1  16
HETATM   16  C1  UNL     1      19.224 -36.113  -6.568  1.00  0.00     0.120 C 
HETATM   17  N1  UNL     1      19.409 -36.174  -7.828  1.00  0.00    -0.387 N 
ATOM     18  H12 UNL     1      19.317 -37.040  -8.359  1.00  0.00     0.157 HD
ATOM     19  H11 UNL     1      19.660 -35.319  -8.325  1.00  0.00     0.157 HD
HETATM   20  N2  UNL     1      18.876 -37.296  -5.881  1.00  0.00    -0.082 NA
ENDBRANCH   1  16
TORSDOF 4
ENDMDL
MODEL 2
REMARK VINA RESULT: -7.444750354      0.039      1.162
REMARK  4 active torsions:
REMARK  status: ('A' for Active; 'I' for Inactive)
REMARK    1  A    between atoms: C1_4  and  C2_6 
REMARK    2  A    between atoms: N3_9  and  C5_10 
REMARK    3  A    between atoms: C5_10  and  C6_11 
REMARK    4  A    between atoms: C6_11  and  N4_12 
ROOT
HETATM    1  C2  UNL     1      19.340 -34.893  -5.770  1.00  0.00     0.007 A 
HETATM    2  C3  UNL     1      19.459 -33.664  -6.395  1.00  0.00     0.032 A 
HETATM    3  C4  UNL     1      19.588 -32.498  -5.670  1.00  0.00     0.091 A 
HETATM    4  N3  UNL     1      19.603 -32.506  -4.323  1.00  0.00    -0.365 N 
HETATM    5  C9  UNL     1      19.488 -33.689  -3.707  1.00  0.00     0.091 A 
HETATM    6  C10 UNL     1      19.356 -34.895  -4.400  1.00  0.00     0.032 A 
ENDROOT
BRANCH   4   7
HETATM    7  C5  UNL     1      19.738 -31.293  -3.552  1.00  0.00     0.149 C 
BRANCH   7   8
HETATM    8  C6  UNL     1      18.750 -31.157  -2.434  1.00  0.00     0.170 C 
BRANCH   8   9
HETATM    9  N4  UNL     1      17.719 -30.178  -2.716  1.00  0.00    -0.286 N 
HETATM   10  C7  UNL     1      16.953 -29.492  -1.856  1.00  0.00     0.130 A 
HETATM   11  C8  UNL     1      16.129 -28.690  -2.570  1.00  0.00     0.127 A 
HETATM   12  N5  UNL     1      16.398 -28.891  -3.872  1.00  0.00    -0.296 N 
HETATM   13  N6  UNL     1      17.361 -29.793  -3.927  1.00  0.00    -0.241 N 
ATOM     14  H5  UNL     1      15.947 -28.434  -4.664  1.00  0.00     0.187 HD
ATOM     15  H6  UNL     1      17.773 -30.145  -4.791  1.00  0.00     0.208 HD
ENDBRANCH   8   9
ENDBRANCH   7   8
ENDBRANCH   4   7
BRANCH   1  16
HETATM   16  C1  UNL     1      19.203 -36.129  -6.557  1.00  0.00     0.120 C 
HETATM   17  N1  UNL     1      19.409 -36.173  -7.814  1.00  0.00    -0.387 N 
ATOM     18  H12 UNL     1      19.314 -37.030  -8.359  1.00  0.00     0.157 HD
ATOM     19  H11 UNL     1      19.679 -35.315  -8.294  1.00  0.00     0.157 HD
HETATM   20  N2  UNL     1      18.828 -37.317  -5.893  1.00  0.00    -0.082 NA
ENDBRANCH   1  16
TORSDOF 4
ENDMDL
MODEL 3
REMARK VINA RESULT: -7.331598267      0.975      1.815
REMARK  4 active torsions:
REMARK  status: ('A' for Active; 'I' for Inactive)
REMARK    1  A    between atoms: C1_4  and  C2_6 
REMARK    2  A    between atoms: N3_9  and  C5_10 
REMARK    3  A    between atoms: C5_10  and  C6_11 
REMARK    4  A    between atoms: C6_11  and  N4_12 
ROOT
HETATM    1  C2  UNL     1      19.175 -34.878  -6.018  1.00  0.00     0.007 A 
HETATM    2  C3  UNL     1      19.445 -33.604  -6.486  1.00  0.00     0.032 A 
HETATM    3  C4  UNL     1      19.669 -32.554  -5.620  1.00  0.00     0.091 A 
HETATM    4  N3  UNL     1      19.635 -32.723  -4.285  1.00  0.00    -0.365 N 
HETATM    5  C9  UNL     1      19.375 -33.952  -3.820  1.00  0.00     0.091 A 
HETATM    6  C10 UNL     1      19.141 -35.045  -4.659  1.00  0.00     0.032 A 
ENDROOT
BRANCH   4   7
HETATM    7  C5  UNL     1      19.870 -31.633  -3.369  1.00  0.00     0.149 C 
BRANCH   7   8
HETATM    8  C6  UNL     1      18.932 -30.475  -3.531  1.00  0.00     0.170 C 
BRANCH   8   9
HETATM    9  N4  UNL     1      17.935 -30.413  -2.482  1.00  0.00    -0.286 N 
HETATM   10  C7  UNL     1      16.876 -29.598  -2.375  1.00  0.00     0.130 A 
HETATM   11  C8  UNL     1      16.223 -29.900  -1.228  1.00  0.00     0.127 A 
HETATM   12  N5  UNL     1      16.892 -30.906  -0.635  1.00  0.00    -0.296 N 
HETATM   13  N6  UNL     1      17.918 -31.192  -1.415  1.00  0.00    -0.241 N 
ATOM     14  H5  UNL     1      16.653 -31.359   0.246  1.00  0.00     0.187 HD
ATOM     15  H6  UNL     1      18.606 -31.919  -1.220  1.00  0.00     0.208 HD
ENDBRANCH   8   9
ENDBRANCH   7   8
ENDBRANCH   4   7
BRANCH   1  16
HETATM   16  C1  UNL     1      18.937 -35.989  -6.953  1.00  0.00     0.120 C 
HETATM   17  N1  UNL     1      19.471 -36.046  -8.109  1.00  0.00    -0.387 N 
ATOM     18  H12 UNL     1      19.305 -36.816  -8.757  1.00  0.00     0.157 HD
ATOM     19  H11 UNL     1      20.089 -35.287  -8.397  1.00  0.00     0.157 HD
HETATM   20  N2  UNL     1      18.081 -37.039  -6.554  1.00  0.00    -0.082 NA
ENDBRANCH   1  16
TORSDOF 4
ENDMDL
MODEL 4
REMARK VINA RESULT: -7.329960280      0.960      1.384
REMARK  4 active torsions:
REMARK  status: ('A' for Active; 'I' for Inactive)
REMARK    1  A    between atoms: C1_4  and  C2_6 
REMARK    2  A    between atoms: N3_9  and  C5_10 
REMARK    3  A    between atoms: C5_10  and  C6_11 
REMARK    4  A    between atoms: C6_11  and  N4_12 
ROOT
HETATM    1  C2  UNL     1      19.182 -34.863  -6.005  1.00  0.00     0.007 A 
HETATM    2  C3  UNL     1      19.129 -35.024  -4.631  1.00  0.00     0.032 A 
HETATM    3  C4  UNL     1      19.352 -33.967  -3.775  1.00  0.00     0.091 A 
HETATM    4  N3  UNL     1      19.631 -32.734  -4.238  1.00  0.00    -0.365 N 
HETATM    5  C9  UNL     1      19.686 -32.565  -5.564  1.00  0.00     0.091 A 
HETATM    6  C10 UNL     1      19.467 -33.607  -6.470  1.00  0.00     0.032 A 
ENDROOT
BRANCH   4   7
HETATM    7  C5  UNL     1      19.866 -31.618  -3.352  1.00  0.00     0.149 C 
BRANCH   7   8
HETATM    8  C6  UNL     1      18.921 -30.471  -3.537  1.00  0.00     0.170 C 
BRANCH   8   9
HETATM    9  N4  UNL     1      17.917 -30.401  -2.495  1.00  0.00    -0.286 N 
HETATM   10  C7  UNL     1      16.845 -29.600  -2.412  1.00  0.00     0.130 A 
HETATM   11  C8  UNL     1      16.190 -29.887  -1.262  1.00  0.00     0.127 A 
HETATM   12  N5  UNL     1      16.870 -30.870  -0.645  1.00  0.00    -0.296 N 
HETATM   13  N6  UNL     1      17.905 -31.157  -1.412  1.00  0.00    -0.241 N 
ATOM     14  H5  UNL     1      16.632 -31.308   0.245  1.00  0.00     0.187 HD
ATOM     15  H6  UNL     1      18.603 -31.869  -1.197  1.00  0.00     0.208 HD
ENDBRANCH   8   9
ENDBRANCH   7   8
ENDBRANCH   4   7
BRANCH   1  16
HETATM   16  C1  UNL     1      18.942 -36.000  -6.907  1.00  0.00     0.120 C 
HETATM   17  N1  UNL     1      19.454 -36.078  -8.072  1.00  0.00    -0.387 N 
ATOM     18  H12 UNL     1      19.287 -36.866  -8.697  1.00  0.00     0.157 HD
ATOM     19  H11 UNL     1      20.055 -35.318  -8.392  1.00  0.00     0.157 HD
HETATM   20  N2  UNL     1      18.110 -37.052  -6.466  1.00  0.00    -0.082 NA
ENDBRANCH   1  16
TORSDOF 4
ENDMDL
MODEL 5
REMARK VINA RESULT: -7.178248005      3.492      5.245
REMARK  4 active torsions:
REMARK  status: ('A' for Active; 'I' for Inactive)
REMARK    1  A    between atoms: C1_4  and  C2_6 
REMARK    2  A    between atoms: N3_9  and  C5_10 
REMARK    3  A    between atoms: C5_10  and  C6_11 
REMARK    4  A    between atoms: C6_11  and  N4_12 
ROOT
HETATM    1  C2  UNL     1      19.398 -33.231  -5.841  1.00  0.00     0.007 A 
HETATM    2  C3  UNL     1      19.126 -34.582  -5.718  1.00  0.00     0.032 A 
HETATM    3  C4  UNL     1      18.977 -35.175  -4.482  1.00  0.00     0.091 A 
HETATM    4  N3  UNL     1      19.092 -34.466  -3.344  1.00  0.00    -0.365 N 
HETATM    5  C9  UNL     1      19.356 -33.158  -3.450  1.00  0.00     0.091 A 
HETATM    6  C10 UNL     1      19.514 -32.514  -4.680  1.00  0.00     0.032 A 
ENDROOT
BRANCH   4   7
HETATM    7  C5  UNL     1      18.938 -35.075  -2.044  1.00  0.00     0.149 C 
BRANCH   7   8
HETATM    8  C6  UNL     1      17.626 -34.791  -1.378  1.00  0.00     0.170 C 
BRANCH   8   9
HETATM    9  N4  UNL     1      16.922 -35.998  -0.996  1.00  0.00    -0.286 N 
HETATM   10  C7  UNL     1      16.184 -36.231   0.099  1.00  0.00     0.130 A 
HETATM   11  C8  UNL     1      15.719 -37.500   0.035  1.00  0.00     0.127 A 
HETATM   12  N5  UNL     1      16.177 -38.041  -1.108  1.00  0.00    -0.296 N 
HETATM   13  N6  UNL     1      16.899 -37.111  -1.707  1.00  0.00    -0.241 N 
ATOM     14  H5  UNL     1      16.002 -38.986  -1.447  1.00  0.00     0.187 HD
ATOM     15  H6  UNL     1      17.375 -37.236  -2.600  1.00  0.00     0.208 HD
ENDBRANCH   8   9
ENDBRANCH   7   8
ENDBRANCH   4   7
BRANCH   1  16
HETATM   16  C1  UNL     1      19.554 -32.611  -7.167  1.00  0.00     0.120 C 
HETATM   17  N1  UNL     1      19.612 -33.290  -8.244  1.00  0.00    -0.387 N 
ATOM     18  H12 UNL     1      19.720 -32.860  -9.163  1.00  0.00     0.157 HD
ATOM     19  H11 UNL     1      19.547 -34.306  -8.184  1.00  0.00     0.157 HD
HETATM   20  N2  UNL     1      19.644 -31.205  -7.251  1.00  0.00    -0.082 NA
ENDBRANCH   1  16
TORSDOF 4
ENDMDL
