MODEL 1
REMARK VINA RESULT: -4.414387394      0.000      0.000
REMARK  2 active torsions:
REMARK  status: ('A' for Active; 'I' for Inactive)
REMARK    1  A    between atoms: O1_2  and  N1_3 
REMARK    2  A    between atoms: N1_3  and  C2_5 
ROOT
HETATM    1  C2  UNL     1      13.188  25.872  19.654  1.00  0.00     0.047 C 
HETATM    2  C3  UNL     1      14.149  26.274  18.612  1.00  0.00     0.060 C 
HETATM    3  C4  UNL     1      14.265  27.769  18.437  1.00  0.00     0.006 C 
HETATM    4  C5  UNL     1      15.503  28.279  17.817  1.00  0.00     0.000 C 
HETATM    5  C6  UNL     1      16.522  28.921  18.796  1.00  0.00     0.000 C 
HETATM    6  C7  UNL     1      16.710  27.887  19.769  1.00  0.00     0.000 C 
HETATM    7  C8  UNL     1      17.555  28.009  21.027  1.00  0.00     0.000 C 
HETATM    8  C9  UNL     1      17.018  26.848  21.798  1.00  0.00     0.000 C 
HETATM    9  C10 UNL     1      17.356  26.364  23.081  1.00  0.00     0.002 C 
HETATM   10  C11 UNL     1      16.408  25.141  23.244  1.00  0.00     0.020 C 
HETATM   11  C12 UNL     1      15.014  25.368  22.821  1.00  0.00     0.119 C 
HETATM   12  N2  UNL     1      14.678  25.037  21.441  1.00  0.00    -0.397 N 
ATOM     13  H2  UNL     1      15.273  24.481  20.828  1.00  0.00     0.158 HD
HETATM   14  C13 UNL     1      13.417  25.581  21.046  1.00  0.00     0.110 C 
ENDROOT
BRANCH   1  15
HETATM   15  N1  UNL     1      11.943  25.769  19.230  1.00  0.00    -0.270 N 
ATOM     16  H1  UNL     1      11.675  26.268  18.381  1.00  0.00     0.194 HD
BRANCH  15  17
HETATM   17  O1  UNL     1      10.997  25.025  19.876  1.00  0.00    -0.285 OA
HETATM   18  C1  UNL     1       9.757  25.659  20.157  1.00  0.00     0.237 C 
ENDBRANCH  15  17
ENDBRANCH   1  15
TORSDOF 2
ENDMDL
MODEL 2
REMARK VINA RESULT: -4.105017718      2.546      3.880
REMARK  2 active torsions:
REMARK  status: ('A' for Active; 'I' for Inactive)
REMARK    1  A    between atoms: O1_2  and  N1_3 
REMARK    2  A    between atoms: N1_3  and  C2_5 
ROOT
HETATM    1  C2  UNL     1      10.693  26.502  19.959  1.00  0.00     0.047 C 
HETATM    2  C3  UNL     1      10.435  27.904  19.586  1.00  0.00     0.060 C 
HETATM    3  C4  UNL     1      10.544  28.870  20.740  1.00  0.00     0.006 C 
HETATM    4  C5  UNL     1      10.801  30.285  20.411  1.00  0.00     0.000 C 
HETATM    5  C6  UNL     1      12.254  30.772  20.652  1.00  0.00     0.000 C 
HETATM    6  C7  UNL     1      13.026  29.825  19.905  1.00  0.00     0.000 C 
HETATM    7  C8  UNL     1      14.545  29.771  19.860  1.00  0.00     0.000 C 
HETATM    8  C9  UNL     1      14.726  28.387  19.326  1.00  0.00     0.000 C 
HETATM    9  C10 UNL     1      15.904  27.665  19.033  1.00  0.00     0.002 C 
HETATM   10  C11 UNL     1      15.349  26.305  18.520  1.00  0.00     0.020 C 
HETATM   11  C12 UNL     1      14.246  25.738  19.316  1.00  0.00     0.119 C 
HETATM   12  N2  UNL     1      12.888  26.079  18.905  1.00  0.00    -0.397 N 
ATOM     13  H2  UNL     1      12.655  26.501  18.007  1.00  0.00     0.158 HD
HETATM   14  C13 UNL     1      11.922  25.753  19.906  1.00  0.00     0.110 C 
ENDROOT
BRANCH   1  15
HETATM   15  N1  UNL     1       9.631  25.858  20.405  1.00  0.00    -0.270 N 
ATOM     16  H1  UNL     1       9.755  25.171  21.148  1.00  0.00     0.194 HD
BRANCH  15  17
HETATM   17  O1  UNL     1       8.375  26.071  19.915  1.00  0.00    -0.285 OA
HETATM   18  C1  UNL     1       7.491  26.846  20.714  1.00  0.00     0.237 C 
ENDBRANCH  15  17
ENDBRANCH   1  15
TORSDOF 2
ENDMDL
MODEL 3
REMARK VINA RESULT: -4.072111145      4.966      7.268
REMARK  2 active torsions:
REMARK  status: ('A' for Active; 'I' for Inactive)
REMARK    1  A    between atoms: O1_2  and  N1_3 
REMARK    2  A    between atoms: N1_3  and  C2_5 
ROOT
HETATM    1  C2  UNL     1       9.232  27.777  20.615  1.00  0.00     0.047 C 
HETATM    2  C3  UNL     1      10.507  28.485  20.407  1.00  0.00     0.060 C 
HETATM    3  C4  UNL     1      10.668  29.053  19.018  1.00  0.00     0.006 C 
HETATM    4  C5  UNL     1      11.624  30.164  18.852  1.00  0.00     0.000 C 
HETATM    5  C6  UNL     1      10.989  31.572  18.702  1.00  0.00     0.000 C 
HETATM    6  C7  UNL     1      10.151  31.658  19.860  1.00  0.00     0.000 C 
HETATM    7  C8  UNL     1       9.211  32.810  20.179  1.00  0.00     0.000 C 
HETATM    8  C9  UNL     1       8.345  32.146  21.199  1.00  0.00     0.000 C 
HETATM    9  C10 UNL     1       7.242  32.642  21.928  1.00  0.00     0.002 C 
HETATM   10  C11 UNL     1       6.830  31.418  22.795  1.00  0.00     0.020 C 
HETATM   11  C12 UNL     1       6.796  30.129  22.083  1.00  0.00     0.119 C 
HETATM   12  N2  UNL     1       8.015  29.327  22.107  1.00  0.00    -0.397 N 
ATOM     13  H2  UNL     1       8.797  29.498  22.738  1.00  0.00     0.158 HD
HETATM   14  C13 UNL     1       7.987  28.273  21.142  1.00  0.00     0.110 C 
ENDROOT
BRANCH   1  15
HETATM   15  N1  UNL     1       9.255  26.507  20.259  1.00  0.00    -0.270 N 
ATOM     16  H1  UNL     1       8.392  25.968  20.320  1.00  0.00     0.194 HD
BRANCH  15  17
HETATM   17  O1  UNL     1      10.384  25.881  19.813  1.00  0.00    -0.285 OA
HETATM   18  C1  UNL     1      10.556  24.518  20.177  1.00  0.00     0.237 C 
ENDBRANCH  15  17
ENDBRANCH   1  15
TORSDOF 2
ENDMDL
MODEL 4
REMARK VINA RESULT: -4.062507694      1.317      3.767
REMARK  2 active torsions:
REMARK  status: ('A' for Active; 'I' for Inactive)
REMARK    1  A    between atoms: O1_2  and  N1_3 
REMARK    2  A    between atoms: N1_3  and  C2_5 
ROOT
HETATM    1  C2  UNL     1      13.484  26.343  19.496  1.00  0.00     0.047 C 
HETATM    2  C3  UNL     1      13.861  26.262  20.918  1.00  0.00     0.060 C 
HETATM    3  C4  UNL     1      14.807  25.128  21.232  1.00  0.00     0.006 C 
HETATM    4  C5  UNL     1      15.618  25.249  22.459  1.00  0.00     0.000 C 
HETATM    5  C6  UNL     1      17.106  25.631  22.240  1.00  0.00     0.000 C 
HETATM    6  C7  UNL     1      17.006  26.826  21.457  1.00  0.00     0.000 C 
HETATM    7  C8  UNL     1      18.182  27.593  20.873  1.00  0.00     0.000 C 
HETATM    8  C9  UNL     1      17.459  28.414  19.856  1.00  0.00     0.000 C 
HETATM    9  C10 UNL     1      17.945  29.367  18.933  1.00  0.00     0.002 C 
HETATM   10  C11 UNL     1      16.651  29.817  18.196  1.00  0.00     0.020 C 
HETATM   11  C12 UNL     1      15.740  28.726  17.807  1.00  0.00     0.119 C 
HETATM   12  N2  UNL     1      14.690  28.370  18.755  1.00  0.00    -0.397 N 
ATOM     13  H2  UNL     1      14.424  28.946  19.553  1.00  0.00     0.158 HD
HETATM   14  C13 UNL     1      14.076  27.119  18.437  1.00  0.00     0.110 C 
ENDROOT
BRANCH   1  15
HETATM   15  N1  UNL     1      12.454  25.589  19.166  1.00  0.00    -0.270 N 
ATOM     16  H1  UNL     1      12.604  24.813  18.521  1.00  0.00     0.194 HD
BRANCH  15  17
HETATM   17  O1  UNL     1      11.194  25.799  19.651  1.00  0.00    -0.285 OA
HETATM   18  C1  UNL     1      10.486  24.662  20.127  1.00  0.00     0.237 C 
ENDBRANCH  15  17
ENDBRANCH   1  15
TORSDOF 2
ENDMDL
MODEL 5
REMARK VINA RESULT: -4.028891685      1.142      1.637
REMARK  2 active torsions:
REMARK  status: ('A' for Active; 'I' for Inactive)
REMARK    1  A    between atoms: O1_2  and  N1_3 
REMARK    2  A    between atoms: N1_3  and  C2_5 
ROOT
HETATM    1  C2  UNL     1      13.089  25.628  20.274  1.00  0.00     0.047 C 
HETATM    2  C3  UNL     1      13.175  26.237  18.935  1.00  0.00     0.060 C 
HETATM    3  C4  UNL     1      12.880  27.717  18.921  1.00  0.00     0.006 C 
HETATM    4  C5  UNL     1      13.408  28.497  17.786  1.00  0.00     0.000 C 
HETATM    5  C6  UNL     1      14.659  29.362  18.096  1.00  0.00     0.000 C 
HETATM    6  C7  UNL     1      15.568  28.403  18.650  1.00  0.00     0.000 C 
HETATM    7  C8  UNL     1      16.941  28.723  19.219  1.00  0.00     0.000 C 
HETATM    8  C9  UNL     1      17.181  27.472  19.999  1.00  0.00     0.000 C 
HETATM    9  C10 UNL     1      18.282  27.084  20.795  1.00  0.00     0.002 C 
HETATM   10  C11 UNL     1      17.857  25.676  21.301  1.00  0.00     0.020 C 
HETATM   11  C12 UNL     1      16.463  25.573  21.769  1.00  0.00     0.119 C 
HETATM   12  N2  UNL     1      15.463  25.167  20.787  1.00  0.00    -0.397 N 
ATOM     13  H2  UNL     1      15.688  24.762  19.879  1.00  0.00     0.158 HD
HETATM   14  C13 UNL     1      14.130  25.404  21.244  1.00  0.00     0.110 C 
ENDROOT
BRANCH   1  15
HETATM   15  N1  UNL     1      11.875  25.238  20.614  1.00  0.00    -0.270 N 
ATOM     16  H1  UNL     1      11.714  24.927  21.571  1.00  0.00     0.194 HD
BRANCH  15  17
HETATM   17  O1  UNL     1      10.826  25.233  19.740  1.00  0.00    -0.285 OA
HETATM   18  C1  UNL     1       9.617  25.840  20.177  1.00  0.00     0.237 C 
ENDBRANCH  15  17
ENDBRANCH   1  15
TORSDOF 2
ENDMDL
