MODEL 1
REMARK VINA RESULT: -4.397512290      0.000      0.000
REMARK  3 active torsions:
REMARK  status: ('A' for Active; 'I' for Inactive)
REMARK    1  A    between atoms: C7_7  and  N1_8 
REMARK       I    between atoms: N1_8  and  C8_10 
REMARK    2  A    between atoms: C8_10  and  O2_12 
REMARK    3  A    between atoms: O2_12  and  C9_13 
ROOT
HETATM    1  N1  UNL     1      14.685  24.738  22.686  1.00  0.00    -0.332 N 
ATOM      2  H1  UNL     1      13.710  24.442  22.641  1.00  0.00     0.165 HD
HETATM    3  C8  UNL     1      15.292  25.180  21.483  1.00  0.00     0.361 C 
HETATM    4  O1  UNL     1      16.491  25.547  21.526  1.00  0.00    -0.238 OA
ENDROOT
BRANCH   1   5
HETATM    5  C7  UNL     1      15.335  24.675  23.953  1.00  0.00     0.090 C 
HETATM    6  C2  UNL     1      14.789  25.576  24.995  1.00  0.00     0.004 C 
HETATM    7  C1  UNL     1      15.875  26.558  25.418  1.00  0.00     0.012 C 
HETATM    8  C3  UNL     1      14.254  24.846  26.217  1.00  0.00     0.006 C 
HETATM    9  C4  UNL     1      15.282  23.912  26.805  1.00  0.00     0.001 C 
HETATM   10  C5  UNL     1      16.100  23.216  25.740  1.00  0.00     0.002 C 
HETATM   11  C6  UNL     1      15.252  23.244  24.467  1.00  0.00     0.026 C 
ENDBRANCH   1   5
BRANCH   3  12
HETATM   12  O2  UNL     1      14.625  25.221  20.292  1.00  0.00    -0.294 OA
BRANCH  12  13
HETATM   13  C9  UNL     1      13.667  26.193  19.933  1.00  0.00     0.061 C 
HETATM   14  C10 UNL     1      12.254  25.704  20.041  1.00  0.00     0.046 C 
HETATM   15  C11 UNL     1      13.920  26.510  18.454  1.00  0.00     0.046 C 
HETATM   16  C12 UNL     1      13.800  27.448  20.769  1.00  0.00     0.046 C 
ENDBRANCH  12  13
ENDBRANCH   3  12
TORSDOF 3
ENDMDL
MODEL 2
REMARK VINA RESULT: -4.395594143      0.147      1.102
REMARK  3 active torsions:
REMARK  status: ('A' for Active; 'I' for Inactive)
REMARK    1  A    between atoms: C7_7  and  N1_8 
REMARK       I    between atoms: N1_8  and  C8_10 
REMARK    2  A    between atoms: C8_10  and  O2_12 
REMARK    3  A    between atoms: O2_12  and  C9_13 
ROOT
HETATM    1  N1  UNL     1      14.650  24.776  22.603  1.00  0.00    -0.332 N 
ATOM      2  H1  UNL     1      13.675  24.476  22.592  1.00  0.00     0.165 HD
HETATM    3  C8  UNL     1      15.212  25.224  21.381  1.00  0.00     0.361 C 
HETATM    4  O1  UNL     1      16.410  25.596  21.383  1.00  0.00    -0.238 OA
ENDROOT
BRANCH   1   5
HETATM    5  C7  UNL     1      15.344  24.713  23.847  1.00  0.00     0.090 C 
HETATM    6  C2  UNL     1      14.863  25.645  24.893  1.00  0.00     0.004 C 
HETATM    7  C1  UNL     1      15.992  26.600  25.262  1.00  0.00     0.012 C 
HETATM    8  C3  UNL     1      14.353  24.949  26.146  1.00  0.00     0.006 C 
HETATM    9  C4  UNL     1      15.374  23.993  26.711  1.00  0.00     0.001 C 
HETATM   10  C5  UNL     1      16.132  23.258  25.628  1.00  0.00     0.002 C 
HETATM   11  C6  UNL     1      15.239  23.292  24.386  1.00  0.00     0.026 C 
ENDBRANCH   1   5
BRANCH   3  12
HETATM   12  O2  UNL     1      14.504  25.265  20.215  1.00  0.00    -0.294 OA
BRANCH  12  13
HETATM   13  C9  UNL     1      13.612  26.295  19.844  1.00  0.00     0.061 C 
HETATM   14  C10 UNL     1      13.708  27.507  20.720  1.00  0.00     0.046 C 
HETATM   15  C11 UNL     1      12.202  25.719  20.026  1.00  0.00     0.046 C 
HETATM   16  C12 UNL     1      13.821  26.728  18.409  1.00  0.00     0.046 C 
ENDBRANCH  12  13
ENDBRANCH   3  12
TORSDOF 3
ENDMDL
MODEL 3
REMARK VINA RESULT: -4.303928179      0.103      1.091
REMARK  3 active torsions:
REMARK  status: ('A' for Active; 'I' for Inactive)
REMARK    1  A    between atoms: C7_7  and  N1_8 
REMARK       I    between atoms: N1_8  and  C8_10 
REMARK    2  A    between atoms: C8_10  and  O2_12 
REMARK    3  A    between atoms: O2_12  and  C9_13 
ROOT
HETATM    1  N1  UNL     1      14.674  24.762  22.663  1.00  0.00    -0.332 N 
ATOM      2  H1  UNL     1      13.707  24.441  22.609  1.00  0.00     0.165 HD
HETATM    3  C8  UNL     1      15.273  25.242  21.471  1.00  0.00     0.361 C 
HETATM    4  O1  UNL     1      16.462  25.639  21.525  1.00  0.00    -0.238 OA
ENDROOT
BRANCH   1   5
HETATM    5  C7  UNL     1      15.321  24.694  23.931  1.00  0.00     0.090 C 
HETATM    6  C2  UNL     1      14.754  25.568  24.984  1.00  0.00     0.004 C 
HETATM    7  C1  UNL     1      15.819  26.564  25.426  1.00  0.00     0.012 C 
HETATM    8  C3  UNL     1      14.230  24.809  26.194  1.00  0.00     0.006 C 
HETATM    9  C4  UNL     1      15.274  23.886  26.771  1.00  0.00     0.001 C 
HETATM   10  C5  UNL     1      16.109  23.223  25.699  1.00  0.00     0.002 C 
HETATM   11  C6  UNL     1      15.265  23.253  24.424  1.00  0.00     0.026 C 
ENDBRANCH   1   5
BRANCH   3  12
HETATM   12  O2  UNL     1      14.609  25.286  20.278  1.00  0.00    -0.294 OA
BRANCH  12  13
HETATM   13  C9  UNL     1      13.612  26.228  19.941  1.00  0.00     0.061 C 
HETATM   14  C10 UNL     1      13.689  26.690  18.517  1.00  0.00     0.046 C 
HETATM   15  C11 UNL     1      13.871  27.453  20.826  1.00  0.00     0.046 C 
HETATM   16  C12 UNL     1      12.221  25.685  20.190  1.00  0.00     0.046 C 
ENDBRANCH  12  13
ENDBRANCH   3  12
TORSDOF 3
ENDMDL
MODEL 4
REMARK VINA RESULT: -4.213101061      1.801      5.830
REMARK  3 active torsions:
REMARK  status: ('A' for Active; 'I' for Inactive)
REMARK    1  A    between atoms: C7_7  and  N1_8 
REMARK       I    between atoms: N1_8  and  C8_10 
REMARK    2  A    between atoms: C8_10  and  O2_12 
REMARK    3  A    between atoms: O2_12  and  C9_13 
ROOT
HETATM    1  N1  UNL     1      14.570  25.251  22.995  1.00  0.00    -0.332 N 
ATOM      2  H1  UNL     1      14.112  24.341  23.022  1.00  0.00     0.165 HD
HETATM    3  C8  UNL     1      14.974  25.819  24.231  1.00  0.00     0.361 C 
HETATM    4  O1  UNL     1      15.539  26.938  24.211  1.00  0.00    -0.238 OA
ENDROOT
BRANCH   1   5
HETATM    5  C7  UNL     1      14.758  25.858  21.719  1.00  0.00     0.090 C 
HETATM    6  C2  UNL     1      15.964  25.422  20.977  1.00  0.00     0.004 C 
HETATM    7  C1  UNL     1      16.871  26.627  20.756  1.00  0.00     0.012 C 
HETATM    8  C3  UNL     1      15.655  24.763  19.641  1.00  0.00     0.006 C 
HETATM    9  C4  UNL     1      14.782  25.635  18.774  1.00  0.00     0.001 C 
HETATM   10  C5  UNL     1      13.731  26.370  19.576  1.00  0.00     0.002 C 
HETATM   11  C6  UNL     1      13.534  25.562  20.861  1.00  0.00     0.026 C 
ENDBRANCH   1   5
BRANCH   3  12
HETATM   12  O2  UNL     1      14.771  25.196  25.429  1.00  0.00    -0.294 OA
BRANCH  12  13
HETATM   13  C9  UNL     1      15.731  24.415  26.109  1.00  0.00     0.061 C 
HETATM   14  C10 UNL     1      16.366  23.368  25.244  1.00  0.00     0.046 C 
HETATM   15  C11 UNL     1      14.968  23.680  27.218  1.00  0.00     0.046 C 
HETATM   16  C12 UNL     1      16.829  25.269  26.705  1.00  0.00     0.046 C 
ENDBRANCH  12  13
ENDBRANCH   3  12
TORSDOF 3
ENDMDL
MODEL 5
REMARK VINA RESULT: -4.149966400      2.547      6.034
REMARK  3 active torsions:
REMARK  status: ('A' for Active; 'I' for Inactive)
REMARK    1  A    between atoms: C7_7  and  N1_8 
REMARK       I    between atoms: N1_8  and  C8_10 
REMARK    2  A    between atoms: C8_10  and  O2_12 
REMARK    3  A    between atoms: O2_12  and  C9_13 
ROOT
HETATM    1  N1  UNL     1      16.800  24.823  24.355  1.00  0.00    -0.332 N 
ATOM      2  H1  UNL     1      17.465  25.397  24.873  1.00  0.00     0.165 HD
HETATM    3  C8  UNL     1      16.184  23.749  25.045  1.00  0.00     0.361 C 
HETATM    4  O1  UNL     1      15.363  23.036  24.419  1.00  0.00    -0.238 OA
ENDROOT
BRANCH   1   5
HETATM    5  C7  UNL     1      16.560  25.161  22.991  1.00  0.00     0.090 C 
HETATM    6  C2  UNL     1      15.409  26.062  22.750  1.00  0.00     0.004 C 
HETATM    7  C1  UNL     1      14.386  25.338  21.884  1.00  0.00     0.012 C 
HETATM    8  C3  UNL     1      15.791  27.381  22.096  1.00  0.00     0.006 C 
HETATM    9  C4  UNL     1      16.578  27.170  20.826  1.00  0.00     0.001 C 
HETATM   10  C5  UNL     1      17.543  26.012  20.937  1.00  0.00     0.002 C 
HETATM   11  C6  UNL     1      17.813  25.824  22.431  1.00  0.00     0.026 C 
ENDBRANCH   1   5
BRANCH   3  12
HETATM   12  O2  UNL     1      16.448  23.466  26.355  1.00  0.00    -0.294 OA
BRANCH  12  13
HETATM   13  C9  UNL     1      15.915  24.167  27.459  1.00  0.00     0.061 C 
HETATM   14  C10 UNL     1      16.327  25.607  27.503  1.00  0.00     0.046 C 
HETATM   15  C11 UNL     1      16.499  23.494  28.707  1.00  0.00     0.046 C 
HETATM   16  C12 UNL     1      14.403  24.104  27.487  1.00  0.00     0.046 C 
ENDBRANCH  12  13
ENDBRANCH   3  12
TORSDOF 3
ENDMDL
