MODEL 1
REMARK VINA RESULT: -6.997857976      0.000      0.000
REMARK  2 active torsions:
REMARK  status: ('A' for Active; 'I' for Inactive)
REMARK       I    between atoms: C1_4  and  N3_6 
REMARK    1  A    between atoms: N4_10  and  C5_11 
REMARK    2  A    between atoms: C5_11  and  N5_13 
ROOT
HETATM    1  C5  UNL     1     -45.249   5.591 -16.674  1.00  0.00     0.172 C 
HETATM    2  S1  UNL     1     -45.839   3.994 -16.804  1.00  0.00    -0.041 SA
ENDROOT
BRANCH   1   3
HETATM    3  N4  UNL     1     -46.261   6.533 -16.830  1.00  0.00    -0.357 N 
HETATM    4  C4  UNL     1     -46.775   7.375 -15.783  1.00  0.00     0.127 C 
HETATM    5  C3  UNL     1     -46.174   8.769 -15.819  1.00  0.00     0.040 C 
HETATM    6  C2  UNL     1     -45.151   8.929 -16.908  1.00  0.00     0.127 C 
HETATM    7  N3  UNL     1     -45.778   8.841 -18.207  1.00  0.00    -0.354 N 
HETATM    8  C1  UNL     1     -46.220  10.049 -18.768  1.00  0.00     0.184 C 
HETATM    9  C16 UNL     1     -45.985   7.628 -18.969  1.00  0.00     0.145 C 
HETATM   10  N1  UNL     1     -47.105  10.815 -18.224  1.00  0.00    -0.374 N 
HETATM   11  N2  UNL     1     -45.660  10.455 -20.010  1.00  0.00    -0.064 NA
ATOM     12  H12 UNL     1     -47.426  11.693 -18.632  1.00  0.00     0.158 HD
ATOM     13  H11 UNL     1     -47.507  10.524 -17.333  1.00  0.00     0.158 HD
HETATM   14  C15 UNL     1     -46.831   6.649 -18.209  1.00  0.00     0.145 C 
ENDBRANCH   1   3
BRANCH   1  15
HETATM   15  N5  UNL     1     -43.894   5.647 -16.429  1.00  0.00    -0.356 N 
HETATM   16  C6  UNL     1     -43.473   4.934 -15.191  1.00  0.00     0.127 C 
HETATM   17  C7  UNL     1     -43.256   5.996 -14.139  1.00  0.00     0.039 C 
HETATM   18  C8  UNL     1     -42.263   6.997 -14.752  1.00  0.00     0.119 C 
HETATM   19  N6  UNL     1     -41.314   6.252 -15.495  1.00  0.00    -0.406 N 
HETATM   20  C9  UNL     1     -39.965   6.328 -15.058  1.00  0.00     0.117 C 
HETATM   21  C13 UNL     1     -41.516   6.057 -16.868  1.00  0.00     0.097 C 
HETATM   22  C10 UNL     1     -39.077   7.206 -15.870  1.00  0.00     0.019 C 
HETATM   23  C11 UNL     1     -39.241   7.018 -17.353  1.00  0.00     0.004 C 
HETATM   24  C12 UNL     1     -40.645   6.836 -17.796  1.00  0.00     0.026 C 
HETATM   25  C14 UNL     1     -42.964   6.339 -17.274  1.00  0.00     0.150 C 
ENDBRANCH   1  15
TORSDOF 2
ENDMDL
MODEL 2
REMARK VINA RESULT: -6.695751898      1.030      1.982
REMARK  2 active torsions:
REMARK  status: ('A' for Active; 'I' for Inactive)
REMARK       I    between atoms: C1_4  and  N3_6 
REMARK    1  A    between atoms: N4_10  and  C5_11 
REMARK    2  A    between atoms: C5_11  and  N5_13 
ROOT
HETATM    1  C5  UNL     1     -44.680   6.235 -16.635  1.00  0.00     0.172 C 
HETATM    2  S1  UNL     1     -45.039   4.569 -16.532  1.00  0.00    -0.041 SA
ENDROOT
BRANCH   1   3
HETATM    3  N4  UNL     1     -45.831   7.009 -16.731  1.00  0.00    -0.357 N 
HETATM    4  C4  UNL     1     -46.212   8.042 -15.805  1.00  0.00     0.127 C 
HETATM    5  C3  UNL     1     -45.855   9.428 -16.310  1.00  0.00     0.040 C 
HETATM    6  C2  UNL     1     -45.145   9.395 -17.634  1.00  0.00     0.127 C 
HETATM    7  N3  UNL     1     -46.033   8.920 -18.672  1.00  0.00    -0.354 N 
HETATM    8  C1  UNL     1     -46.769   9.899 -19.357  1.00  0.00     0.184 C 
HETATM    9  C16 UNL     1     -46.223   7.539 -19.059  1.00  0.00     0.145 C 
HETATM   10  N1  UNL     1     -47.611  10.696 -18.790  1.00  0.00    -0.374 N 
HETATM   11  N2  UNL     1     -46.577  10.021 -20.759  1.00  0.00    -0.064 NA
ATOM     12  H12 UNL     1     -48.146  11.407 -19.288  1.00  0.00     0.158 HD
ATOM     13  H11 UNL     1     -47.749  10.608 -17.782  1.00  0.00     0.158 HD
HETATM   14  C15 UNL     1     -46.713   6.715 -17.904  1.00  0.00     0.145 C 
ENDBRANCH   1   3
BRANCH   1  15
HETATM   15  N5  UNL     1     -43.328   6.497 -16.591  1.00  0.00    -0.356 N 
HETATM   16  C6  UNL     1     -42.821   7.255 -17.769  1.00  0.00     0.127 C 
HETATM   17  C7  UNL     1     -42.146   6.248 -18.669  1.00  0.00     0.039 C 
HETATM   18  C8  UNL     1     -41.109   5.529 -17.790  1.00  0.00     0.119 C 
HETATM   19  N6  UNL     1     -40.538   6.499 -16.929  1.00  0.00    -0.406 N 
HETATM   20  C9  UNL     1     -39.145   6.735 -17.073  1.00  0.00     0.117 C 
HETATM   21  C13 UNL     1     -41.072   6.678 -15.645  1.00  0.00     0.097 C 
HETATM   22  C10 UNL     1     -38.280   6.115 -16.031  1.00  0.00     0.019 C 
HETATM   23  C11 UNL     1     -38.799   6.300 -14.632  1.00  0.00     0.004 C 
HETATM   24  C12 UNL     1     -40.270   6.154 -14.501  1.00  0.00     0.026 C 
HETATM   25  C14 UNL     1     -42.472   6.070 -15.523  1.00  0.00     0.150 C 
ENDBRANCH   1  15
TORSDOF 2
ENDMDL
MODEL 3
REMARK VINA RESULT: -6.586454234      2.426      3.533
REMARK  2 active torsions:
REMARK  status: ('A' for Active; 'I' for Inactive)
REMARK       I    between atoms: C1_4  and  N3_6 
REMARK    1  A    between atoms: N4_10  and  C5_11 
REMARK    2  A    between atoms: C5_11  and  N5_13 
ROOT
HETATM    1  C5  UNL     1     -42.283   5.664 -15.576  1.00  0.00     0.172 C 
HETATM    2  S1  UNL     1     -43.051   6.143 -14.129  1.00  0.00    -0.041 SA
ENDROOT
BRANCH   1   3
HETATM    3  N4  UNL     1     -43.152   5.695 -16.661  1.00  0.00    -0.357 N 
HETATM    4  C4  UNL     1     -44.469   5.116 -16.682  1.00  0.00     0.127 C 
HETATM    5  C3  UNL     1     -45.555   6.148 -16.437  1.00  0.00     0.040 C 
HETATM    6  C2  UNL     1     -45.000   7.521 -16.183  1.00  0.00     0.127 C 
HETATM    7  N3  UNL     1     -44.363   8.037 -17.374  1.00  0.00    -0.354 N 
HETATM    8  C1  UNL     1     -45.176   8.782 -18.242  1.00  0.00     0.184 C 
HETATM    9  C16 UNL     1     -42.975   7.853 -17.742  1.00  0.00     0.145 C 
HETATM   10  N1  UNL     1     -46.228   8.314 -18.824  1.00  0.00    -0.374 N 
HETATM   11  N2  UNL     1     -44.820  10.134 -18.496  1.00  0.00    -0.064 NA
ATOM     12  H12 UNL     1     -46.819   8.855 -19.455  1.00  0.00     0.158 HD
ATOM     13  H11 UNL     1     -46.484   7.343 -18.641  1.00  0.00     0.158 HD
HETATM   14  C15 UNL     1     -42.641   6.397 -17.881  1.00  0.00     0.145 C 
ENDBRANCH   1   3
BRANCH   1  15
HETATM   15  N5  UNL     1     -40.953   5.349 -15.400  1.00  0.00    -0.356 N 
HETATM   16  C6  UNL     1     -40.188   6.364 -14.624  1.00  0.00     0.127 C 
HETATM   17  C7  UNL     1     -39.405   7.172 -15.632  1.00  0.00     0.039 C 
HETATM   18  C8  UNL     1     -38.597   6.153 -16.451  1.00  0.00     0.119 C 
HETATM   19  N6  UNL     1     -38.154   5.146 -15.557  1.00  0.00    -0.406 N 
HETATM   20  C9  UNL     1     -36.749   5.009 -15.402  1.00  0.00     0.117 C 
HETATM   21  C13 UNL     1     -38.917   3.980 -15.402  1.00  0.00     0.097 C 
HETATM   22  C10 UNL     1     -36.136   3.855 -16.119  1.00  0.00     0.019 C 
HETATM   23  C11 UNL     1     -36.907   2.574 -15.963  1.00  0.00     0.004 C 
HETATM   24  C12 UNL     1     -38.381   2.734 -16.023  1.00  0.00     0.026 C 
HETATM   25  C14 UNL     1     -40.343   4.162 -15.926  1.00  0.00     0.150 C 
ENDBRANCH   1  15
TORSDOF 2
ENDMDL
MODEL 4
REMARK VINA RESULT: -6.203392972      2.439      6.956
REMARK  2 active torsions:
REMARK  status: ('A' for Active; 'I' for Inactive)
REMARK       I    between atoms: C1_4  and  N3_6 
REMARK    1  A    between atoms: N4_10  and  C5_11 
REMARK    2  A    between atoms: C5_11  and  N5_13 
ROOT
HETATM    1  C5  UNL     1     -41.886   5.481 -16.574  1.00  0.00     0.172 C 
HETATM    2  S1  UNL     1     -42.585   4.052 -15.954  1.00  0.00    -0.041 SA
ENDROOT
BRANCH   1   3
HETATM    3  N4  UNL     1     -40.611   5.257 -17.081  1.00  0.00    -0.357 N 
HETATM    4  C4  UNL     1     -39.724   6.280 -17.569  1.00  0.00     0.127 C 
HETATM    5  C3  UNL     1     -38.686   6.682 -16.537  1.00  0.00     0.040 C 
HETATM    6  C2  UNL     1     -38.856   5.954 -15.233  1.00  0.00     0.127 C 
HETATM    7  N3  UNL     1     -38.577   4.546 -15.402  1.00  0.00    -0.354 N 
HETATM    8  C1  UNL     1     -37.251   4.143 -15.185  1.00  0.00     0.184 C 
HETATM    9  C16 UNL     1     -39.540   3.529 -15.770  1.00  0.00     0.145 C 
HETATM   10  N1  UNL     1     -36.245   4.578 -15.866  1.00  0.00    -0.374 N 
HETATM   11  N2  UNL     1     -36.999   3.198 -14.154  1.00  0.00    -0.064 NA
ATOM     12  H12 UNL     1     -35.281   4.285 -15.708  1.00  0.00     0.158 HD
ATOM     13  H11 UNL     1     -36.426   5.256 -16.606  1.00  0.00     0.158 HD
HETATM   14  C15 UNL     1     -40.162   3.829 -17.102  1.00  0.00     0.145 C 
ENDBRANCH   1   3
BRANCH   1  15
HETATM   15  N5  UNL     1     -42.715   6.576 -16.466  1.00  0.00    -0.356 N 
HETATM   16  C6  UNL     1     -42.538   7.347 -15.203  1.00  0.00     0.127 C 
HETATM   17  C7  UNL     1     -43.678   6.950 -14.296  1.00  0.00     0.039 C 
HETATM   18  C8  UNL     1     -44.963   7.199 -15.103  1.00  0.00     0.119 C 
HETATM   19  N6  UNL     1     -44.770   8.390 -15.848  1.00  0.00    -0.406 N 
HETATM   20  C9  UNL     1     -45.641   9.472 -15.551  1.00  0.00     0.117 C 
HETATM   21  C13 UNL     1     -44.305   8.307 -17.168  1.00  0.00     0.097 C 
HETATM   22  C10 UNL     1     -46.738   9.699 -16.532  1.00  0.00     0.019 C 
HETATM   23  C11 UNL     1     -46.284   9.643 -17.964  1.00  0.00     0.004 C 
HETATM   24  C12 UNL     1     -45.295   8.574 -18.252  1.00  0.00     0.026 C 
HETATM   25  C14 UNL     1     -43.678   6.942 -17.463  1.00  0.00     0.150 C 
ENDBRANCH   1  15
TORSDOF 2
ENDMDL
MODEL 5
REMARK VINA RESULT: -6.202315947      6.048     10.452
REMARK  2 active torsions:
REMARK  status: ('A' for Active; 'I' for Inactive)
REMARK       I    between atoms: C1_4  and  N3_6 
REMARK    1  A    between atoms: N4_10  and  C5_11 
REMARK    2  A    between atoms: C5_11  and  N5_13 
ROOT
HETATM    1  C5  UNL     1     -36.681   3.670 -15.428  1.00  0.00     0.172 C 
HETATM    2  S1  UNL     1     -35.458   4.734 -15.962  1.00  0.00    -0.041 SA
ENDROOT
BRANCH   1   3
HETATM    3  N4  UNL     1     -36.181   2.404 -15.144  1.00  0.00    -0.357 N 
HETATM    4  C4  UNL     1     -35.628   1.497 -16.115  1.00  0.00     0.127 C 
HETATM    5  C3  UNL     1     -34.110   1.532 -16.135  1.00  0.00     0.040 C 
HETATM    6  C2  UNL     1     -33.542   2.536 -15.173  1.00  0.00     0.127 C 
HETATM    7  N3  UNL     1     -33.813   2.138 -13.810  1.00  0.00    -0.354 N 
HETATM    8  C1  UNL     1     -32.838   1.342 -13.188  1.00  0.00     0.184 C 
HETATM    9  C16 UNL     1     -34.989   2.487 -13.041  1.00  0.00     0.145 C 
HETATM   10  N1  UNL     1     -32.477   0.179 -13.617  1.00  0.00    -0.374 N 
HETATM   11  N2  UNL     1     -32.211   1.845 -12.017  1.00  0.00    -0.064 NA
ATOM     12  H12 UNL     1     -31.769  -0.399 -13.165  1.00  0.00     0.158 HD
ATOM     13  H11 UNL     1     -32.928  -0.182 -14.458  1.00  0.00     0.158 HD
HETATM   14  C15 UNL     1     -36.238   1.991 -13.707  1.00  0.00     0.145 C 
ENDBRANCH   1   3
BRANCH   1  15
HETATM   15  N5  UNL     1     -37.923   4.264 -15.368  1.00  0.00    -0.356 N 
HETATM   16  C6  UNL     1     -39.056   3.297 -15.337  1.00  0.00     0.127 C 
HETATM   17  C7  UNL     1     -39.629   3.264 -16.734  1.00  0.00     0.039 C 
HETATM   18  C8  UNL     1     -39.955   4.724 -17.088  1.00  0.00     0.119 C 
HETATM   19  N6  UNL     1     -40.460   5.341 -15.917  1.00  0.00    -0.406 N 
HETATM   20  C9  UNL     1     -41.798   5.815 -15.975  1.00  0.00     0.117 C 
HETATM   21  C13 UNL     1     -39.584   6.046 -15.079  1.00  0.00     0.097 C 
HETATM   22  C10 UNL     1     -41.949   7.288 -16.141  1.00  0.00     0.019 C 
HETATM   23  C11 UNL     1     -41.045   8.088 -15.246  1.00  0.00     0.004 C 
HETATM   24  C12 UNL     1     -39.675   7.535 -15.105  1.00  0.00     0.026 C 
HETATM   25  C14 UNL     1     -38.123   5.684 -15.354  1.00  0.00     0.150 C 
ENDBRANCH   1  15
TORSDOF 2
ENDMDL
