MODEL 1
REMARK VINA RESULT: -7.693316508      0.000      0.000
REMARK  0 active torsions:
REMARK  status: ('A' for Active; 'I' for Inactive)
ROOT
HETATM    1  O1  UNL     1     -37.215   1.754 -12.782  1.00  0.00    -0.272 OA
HETATM    2  C1  UNL     1     -36.024   2.130 -12.983  1.00  0.00     0.246 C 
HETATM    3  C2  UNL     1     -35.847   3.310 -13.845  1.00  0.00     0.375 C 
HETATM    4  N1  UNL     1     -36.499   3.227 -15.141  1.00  0.00     0.055 N 
HETATM    5  C3  UNL     1     -36.085   2.179 -15.982  1.00  0.00     0.275 C 
HETATM    6  C4  UNL     1     -35.002   2.460 -16.968  1.00  0.00     0.058 C 
HETATM    7  C5  UNL     1     -33.652   2.748 -16.388  1.00  0.00     0.234 C 
HETATM    8  N2  UNL     1     -33.250   1.653 -15.564  1.00  0.00    -0.075 N 
ATOM      9  H21 UNL     1     -32.959   0.861 -16.137  1.00  0.00     0.277 HD
ATOM     10  H22 UNL     1     -34.058   1.240 -15.097  1.00  0.00     0.277 HD
HETATM   11  C6  UNL     1     -32.230   1.987 -14.607  1.00  0.00     0.234 C 
HETATM   12  C7  UNL     1     -32.700   1.848 -13.159  1.00  0.00     0.047 C 
HETATM   13  C8  UNL     1     -33.805   0.865 -12.998  1.00  0.00     0.124 C 
HETATM   14  N3  UNL     1     -34.997   1.382 -12.363  1.00  0.00    -0.359 N 
ATOM     15  H3  UNL     1     -35.107   1.188 -11.367  1.00  0.00     0.162 HD
HETATM   16  C9  UNL     1     -36.437   4.552 -15.708  1.00  0.00     0.275 C 
HETATM   17  C10 UNL     1     -37.568   5.448 -15.234  1.00  0.00     0.059 C 
HETATM   18  C11 UNL     1     -38.508   5.727 -16.358  1.00  0.00     0.239 C 
HETATM   19  N4  UNL     1     -39.843   5.192 -16.166  1.00  0.00    -0.065 N 
HETATM   20  C12 UNL     1     -40.449   5.166 -17.471  1.00  0.00     0.237 C 
HETATM   21  C13 UNL     1     -41.868   5.586 -17.517  1.00  0.00     0.028 C 
HETATM   22  C14 UNL     1     -42.663   5.309 -16.287  1.00  0.00     0.003 C 
HETATM   23  C15 UNL     1     -41.974   5.862 -15.102  1.00  0.00     0.028 C 
HETATM   24  C16 UNL     1     -40.506   6.053 -15.227  1.00  0.00     0.237 C 
HETATM   25  C17 UNL     1     -39.851   3.857 -15.622  1.00  0.00     0.266 C 
HETATM   26  C18 UNL     1     -38.624   3.047 -15.983  1.00  0.00     0.235 C 
HETATM   27  O2  UNL     1     -37.826   3.013 -14.845  1.00  0.00    -0.200 OA
ENDROOT
TORSDOF 0
ENDMDL
MODEL 2
REMARK VINA RESULT: -6.927898907      2.296      7.702
REMARK  0 active torsions:
REMARK  status: ('A' for Active; 'I' for Inactive)
ROOT
HETATM    1  O1  UNL     1     -41.659   6.344 -13.625  1.00  0.00    -0.272 OA
HETATM    2  C1  UNL     1     -42.425   6.068 -14.594  1.00  0.00     0.246 C 
HETATM    3  C2  UNL     1     -41.890   5.148 -15.611  1.00  0.00     0.375 C 
HETATM    4  N1  UNL     1     -40.606   5.535 -16.173  1.00  0.00     0.055 N 
HETATM    5  C3  UNL     1     -40.563   6.774 -16.837  1.00  0.00     0.275 C 
HETATM    6  C4  UNL     1     -40.783   6.783 -18.311  1.00  0.00     0.058 C 
HETATM    7  C5  UNL     1     -42.157   6.401 -18.767  1.00  0.00     0.234 C 
HETATM    8  N2  UNL     1     -43.115   7.265 -18.153  1.00  0.00    -0.075 N 
ATOM      9  H21 UNL     1     -43.102   8.185 -18.594  1.00  0.00     0.277 HD
ATOM     10  H22 UNL     1     -42.815   7.522 -17.213  1.00  0.00     0.277 HD
HETATM   11  C6  UNL     1     -44.451   6.733 -18.130  1.00  0.00     0.234 C 
HETATM   12  C7  UNL     1     -44.972   6.489 -16.714  1.00  0.00     0.047 C 
HETATM   13  C8  UNL     1     -44.329   7.364 -15.698  1.00  0.00     0.124 C 
HETATM   14  N3  UNL     1     -43.706   6.667 -14.594  1.00  0.00    -0.359 N 
ATOM     15  H3  UNL     1     -44.244   6.601 -13.730  1.00  0.00     0.162 HD
HETATM   16  C9  UNL     1     -40.139   4.398 -16.927  1.00  0.00     0.275 C 
HETATM   17  C10 UNL     1     -39.417   3.376 -16.065  1.00  0.00     0.059 C 
HETATM   18  C11 UNL     1     -37.963   3.360 -16.398  1.00  0.00     0.239 C 
HETATM   19  N4  UNL     1     -37.098   3.788 -15.314  1.00  0.00    -0.065 N 
HETATM   20  C12 UNL     1     -35.838   4.122 -15.923  1.00  0.00     0.237 C 
HETATM   21  C13 UNL     1     -34.638   3.684 -15.174  1.00  0.00     0.028 C 
HETATM   22  C14 UNL     1     -34.791   3.617 -13.693  1.00  0.00     0.003 C 
HETATM   23  C15 UNL     1     -35.975   2.805 -13.340  1.00  0.00     0.028 C 
HETATM   24  C16 UNL     1     -37.030   2.698 -14.381  1.00  0.00     0.237 C 
HETATM   25  C17 UNL     1     -37.595   4.942 -14.607  1.00  0.00     0.266 C 
HETATM   26  C18 UNL     1     -38.450   5.855 -15.461  1.00  0.00     0.235 C 
HETATM   27  O2  UNL     1     -39.769   5.626 -15.084  1.00  0.00    -0.200 OA
ENDROOT
TORSDOF 0
ENDMDL
MODEL 3
REMARK VINA RESULT: -6.779739441      1.657      3.159
REMARK  0 active torsions:
REMARK  status: ('A' for Active; 'I' for Inactive)
ROOT
HETATM    1  O1  UNL     1     -34.393   3.370 -17.667  1.00  0.00    -0.272 OA
HETATM    2  C1  UNL     1     -34.375   2.308 -16.980  1.00  0.00     0.246 C 
HETATM    3  C2  UNL     1     -35.576   2.028 -16.176  1.00  0.00     0.375 C 
HETATM    4  N1  UNL     1     -35.988   3.106 -15.292  1.00  0.00     0.055 N 
HETATM    5  C3  UNL     1     -35.058   3.501 -14.314  1.00  0.00     0.275 C 
HETATM    6  C4  UNL     1     -35.152   2.870 -12.966  1.00  0.00     0.058 C 
HETATM    7  C5  UNL     1     -34.839   1.407 -12.908  1.00  0.00     0.234 C 
HETATM    8  N2  UNL     1     -33.527   1.185 -13.430  1.00  0.00    -0.075 N 
ATOM      9  H21 UNL     1     -32.819   1.478 -12.757  1.00  0.00     0.277 HD
ATOM     10  H22 UNL     1     -33.327   1.840 -14.186  1.00  0.00     0.277 HD
HETATM   11  C6  UNL     1     -33.291  -0.167 -13.857  1.00  0.00     0.234 C 
HETATM   12  C7  UNL     1     -33.025  -0.282 -15.358  1.00  0.00     0.047 C 
HETATM   13  C8  UNL     1     -32.465   0.964 -15.947  1.00  0.00     0.124 C 
HETATM   14  N3  UNL     1     -33.213   1.507 -17.059  1.00  0.00    -0.359 N 
ATOM     15  H3  UNL     1     -32.867   1.290 -17.994  1.00  0.00     0.162 HD
HETATM   16  C9  UNL     1     -37.299   2.751 -14.808  1.00  0.00     0.275 C 
HETATM   17  C10 UNL     1     -38.408   3.156 -15.765  1.00  0.00     0.059 C 
HETATM   18  C11 UNL     1     -39.215   4.264 -15.176  1.00  0.00     0.239 C 
HETATM   19  N4  UNL     1     -39.137   5.513 -15.911  1.00  0.00    -0.065 N 
HETATM   20  C12 UNL     1     -39.588   6.534 -15.002  1.00  0.00     0.237 C 
HETATM   21  C13 UNL     1     -40.464   7.568 -15.597  1.00  0.00     0.028 C 
HETATM   22  C14 UNL     1     -40.227   7.863 -17.039  1.00  0.00     0.003 C 
HETATM   23  C15 UNL     1     -40.257   6.611 -17.825  1.00  0.00     0.028 C 
HETATM   24  C16 UNL     1     -39.959   5.361 -17.078  1.00  0.00     0.237 C 
HETATM   25  C17 UNL     1     -37.803   5.836 -16.350  1.00  0.00     0.266 C 
HETATM   26  C18 UNL     1     -36.717   5.274 -15.457  1.00  0.00     0.235 C 
HETATM   27  O2  UNL     1     -36.180   4.181 -16.130  1.00  0.00    -0.200 OA
ENDROOT
TORSDOF 0
ENDMDL
MODEL 4
REMARK VINA RESULT: -6.769725839      2.450      8.100
REMARK  0 active torsions:
REMARK  status: ('A' for Active; 'I' for Inactive)
ROOT
HETATM    1  O1  UNL     1     -41.246   5.469 -18.809  1.00  0.00    -0.272 OA
HETATM    2  C1  UNL     1     -41.802   6.409 -18.171  1.00  0.00     0.246 C 
HETATM    3  C2  UNL     1     -41.170   6.800 -16.900  1.00  0.00     0.375 C 
HETATM    4  N1  UNL     1     -40.954   5.711 -15.962  1.00  0.00     0.055 N 
HETATM    5  C3  UNL     1     -42.101   5.024 -15.527  1.00  0.00     0.275 C 
HETATM    6  C4  UNL     1     -42.750   5.479 -14.264  1.00  0.00     0.058 C 
HETATM    7  C5  UNL     1     -43.379   6.836 -14.307  1.00  0.00     0.234 C 
HETATM    8  N2  UNL     1     -44.344   6.876 -15.360  1.00  0.00    -0.075 N 
ATOM      9  H21 UNL     1     -45.188   6.370 -15.092  1.00  0.00     0.277 HD
ATOM     10  H22 UNL     1     -44.040   6.300 -16.146  1.00  0.00     0.277 HD
HETATM   11  C6  UNL     1     -44.669   8.205 -15.803  1.00  0.00     0.234 C 
HETATM   12  C7  UNL     1     -44.272   8.464 -17.256  1.00  0.00     0.047 C 
HETATM   13  C8  UNL     1     -44.220   7.224 -18.076  1.00  0.00     0.124 C 
HETATM   14  N3  UNL     1     -42.961   6.982 -18.743  1.00  0.00    -0.359 N 
ATOM     15  H3  UNL     1     -42.902   7.251 -19.726  1.00  0.00     0.162 HD
HETATM   16  C9  UNL     1     -40.103   6.238 -14.923  1.00  0.00     0.275 C 
HETATM   17  C10 UNL     1     -38.628   6.178 -15.284  1.00  0.00     0.059 C 
HETATM   18  C11 UNL     1     -37.932   5.172 -14.429  1.00  0.00     0.239 C 
HETATM   19  N4  UNL     1     -37.397   4.038 -15.160  1.00  0.00    -0.065 N 
HETATM   20  C12 UNL     1     -37.170   3.010 -14.179  1.00  0.00     0.237 C 
HETATM   21  C13 UNL     1     -35.913   2.245 -14.345  1.00  0.00     0.028 C 
HETATM   22  C14 UNL     1     -35.424   2.103 -15.745  1.00  0.00     0.003 C 
HETATM   23  C15 UNL     1     -35.338   3.431 -16.390  1.00  0.00     0.028 C 
HETATM   24  C16 UNL     1     -36.206   4.494 -15.820  1.00  0.00     0.237 C 
HETATM   25  C17 UNL     1     -38.293   3.532 -16.168  1.00  0.00     0.266 C 
HETATM   26  C18 UNL     1     -39.756   3.759 -15.848  1.00  0.00     0.235 C 
HETATM   27  O2  UNL     1     -40.177   4.811 -16.655  1.00  0.00    -0.200 OA
ENDROOT
TORSDOF 0
ENDMDL
MODEL 5
REMARK VINA RESULT: -6.338871366      3.112      5.292
REMARK  0 active torsions:
REMARK  status: ('A' for Active; 'I' for Inactive)
ROOT
HETATM    1  O1  UNL     1     -39.560   6.821 -14.272  1.00  0.00    -0.272 OA
HETATM    2  C1  UNL     1     -38.882   6.066 -15.027  1.00  0.00     0.246 C 
HETATM    3  C2  UNL     1     -39.440   5.804 -16.363  1.00  0.00     0.375 C 
HETATM    4  N1  UNL     1     -40.806   5.307 -16.371  1.00  0.00     0.055 N 
HETATM    5  C3  UNL     1     -41.031   4.088 -15.708  1.00  0.00     0.275 C 
HETATM    6  C4  UNL     1     -40.973   2.834 -16.514  1.00  0.00     0.058 C 
HETATM    7  C5  UNL     1     -39.628   2.476 -17.065  1.00  0.00     0.234 C 
HETATM    8  N2  UNL     1     -38.690   2.377 -15.992  1.00  0.00    -0.075 N 
ATOM      9  H21 UNL     1     -38.831   1.512 -15.471  1.00  0.00     0.277 HD
ATOM     10  H22 UNL     1     -38.908   3.055 -15.262  1.00  0.00     0.277 HD
HETATM   11  C6  UNL     1     -37.317   2.501 -16.404  1.00  0.00     0.234 C 
HETATM   12  C7  UNL     1     -36.626   3.731 -15.816  1.00  0.00     0.047 C 
HETATM   13  C8  UNL     1     -37.231   4.181 -14.533  1.00  0.00     0.124 C 
HETATM   14  N3  UNL     1     -37.667   5.560 -14.511  1.00  0.00    -0.359 N 
ATOM     15  H3  UNL     1     -37.034   6.234 -14.080  1.00  0.00     0.162 HD
HETATM   16  C9  UNL     1     -41.250   5.371 -17.742  1.00  0.00     0.275 C 
HETATM   17  C10 UNL     1     -41.780   6.742 -18.125  1.00  0.00     0.059 C 
HETATM   18  C11 UNL     1     -43.255   6.678 -18.344  1.00  0.00     0.239 C 
HETATM   19  N4  UNL     1     -44.031   7.460 -17.399  1.00  0.00    -0.065 N 
HETATM   20  C12 UNL     1     -45.375   6.950 -17.476  1.00  0.00     0.237 C 
HETATM   21  C13 UNL     1     -46.443   7.975 -17.443  1.00  0.00     0.028 C 
HETATM   22  C14 UNL     1     -46.126   9.213 -16.676  1.00  0.00     0.003 C 
HETATM   23  C15 UNL     1     -44.843   9.783 -17.140  1.00  0.00     0.028 C 
HETATM   24  C16 UNL     1     -43.902   8.836 -17.791  1.00  0.00     0.237 C 
HETATM   25  C17 UNL     1     -43.566   7.343 -16.040  1.00  0.00     0.266 C 
HETATM   26  C18 UNL     1     -42.893   6.019 -15.741  1.00  0.00     0.235 C 
HETATM   27  O2  UNL     1     -41.525   6.273 -15.704  1.00  0.00    -0.200 OA
ENDROOT
TORSDOF 0
ENDMDL
