MODEL 1
REMARK VINA RESULT: -7.247970957      0.000      0.000
REMARK  5 active torsions:
REMARK  status: ('A' for Active; 'I' for Inactive)
REMARK    1  A    between atoms: C3_3  and  C4_4 
REMARK    2  A    between atoms: C5_5  and  C6_6 
REMARK    3  A    between atoms: C7_7  and  C8_8 
REMARK    4  A    between atoms: N1_12  and  C12_13 
REMARK    5  A    between atoms: C12_13  and  N2_15 
REMARK       I    between atoms: N2_15  and  C13_17 
REMARK       I    between atoms: C13_17  and  N3_19 
ROOT
HETATM    1  C1  UNL     1     -39.328   7.961 -17.812  1.00  0.00     0.013 C 
HETATM    2  C2  UNL     1     -39.411   7.006 -17.079  1.00  0.00    -0.105 C 
HETATM    3  C3  UNL     1     -39.494   5.835 -16.174  1.00  0.00     0.187 C 
ENDROOT
BRANCH   3   4
HETATM    4  C4  UNL     1     -38.160   5.269 -15.941  1.00  0.00    -0.081 C 
HETATM    5  C5  UNL     1     -37.046   4.810 -15.765  1.00  0.00    -0.014 C 
BRANCH   5   6
HETATM    6  C6  UNL     1     -35.748   4.281 -15.539  1.00  0.00    -0.013 C 
HETATM    7  C7  UNL     1     -34.641   3.838 -15.335  1.00  0.00    -0.067 C 
BRANCH   7   8
HETATM    8  C8  UNL     1     -33.290   3.315 -15.081  1.00  0.00     0.167 C 
HETATM    9  C9  UNL     1     -32.548   4.218 -14.157  1.00  0.00     0.040 C 
HETATM   10  C10 UNL     1     -33.333   3.986 -12.874  1.00  0.00     0.023 C 
HETATM   11  C11 UNL     1     -33.616   2.484 -12.904  1.00  0.00     0.127 C 
HETATM   12  N1  UNL     1     -33.499   2.089 -14.283  1.00  0.00    -0.343 N 
BRANCH  12  13
HETATM   13  C12 UNL     1     -33.538   0.847 -14.930  1.00  0.00     0.178 C 
HETATM   14  S1  UNL     1     -33.120  -0.451 -13.909  1.00  0.00    -0.041 SA
BRANCH  13  15
HETATM   15  N2  UNL     1     -33.870   0.455 -16.212  1.00  0.00    -0.285 N 
HETATM   16  C13 UNL     1     -35.041   0.433 -16.975  1.00  0.00     0.324 C 
HETATM   17  O1  UNL     1     -36.137   0.829 -16.552  1.00  0.00    -0.247 OA
HETATM   18  N3  UNL     1     -35.016  -0.072 -18.340  1.00  0.00    -0.331 N 
HETATM   19  C14 UNL     1     -36.201  -0.109 -19.148  1.00  0.00     0.147 C 
HETATM   20  C18 UNL     1     -33.774  -0.544 -18.890  1.00  0.00     0.147 C 
HETATM   21  C15 UNL     1     -36.213  -1.411 -19.886  1.00  0.00     0.136 C 
HETATM   22  N4  UNL     1     -35.080  -1.563 -20.729  1.00  0.00    -0.414 N 
HETATM   23  C16 UNL     1     -34.861  -2.921 -21.176  1.00  0.00     0.143 C 
HETATM   24  C17 UNL     1     -33.890  -0.885 -20.352  1.00  0.00     0.136 C 
ATOM     25  H2  UNL     1     -33.066   0.096 -16.726  1.00  0.00     0.173 HD
ENDBRANCH  13  15
ENDBRANCH  12  13
ENDBRANCH   7   8
ENDBRANCH   5   6
ENDBRANCH   3   4
TORSDOF 5
ENDMDL
MODEL 2
REMARK VINA RESULT: -7.201979296      6.182      9.013
REMARK  5 active torsions:
REMARK  status: ('A' for Active; 'I' for Inactive)
REMARK    1  A    between atoms: C3_3  and  C4_4 
REMARK    2  A    between atoms: C5_5  and  C6_6 
REMARK    3  A    between atoms: C7_7  and  C8_8 
REMARK    4  A    between atoms: N1_12  and  C12_13 
REMARK    5  A    between atoms: C12_13  and  N2_15 
REMARK       I    between atoms: N2_15  and  C13_17 
REMARK       I    between atoms: C13_17  and  N3_19 
ROOT
HETATM    1  C1  UNL     1     -33.312   4.401 -14.052  1.00  0.00     0.013 C 
HETATM    2  C2  UNL     1     -34.302   3.797 -14.387  1.00  0.00    -0.105 C 
HETATM    3  C3  UNL     1     -35.524   3.072 -14.806  1.00  0.00     0.187 C 
ENDROOT
BRANCH   3   4
HETATM    4  C4  UNL     1     -36.633   4.010 -15.017  1.00  0.00    -0.081 C 
HETATM    5  C5  UNL     1     -37.542   4.803 -15.179  1.00  0.00    -0.014 C 
BRANCH   5   6
HETATM    6  C6  UNL     1     -38.601   5.725 -15.391  1.00  0.00    -0.013 C 
HETATM    7  C7  UNL     1     -39.502   6.509 -15.584  1.00  0.00    -0.067 C 
BRANCH   7   8
HETATM    8  C8  UNL     1     -40.589   7.468 -15.833  1.00  0.00     0.167 C 
HETATM    9  C9  UNL     1     -40.169   8.480 -16.843  1.00  0.00     0.040 C 
HETATM   10  C10 UNL     1     -40.096   7.600 -18.083  1.00  0.00     0.023 C 
HETATM   11  C11 UNL     1     -41.307   6.680 -17.930  1.00  0.00     0.127 C 
HETATM   12  N1  UNL     1     -41.634   6.689 -16.529  1.00  0.00    -0.343 N 
BRANCH  12  13
HETATM   13  C12 UNL     1     -42.687   6.138 -15.787  1.00  0.00     0.178 C 
HETATM   14  S1  UNL     1     -43.438   7.264 -14.753  1.00  0.00    -0.041 SA
BRANCH  13  15
HETATM   15  N2  UNL     1     -43.258   4.881 -15.741  1.00  0.00    -0.285 N 
HETATM   16  C13 UNL     1     -42.777   3.569 -15.707  1.00  0.00     0.324 C 
HETATM   17  O1  UNL     1     -41.570   3.287 -15.709  1.00  0.00    -0.247 OA
HETATM   18  N3  UNL     1     -43.707   2.449 -15.665  1.00  0.00    -0.331 N 
HETATM   19  C14 UNL     1     -43.244   1.092 -15.631  1.00  0.00     0.147 C 
HETATM   20  C18 UNL     1     -45.120   2.711 -15.658  1.00  0.00     0.147 C 
HETATM   21  C15 UNL     1     -44.109   0.289 -16.552  1.00  0.00     0.136 C 
HETATM   22  N4  UNL     1     -45.476   0.316 -16.167  1.00  0.00    -0.414 N 
HETATM   23  C16 UNL     1     -46.383  -0.132 -17.200  1.00  0.00     0.143 C 
HETATM   24  C17 UNL     1     -45.932   1.459 -15.459  1.00  0.00     0.136 C 
ATOM     25  H2  UNL     1     -44.278   4.920 -15.727  1.00  0.00     0.173 HD
ENDBRANCH  13  15
ENDBRANCH  12  13
ENDBRANCH   7   8
ENDBRANCH   5   6
ENDBRANCH   3   4
TORSDOF 5
ENDMDL
MODEL 3
REMARK VINA RESULT: -7.093863240      7.229      9.274
REMARK  5 active torsions:
REMARK  status: ('A' for Active; 'I' for Inactive)
REMARK    1  A    between atoms: C3_3  and  C4_4 
REMARK    2  A    between atoms: C5_5  and  C6_6 
REMARK    3  A    between atoms: C7_7  and  C8_8 
REMARK    4  A    between atoms: N1_12  and  C12_13 
REMARK    5  A    between atoms: C12_13  and  N2_15 
REMARK       I    between atoms: N2_15  and  C13_17 
REMARK       I    between atoms: C13_17  and  N3_19 
ROOT
HETATM    1  C1  UNL     1     -47.239  10.172 -15.176  1.00  0.00     0.013 C 
HETATM    2  C2  UNL     1     -46.778  10.054 -16.285  1.00  0.00    -0.105 C 
HETATM    3  C3  UNL     1     -46.200   9.892 -17.640  1.00  0.00     0.187 C 
ENDROOT
BRANCH   3   4
HETATM    4  C4  UNL     1     -44.950   9.124 -17.579  1.00  0.00    -0.081 C 
HETATM    5  C5  UNL     1     -43.908   8.500 -17.512  1.00  0.00    -0.014 C 
BRANCH   5   6
HETATM    6  C6  UNL     1     -42.703   7.753 -17.433  1.00  0.00    -0.013 C 
HETATM    7  C7  UNL     1     -41.676   7.116 -17.352  1.00  0.00    -0.067 C 
BRANCH   7   8
HETATM    8  C8  UNL     1     -40.424   6.354 -17.240  1.00  0.00     0.167 C 
HETATM    9  C9  UNL     1     -39.291   7.261 -16.903  1.00  0.00     0.040 C 
HETATM   10  C10 UNL     1     -39.674   7.646 -15.481  1.00  0.00     0.023 C 
HETATM   11  C11 UNL     1     -40.207   6.337 -14.898  1.00  0.00     0.127 C 
HETATM   12  N1  UNL     1     -40.587   5.529 -16.026  1.00  0.00    -0.343 N 
BRANCH  12  13
HETATM   13  C12 UNL     1     -41.036   4.207 -16.148  1.00  0.00     0.178 C 
HETATM   14  S1  UNL     1     -39.766   3.081 -16.290  1.00  0.00    -0.041 SA
BRANCH  13  15
HETATM   15  N2  UNL     1     -42.289   3.628 -16.152  1.00  0.00    -0.285 N 
HETATM   16  C13 UNL     1     -42.837   2.435 -15.671  1.00  0.00     0.324 C 
HETATM   17  O1  UNL     1     -42.177   1.579 -15.066  1.00  0.00    -0.247 OA
HETATM   18  N3  UNL     1     -44.250   2.146 -15.870  1.00  0.00    -0.331 N 
HETATM   19  C14 UNL     1     -44.842   0.931 -15.388  1.00  0.00     0.147 C 
HETATM   20  C18 UNL     1     -45.071   3.102 -16.562  1.00  0.00     0.147 C 
HETATM   21  C15 UNL     1     -45.767   0.420 -16.449  1.00  0.00     0.136 C 
HETATM   22  N4  UNL     1     -46.802   1.344 -16.751  1.00  0.00    -0.414 N 
HETATM   23  C16 UNL     1     -47.492   1.064 -17.991  1.00  0.00     0.143 C 
HETATM   24  C17 UNL     1     -46.528   2.722 -16.546  1.00  0.00     0.136 C 
ATOM     25  H2  UNL     1     -42.984   4.212 -16.619  1.00  0.00     0.173 HD
ENDBRANCH  13  15
ENDBRANCH  12  13
ENDBRANCH   7   8
ENDBRANCH   5   6
ENDBRANCH   3   4
TORSDOF 5
ENDMDL
MODEL 4
REMARK VINA RESULT: -7.065515688      4.169      7.020
REMARK  5 active torsions:
REMARK  status: ('A' for Active; 'I' for Inactive)
REMARK    1  A    between atoms: C3_3  and  C4_4 
REMARK    2  A    between atoms: C5_5  and  C6_6 
REMARK    3  A    between atoms: C7_7  and  C8_8 
REMARK    4  A    between atoms: N1_12  and  C12_13 
REMARK    5  A    between atoms: C12_13  and  N2_15 
REMARK       I    between atoms: N2_15  and  C13_17 
REMARK       I    between atoms: C13_17  and  N3_19 
ROOT
HETATM    1  C1  UNL     1     -47.171   2.894 -17.832  1.00  0.00     0.013 C 
HETATM    2  C2  UNL     1     -46.855   3.894 -17.234  1.00  0.00    -0.105 C 
HETATM    3  C3  UNL     1     -46.450   5.122 -16.510  1.00  0.00     0.187 C 
ENDROOT
BRANCH   3   4
HETATM    4  C4  UNL     1     -44.999   5.321 -16.605  1.00  0.00    -0.081 C 
HETATM    5  C5  UNL     1     -43.794   5.470 -16.698  1.00  0.00    -0.014 C 
BRANCH   5   6
HETATM    6  C6  UNL     1     -42.392   5.666 -16.811  1.00  0.00    -0.013 C 
HETATM    7  C7  UNL     1     -41.197   5.836 -16.894  1.00  0.00    -0.067 C 
BRANCH   7   8
HETATM    8  C8  UNL     1     -39.747   6.060 -16.986  1.00  0.00     0.167 C 
HETATM    9  C9  UNL     1     -39.443   7.518 -16.983  1.00  0.00     0.040 C 
HETATM   10  C10 UNL     1     -39.829   7.865 -15.552  1.00  0.00     0.023 C 
HETATM   11  C11 UNL     1     -39.321   6.666 -14.753  1.00  0.00     0.127 C 
HETATM   12  N1  UNL     1     -39.205   5.585 -15.696  1.00  0.00    -0.343 N 
BRANCH  12  13
HETATM   13  C12 UNL     1     -38.701   4.281 -15.600  1.00  0.00     0.178 C 
HETATM   14  S1  UNL     1     -39.722   3.116 -16.310  1.00  0.00    -0.041 SA
BRANCH  13  15
HETATM   15  N2  UNL     1     -37.540   3.750 -15.074  1.00  0.00    -0.285 N 
HETATM   16  C13 UNL     1     -36.172   3.974 -15.253  1.00  0.00     0.324 C 
HETATM   17  O1  UNL     1     -35.718   4.824 -16.032  1.00  0.00    -0.247 OA
HETATM   18  N3  UNL     1     -35.198   3.192 -14.505  1.00  0.00    -0.331 N 
HETATM   19  C14 UNL     1     -33.787   3.398 -14.666  1.00  0.00     0.147 C 
HETATM   20  C18 UNL     1     -35.662   2.191 -13.583  1.00  0.00     0.147 C 
HETATM   21  C15 UNL     1     -33.129   2.054 -14.703  1.00  0.00     0.136 C 
HETATM   22  N4  UNL     1     -33.349   1.314 -13.511  1.00  0.00    -0.414 N 
HETATM   23  C16 UNL     1     -33.050  -0.096 -13.634  1.00  0.00     0.143 C 
HETATM   24  C17 UNL     1     -34.538   1.586 -12.784  1.00  0.00     0.136 C 
ATOM     25  H2  UNL     1     -37.726   3.016 -14.390  1.00  0.00     0.173 HD
ENDBRANCH  13  15
ENDBRANCH  12  13
ENDBRANCH   7   8
ENDBRANCH   5   6
ENDBRANCH   3   4
TORSDOF 5
ENDMDL
MODEL 5
REMARK VINA RESULT: -7.015350445      7.350     11.014
REMARK  5 active torsions:
REMARK  status: ('A' for Active; 'I' for Inactive)
REMARK    1  A    between atoms: C3_3  and  C4_4 
REMARK    2  A    between atoms: C5_5  and  C6_6 
REMARK    3  A    between atoms: C7_7  and  C8_8 
REMARK    4  A    between atoms: N1_12  and  C12_13 
REMARK    5  A    between atoms: C12_13  and  N2_15 
REMARK       I    between atoms: N2_15  and  C13_17 
REMARK       I    between atoms: C13_17  and  N3_19 
ROOT
HETATM    1  C1  UNL     1     -37.910  -0.617 -19.261  1.00  0.00     0.013 C 
HETATM    2  C2  UNL     1     -39.046  -0.320 -18.980  1.00  0.00    -0.105 C 
HETATM    3  C3  UNL     1     -40.435   0.064 -18.634  1.00  0.00     0.187 C 
ENDROOT
BRANCH   3   4
HETATM    4  C4  UNL     1     -40.450   1.333 -17.896  1.00  0.00    -0.081 C 
HETATM    5  C5  UNL     1     -40.443   2.389 -17.291  1.00  0.00    -0.014 C 
BRANCH   5   6
HETATM    6  C6  UNL     1     -40.452   3.627 -16.596  1.00  0.00    -0.013 C 
HETATM    7  C7  UNL     1     -40.450   4.686 -16.010  1.00  0.00    -0.067 C 
BRANCH   7   8
HETATM    8  C8  UNL     1     -40.428   5.972 -15.297  1.00  0.00     0.167 C 
HETATM    9  C9  UNL     1     -39.060   6.561 -15.327  1.00  0.00     0.040 C 
HETATM   10  C10 UNL     1     -38.952   6.902 -16.807  1.00  0.00     0.023 C 
HETATM   11  C11 UNL     1     -40.348   7.422 -17.149  1.00  0.00     0.127 C 
HETATM   12  N1  UNL     1     -41.224   6.888 -16.140  1.00  0.00    -0.343 N 
BRANCH  12  13
HETATM   13  C12 UNL     1     -42.581   7.085 -15.849  1.00  0.00     0.178 C 
HETATM   14  S1  UNL     1     -42.977   6.720 -14.233  1.00  0.00    -0.041 SA
BRANCH  13  15
HETATM   15  N2  UNL     1     -43.654   7.537 -16.591  1.00  0.00    -0.285 N 
HETATM   16  C13 UNL     1     -44.735   6.938 -17.246  1.00  0.00     0.324 C 
HETATM   17  O1  UNL     1     -44.930   5.714 -17.257  1.00  0.00    -0.247 OA
HETATM   18  N3  UNL     1     -45.703   7.758 -17.959  1.00  0.00    -0.331 N 
HETATM   19  C14 UNL     1     -46.823   7.174 -18.641  1.00  0.00     0.147 C 
HETATM   20  C18 UNL     1     -45.534   9.185 -17.980  1.00  0.00     0.147 C 
HETATM   21  C15 UNL     1     -46.979   7.878 -19.953  1.00  0.00     0.136 C 
HETATM   22  N4  UNL     1     -47.216   9.268 -19.793  1.00  0.00    -0.414 N 
HETATM   23  C16 UNL     1     -47.018  10.038 -21.001  1.00  0.00     0.143 C 
HETATM   24  C17 UNL     1     -46.698   9.890 -18.626  1.00  0.00     0.136 C 
ATOM     25  H2  UNL     1     -43.660   8.553 -16.685  1.00  0.00     0.173 HD
ENDBRANCH  13  15
ENDBRANCH  12  13
ENDBRANCH   7   8
ENDBRANCH   5   6
ENDBRANCH   3   4
TORSDOF 5
ENDMDL
