MODEL 1
REMARK VINA RESULT: -11.225117456      0.000      0.000
REMARK  5 active torsions:
REMARK  status: ('A' for Active; 'I' for Inactive)
REMARK    1  A    between atoms: C3_3  and  C5_5 
REMARK       I    between atoms: N1_20  and  C19_21 
REMARK    2  A    between atoms: C19_21  and  O3_23 
REMARK    3  A    between atoms: O3_23  and  C20_24 
REMARK    4  A    between atoms: C24_28  and  O4_29 
REMARK    5  A    between atoms: C26_32  and  O5_33 
ROOT
HETATM    1  C1  UNL     1      32.482 107.204  53.249  1.00  0.00     0.017 C 
HETATM    2  C2  UNL     1      33.593 106.809  52.947  1.00  0.00    -0.081 C 
HETATM    3  C3  UNL     1      34.893 106.318  52.593  1.00  0.00     0.016 C 
HETATM    4  C4  UNL     1      35.330 105.142  53.076  1.00  0.00     0.030 C 
ENDROOT
BRANCH   3   5
HETATM    5  C5  UNL     1      35.811 107.064  51.696  1.00  0.00     0.227 C 
HETATM    6  C6  UNL     1      35.581 108.558  51.878  1.00  0.00     0.048 C 
HETATM    7  C7  UNL     1      36.996 109.077  52.102  1.00  0.00     0.048 C 
HETATM    8  C8  UNL     1      37.689 107.941  52.719  1.00  0.00     0.193 C 
HETATM    9  C16 UNL     1      36.963 110.380  52.770  1.00  0.00     0.059 C 
HETATM   10  C9  UNL     1      39.196 107.931  52.526  1.00  0.00     0.037 C 
HETATM   11  N2  UNL     1      37.182 106.802  51.978  1.00  0.00    -0.062 N 
HETATM   12  C10 UNL     1      39.905 107.673  53.851  1.00  0.00     0.029 C 
HETATM   13  C11 UNL     1      41.060 108.583  54.004  1.00  0.00    -0.031 C 
HETATM   14  C12 UNL     1      41.010 109.772  54.595  1.00  0.00    -0.031 C 
HETATM   15  C13 UNL     1      39.774 110.353  55.187  1.00  0.00     0.027 C 
HETATM   16  C14 UNL     1      38.938 111.068  54.156  1.00  0.00     0.006 C 
HETATM   17  C15 UNL     1      37.531 110.470  54.152  1.00  0.00     0.033 C 
ATOM     18  H22 UNL     1      37.329 105.914  52.458  1.00  0.00     0.278 HD
ATOM     19  H21 UNL     1      37.729 106.591  51.143  1.00  0.00     0.278 HD
HETATM   20  C17 UNL     1      35.532 110.957  52.795  1.00  0.00     0.135 C 
HETATM   21  N1  UNL     1      37.238 111.529  51.955  1.00  0.00    -0.253 N 
HETATM   22  C18 UNL     1      36.311 112.248  52.750  1.00  0.00     0.231 C 
HETATM   23  O1  UNL     1      36.210 113.403  53.190  1.00  0.00    -0.273 OA
HETATM   24  C19 UNL     1      38.031 111.902  50.858  1.00  0.00     0.370 C 
HETATM   25  O2  UNL     1      38.803 111.075  50.300  1.00  0.00    -0.238 OA
BRANCH  24  26
HETATM   26  O3  UNL     1      38.034 113.178  50.310  1.00  0.00    -0.297 OA
BRANCH  26  27
HETATM   27  C20 UNL     1      38.410 114.347  51.054  1.00  0.00     0.142 C 
HETATM   28  C21 UNL     1      39.918 114.460  50.777  1.00  0.00     0.034 C 
HETATM   29  C22 UNL     1      40.586 115.558  51.479  1.00  0.00     0.016 C 
HETATM   30  C23 UNL     1      40.431 116.966  51.089  1.00  0.00    -0.003 C 
HETATM   31  C24 UNL     1      41.743 117.377  50.396  1.00  0.00     0.130 C 
HETATM   32  C29 UNL     1      40.420 117.796  52.369  1.00  0.00     0.003 C 
HETATM   33  C37 UNL     1      39.231 117.291  50.259  1.00  0.00    -0.029 C 
HETATM   34  C25 UNL     1      42.840 117.588  51.455  1.00  0.00     0.064 C 
HETATM   35  C26 UNL     1      42.659 118.863  52.202  1.00  0.00     0.124 C 
HETATM   36  C27 UNL     1      41.145 119.095  52.299  1.00  0.00     0.015 C 
HETATM   37  C28 UNL     1      40.929 119.755  53.669  1.00  0.00     0.013 C 
HETATM   38  C30 UNL     1      39.092 117.835  53.048  1.00  0.00     0.006 C 
HETATM   39  C31 UNL     1      38.024 116.972  52.451  1.00  0.00     0.007 C 
HETATM   40  C32 UNL     1      37.996 116.843  50.987  1.00  0.00     0.005 C 
HETATM   41  C33 UNL     1      37.668 115.475  50.463  1.00  0.00    -0.013 C 
HETATM   42  C34 UNL     1      36.189 115.233  50.605  1.00  0.00     0.018 C 
HETATM   43  C35 UNL     1      38.098 115.545  48.993  1.00  0.00     0.013 C 
HETATM   44  C36 UNL     1      39.149 116.632  48.926  1.00  0.00     0.011 C 
HETATM   45  C38 UNL     1      39.064 118.771  49.981  1.00  0.00     0.016 C 
BRANCH  31  46
HETATM   46  O4  UNL     1      42.256 116.282  49.655  1.00  0.00    -0.395 OA
ATOM     47  H4  UNL     1      42.287 116.506  48.733  1.00  0.00     0.210 HD
ENDBRANCH  31  46
BRANCH  35  48
HETATM   48  O5  UNL     1      43.243 119.926  51.477  1.00  0.00    -0.395 OA
ATOM     49  H5  UNL     1      42.560 120.489  51.131  1.00  0.00     0.210 HD
ENDBRANCH  35  48
ENDBRANCH  26  27
ENDBRANCH  24  26
ENDBRANCH   3   5
TORSDOF 5
ENDMDL
MODEL 2
REMARK VINA RESULT: -11.164826790      1.210      1.654
REMARK  5 active torsions:
REMARK  status: ('A' for Active; 'I' for Inactive)
REMARK    1  A    between atoms: C3_3  and  C5_5 
REMARK       I    between atoms: N1_20  and  C19_21 
REMARK    2  A    between atoms: C19_21  and  O3_23 
REMARK    3  A    between atoms: O3_23  and  C20_24 
REMARK    4  A    between atoms: C24_28  and  O4_29 
REMARK    5  A    between atoms: C26_32  and  O5_33 
ROOT
HETATM    1  C1  UNL     1      32.880 107.477  52.905  1.00  0.00     0.017 C 
HETATM    2  C2  UNL     1      33.931 107.038  52.477  1.00  0.00    -0.081 C 
HETATM    3  C3  UNL     1      35.158 106.497  51.968  1.00  0.00     0.016 C 
HETATM    4  C4  UNL     1      35.449 105.195  52.139  1.00  0.00     0.030 C 
ENDROOT
BRANCH   3   5
HETATM    5  C5  UNL     1      36.156 107.324  51.244  1.00  0.00     0.227 C 
HETATM    6  C6  UNL     1      35.867 108.796  51.506  1.00  0.00     0.048 C 
HETATM    7  C7  UNL     1      37.232 109.320  51.934  1.00  0.00     0.048 C 
HETATM    8  C8  UNL     1      37.876 108.152  52.546  1.00  0.00     0.193 C 
HETATM    9  C16 UNL     1      37.087 110.568  52.687  1.00  0.00     0.059 C 
HETATM   10  C9  UNL     1      39.395 108.182  52.533  1.00  0.00     0.037 C 
HETATM   11  N2  UNL     1      37.490 107.064  51.668  1.00  0.00    -0.062 N 
HETATM   12  C10 UNL     1      39.950 107.837  53.912  1.00  0.00     0.029 C 
HETATM   13  C11 UNL     1      41.055 108.753  54.268  1.00  0.00    -0.031 C 
HETATM   14  C12 UNL     1      40.905 109.892  54.934  1.00  0.00    -0.031 C 
HETATM   15  C13 UNL     1      39.593 110.406  55.414  1.00  0.00     0.027 C 
HETATM   16  C14 UNL     1      38.866 111.183  54.346  1.00  0.00     0.006 C 
HETATM   17  C15 UNL     1      37.485 110.563  54.130  1.00  0.00     0.033 C 
ATOM     18  H22 UNL     1      37.603 106.145  52.096  1.00  0.00     0.278 HD
ATOM     19  H21 UNL     1      38.137 106.926  50.892  1.00  0.00     0.278 HD
HETATM   20  C17 UNL     1      35.648 111.117  52.583  1.00  0.00     0.135 C 
HETATM   21  N1  UNL     1      37.426 111.780  51.998  1.00  0.00    -0.253 N 
HETATM   22  C18 UNL     1      36.394 112.421  52.726  1.00  0.00     0.231 C 
HETATM   23  O1  UNL     1      36.212 113.538  53.234  1.00  0.00    -0.273 OA
HETATM   24  C19 UNL     1      38.334 112.248  51.033  1.00  0.00     0.370 C 
HETATM   25  O2  UNL     1      39.186 111.478  50.512  1.00  0.00    -0.238 OA
BRANCH  24  26
HETATM   26  O3  UNL     1      38.367 113.561  50.584  1.00  0.00    -0.297 OA
BRANCH  26  27
HETATM   27  C20 UNL     1      39.389 114.493  50.970  1.00  0.00     0.142 C 
HETATM   28  C21 UNL     1      40.485 114.259  49.919  1.00  0.00     0.034 C 
HETATM   29  C22 UNL     1      41.699 115.054  50.115  1.00  0.00     0.016 C 
HETATM   30  C23 UNL     1      41.764 116.494  49.829  1.00  0.00    -0.003 C 
HETATM   31  C24 UNL     1      42.567 116.647  48.525  1.00  0.00     0.130 C 
HETATM   32  C29 UNL     1      42.661 117.129  50.887  1.00  0.00     0.003 C 
HETATM   33  C37 UNL     1      40.454 117.213  49.771  1.00  0.00    -0.029 C 
HETATM   34  C25 UNL     1      44.064 116.438  48.815  1.00  0.00     0.064 C 
HETATM   35  C26 UNL     1      44.669 117.612  49.504  1.00  0.00     0.124 C 
HETATM   36  C27 UNL     1      43.571 118.203  50.397  1.00  0.00     0.015 C 
HETATM   37  C28 UNL     1      44.303 118.715  51.646  1.00  0.00     0.013 C 
HETATM   38  C30 UNL     1      41.963 117.414  52.174  1.00  0.00     0.006 C 
HETATM   39  C31 UNL     1      40.550 116.931  52.276  1.00  0.00     0.007 C 
HETATM   40  C32 UNL     1      39.721 117.001  51.064  1.00  0.00     0.005 C 
HETATM   41  C33 UNL     1      38.798 115.837  50.841  1.00  0.00    -0.013 C 
HETATM   42  C34 UNL     1      37.618 115.959  51.768  1.00  0.00     0.018 C 
HETATM   43  C35 UNL     1      38.389 115.985  49.371  1.00  0.00     0.013 C 
HETATM   44  C36 UNL     1      39.502 116.772  48.715  1.00  0.00     0.011 C 
HETATM   45  C38 UNL     1      40.589 118.711  49.584  1.00  0.00     0.016 C 
BRANCH  31  46
HETATM   46  O4  UNL     1      42.282 115.562  47.658  1.00  0.00    -0.395 OA
ATOM     47  H4  UNL     1      41.855 114.866  48.145  1.00  0.00     0.210 HD
ENDBRANCH  31  46
BRANCH  35  48
HETATM   48  O5  UNL     1      45.055 118.577  48.547  1.00  0.00    -0.395 OA
ATOM     49  H5  UNL     1      45.603 119.235  48.960  1.00  0.00     0.210 HD
ENDBRANCH  35  48
ENDBRANCH  26  27
ENDBRANCH  24  26
ENDBRANCH   3   5
TORSDOF 5
ENDMDL
MODEL 3
REMARK VINA RESULT: -10.922895691      2.459      9.666
REMARK  5 active torsions:
REMARK  status: ('A' for Active; 'I' for Inactive)
REMARK    1  A    between atoms: C3_3  and  C5_5 
REMARK       I    between atoms: N1_20  and  C19_21 
REMARK    2  A    between atoms: C19_21  and  O3_23 
REMARK    3  A    between atoms: O3_23  and  C20_24 
REMARK    4  A    between atoms: C24_28  and  O4_29 
REMARK    5  A    between atoms: C26_32  and  O5_33 
ROOT
HETATM    1  C1  UNL     1      34.160 119.423  55.411  1.00  0.00     0.017 C 
HETATM    2  C2  UNL     1      35.040 119.220  54.595  1.00  0.00    -0.081 C 
HETATM    3  C3  UNL     1      36.078 119.007  53.629  1.00  0.00     0.016 C 
HETATM    4  C4  UNL     1      36.176 119.805  52.551  1.00  0.00     0.030 C 
ENDROOT
BRANCH   3   5
HETATM    5  C5  UNL     1      37.078 117.918  53.758  1.00  0.00     0.227 C 
HETATM    6  C6  UNL     1      36.658 116.748  52.880  1.00  0.00     0.048 C 
HETATM    7  C7  UNL     1      37.931 116.461  52.094  1.00  0.00     0.048 C 
HETATM    8  C8  UNL     1      38.596 117.766  52.021  1.00  0.00     0.193 C 
HETATM    9  C16 UNL     1      37.619 115.715  50.872  1.00  0.00     0.059 C 
HETATM   10  C9  UNL     1      40.102 117.705  51.833  1.00  0.00     0.037 C 
HETATM   11  N2  UNL     1      38.380 118.321  53.344  1.00  0.00    -0.062 N 
HETATM   12  C10 UNL     1      40.542 118.647  50.716  1.00  0.00     0.029 C 
HETATM   13  C11 UNL     1      41.536 117.985  49.845  1.00  0.00    -0.031 C 
HETATM   14  C12 UNL     1      41.237 117.295  48.749  1.00  0.00    -0.031 C 
HETATM   15  C13 UNL     1      39.850 117.092  48.249  1.00  0.00     0.027 C 
HETATM   16  C14 UNL     1      39.176 115.919  48.914  1.00  0.00     0.006 C 
HETATM   17  C15 UNL     1      37.873 116.391  49.559  1.00  0.00     0.033 C 
ATOM     18  H22 UNL     1      38.517 119.331  53.382  1.00  0.00     0.278 HD
ATOM     19  H21 UNL     1      39.109 118.065  54.010  1.00  0.00     0.278 HD
HETATM   20  C17 UNL     1      36.162 115.210  50.883  1.00  0.00     0.135 C 
HETATM   21  N1  UNL     1      37.935 114.316  50.872  1.00  0.00    -0.253 N 
HETATM   22  C18 UNL     1      36.791 114.112  50.061  1.00  0.00     0.231 C 
HETATM   23  O1  UNL     1      36.478 113.369  49.119  1.00  0.00    -0.273 OA
HETATM   24  C19 UNL     1      38.896 113.432  51.390  1.00  0.00     0.370 C 
HETATM   25  O2  UNL     1      39.851 113.850  52.101  1.00  0.00    -0.238 OA
BRANCH  24  26
HETATM   26  O3  UNL     1      38.877 112.061  51.169  1.00  0.00    -0.297 OA
BRANCH  26  27
HETATM   27  C20 UNL     1      37.710 111.252  51.381  1.00  0.00     0.142 C 
HETATM   28  C21 UNL     1      38.118 109.896  50.784  1.00  0.00     0.034 C 
HETATM   29  C22 UNL     1      37.068 108.876  50.810  1.00  0.00     0.016 C 
HETATM   30  C23 UNL     1      36.657 108.186  52.040  1.00  0.00    -0.003 C 
HETATM   31  C24 UNL     1      37.236 106.762  51.959  1.00  0.00     0.130 C 
HETATM   32  C29 UNL     1      35.149 107.972  51.962  1.00  0.00     0.003 C 
HETATM   33  C37 UNL     1      37.010 108.864  53.325  1.00  0.00    -0.029 C 
HETATM   34  C25 UNL     1      36.401 105.922  50.976  1.00  0.00     0.064 C 
HETATM   35  C26 UNL     1      35.090 105.519  51.559  1.00  0.00     0.124 C 
HETATM   36  C27 UNL     1      34.657 106.665  52.483  1.00  0.00     0.015 C 
HETATM   37  C28 UNL     1      33.128 106.725  52.355  1.00  0.00     0.013 C 
HETATM   38  C30 UNL     1      34.350 109.165  52.363  1.00  0.00     0.006 C 
HETATM   39  C31 UNL     1      35.131 110.409  52.657  1.00  0.00     0.007 C 
HETATM   40  C32 UNL     1      36.432 110.250  53.323  1.00  0.00     0.005 C 
HETATM   41  C33 UNL     1      37.522 111.163  52.840  1.00  0.00    -0.013 C 
HETATM   42  C34 UNL     1      37.298 112.541  53.403  1.00  0.00     0.018 C 
HETATM   43  C35 UNL     1      38.797 110.518  53.395  1.00  0.00     0.013 C 
HETATM   44  C36 UNL     1      38.462 109.057  53.596  1.00  0.00     0.011 C 
HETATM   45  C38 UNL     1      36.466 108.164  54.554  1.00  0.00     0.016 C 
BRANCH  31  46
HETATM   46  O4  UNL     1      38.499 106.796  51.316  1.00  0.00    -0.395 OA
ATOM     47  H4  UNL     1      38.562 106.080  50.695  1.00  0.00     0.210 HD
ENDBRANCH  31  46
BRANCH  35  48
HETATM   48  O5  UNL     1      35.253 104.343  52.326  1.00  0.00    -0.395 OA
ATOM     49  H5  UNL     1      36.113 103.972  52.162  1.00  0.00     0.210 HD
ENDBRANCH  35  48
ENDBRANCH  26  27
ENDBRANCH  24  26
ENDBRANCH   3   5
TORSDOF 5
ENDMDL
MODEL 4
REMARK VINA RESULT: -10.458261932      2.841      9.982
REMARK  5 active torsions:
REMARK  status: ('A' for Active; 'I' for Inactive)
REMARK    1  A    between atoms: C3_3  and  C5_5 
REMARK       I    between atoms: N1_20  and  C19_21 
REMARK    2  A    between atoms: C19_21  and  O3_23 
REMARK    3  A    between atoms: O3_23  and  C20_24 
REMARK    4  A    between atoms: C24_28  and  O4_29 
REMARK    5  A    between atoms: C26_32  and  O5_33 
ROOT
HETATM    1  C1  UNL     1      43.654 118.377  48.720  1.00  0.00     0.017 C 
HETATM    2  C2  UNL     1      43.269 117.267  49.041  1.00  0.00    -0.081 C 
HETATM    3  C3  UNL     1      42.828 115.964  49.442  1.00  0.00     0.016 C 
HETATM    4  C4  UNL     1      43.551 115.240  50.314  1.00  0.00     0.030 C 
ENDROOT
BRANCH   3   5
HETATM    5  C5  UNL     1      41.577 115.351  48.928  1.00  0.00     0.227 C 
HETATM    6  C6  UNL     1      41.003 114.423  49.990  1.00  0.00     0.048 C 
HETATM    7  C7  UNL     1      39.554 114.887  50.075  1.00  0.00     0.048 C 
HETATM    8  C8  UNL     1      39.622 116.306  49.709  1.00  0.00     0.193 C 
HETATM    9  C16 UNL     1      38.959 114.475  51.348  1.00  0.00     0.059 C 
HETATM   10  C9  UNL     1      38.335 116.881  49.142  1.00  0.00     0.037 C 
HETATM   11  N2  UNL     1      40.581 116.322  48.620  1.00  0.00    -0.062 N 
HETATM   12  C10 UNL     1      37.992 118.202  49.822  1.00  0.00     0.029 C 
HETATM   13  C11 UNL     1      36.551 118.256  50.148  1.00  0.00    -0.031 C 
HETATM   14  C12 UNL     1      36.023 117.861  51.301  1.00  0.00    -0.031 C 
HETATM   15  C13 UNL     1      36.818 117.302  52.429  1.00  0.00     0.027 C 
HETATM   16  C14 UNL     1      37.054 115.821  52.273  1.00  0.00     0.006 C 
HETATM   17  C15 UNL     1      38.559 115.550  52.311  1.00  0.00     0.033 C 
ATOM     18  H22 UNL     1      40.967 117.248  48.440  1.00  0.00     0.278 HD
ATOM     19  H21 UNL     1      40.152 116.179  47.706  1.00  0.00     0.278 HD
HETATM   20  C17 UNL     1      39.869 113.474  52.090  1.00  0.00     0.135 C 
HETATM   21  N1  UNL     1      38.048 113.368  51.306  1.00  0.00    -0.253 N 
HETATM   22  C18 UNL     1      38.527 112.992  52.585  1.00  0.00     0.231 C 
HETATM   23  O1  UNL     1      38.046 112.499  53.616  1.00  0.00    -0.273 OA
HETATM   24  C19 UNL     1      37.080 112.806  50.457  1.00  0.00     0.370 C 
HETATM   25  O2  UNL     1      36.811 113.327  49.340  1.00  0.00    -0.238 OA
BRANCH  24  26
HETATM   26  O3  UNL     1      36.358 111.662  50.767  1.00  0.00    -0.297 OA
BRANCH  26  27
HETATM   27  C20 UNL     1      36.881 110.605  51.587  1.00  0.00     0.142 C 
HETATM   28  C21 UNL     1      35.644 110.128  52.365  1.00  0.00     0.034 C 
HETATM   29  C22 UNL     1      35.909 109.072  53.343  1.00  0.00     0.016 C 
HETATM   30  C23 UNL     1      36.178 107.679  52.960  1.00  0.00    -0.003 C 
HETATM   31  C24 UNL     1      34.908 106.878  53.298  1.00  0.00     0.130 C 
HETATM   32  C29 UNL     1      37.223 107.132  53.928  1.00  0.00     0.003 C 
HETATM   33  C37 UNL     1      36.623 107.458  51.550  1.00  0.00    -0.029 C 
HETATM   34  C25 UNL     1      34.833 106.650  54.819  1.00  0.00     0.064 C 
HETATM   35  C26 UNL     1      35.795 105.609  55.277  1.00  0.00     0.124 C 
HETATM   36  C27 UNL     1      37.021 105.721  54.362  1.00  0.00     0.015 C 
HETATM   37  C28 UNL     1      38.222 105.398  55.262  1.00  0.00     0.013 C 
HETATM   38  C30 UNL     1      38.623 107.502  53.573  1.00  0.00     0.006 C 
HETATM   39  C31 UNL     1      38.781 108.438  52.414  1.00  0.00     0.007 C 
HETATM   40  C32 UNL     1      37.849 108.286  51.288  1.00  0.00     0.005 C 
HETATM   41  C33 UNL     1      37.371 109.565  50.664  1.00  0.00    -0.013 C 
HETATM   42  C34 UNL     1      38.465 110.133  49.802  1.00  0.00     0.018 C 
HETATM   43  C35 UNL     1      36.159 109.125  49.836  1.00  0.00     0.013 C 
HETATM   44  C36 UNL     1      35.662 107.851  50.482  1.00  0.00     0.011 C 
HETATM   45  C38 UNL     1      36.991 106.020  51.245  1.00  0.00     0.016 C 
BRANCH  31  46
HETATM   46  O4  UNL     1      33.761 107.678  53.064  1.00  0.00    -0.395 OA
ATOM     47  H4  UNL     1      33.704 107.892  52.140  1.00  0.00     0.210 HD
ENDBRANCH  31  46
BRANCH  35  48
HETATM   48  O5  UNL     1      35.218 104.328  55.121  1.00  0.00    -0.395 OA
ATOM     49  H5  UNL     1      35.072 104.154  54.198  1.00  0.00     0.210 HD
ENDBRANCH  35  48
ENDBRANCH  26  27
ENDBRANCH  24  26
ENDBRANCH   3   5
TORSDOF 5
ENDMDL
MODEL 5
REMARK VINA RESULT: -10.451498353      2.648      9.805
REMARK  5 active torsions:
REMARK  status: ('A' for Active; 'I' for Inactive)
REMARK    1  A    between atoms: C3_3  and  C5_5 
REMARK       I    between atoms: N1_20  and  C19_21 
REMARK    2  A    between atoms: C19_21  and  O3_23 
REMARK    3  A    between atoms: O3_23  and  C20_24 
REMARK    4  A    between atoms: C24_28  and  O4_29 
REMARK    5  A    between atoms: C26_32  and  O5_33 
ROOT
HETATM    1  C1  UNL     1      33.973 119.744  55.307  1.00  0.00     0.017 C 
HETATM    2  C2  UNL     1      34.866 119.381  54.564  1.00  0.00    -0.081 C 
HETATM    3  C3  UNL     1      35.922 118.980  53.681  1.00  0.00     0.016 C 
HETATM    4  C4  UNL     1      36.176 119.682  52.563  1.00  0.00     0.030 C 
ENDROOT
BRANCH   3   5
HETATM    5  C5  UNL     1      36.775 117.793  53.944  1.00  0.00     0.227 C 
HETATM    6  C6  UNL     1      36.370 116.670  52.999  1.00  0.00     0.048 C 
HETATM    7  C7  UNL     1      37.710 116.250  52.406  1.00  0.00     0.048 C 
HETATM    8  C8  UNL     1      38.509 117.479  52.449  1.00  0.00     0.193 C 
HETATM    9  C16 UNL     1      37.508 115.537  51.142  1.00  0.00     0.059 C 
HETATM   10  C9  UNL     1      40.013 117.261  52.485  1.00  0.00     0.037 C 
HETATM   11  N2  UNL     1      38.158 118.058  53.732  1.00  0.00    -0.062 N 
HETATM   12  C10 UNL     1      40.708 118.149  51.458  1.00  0.00     0.029 C 
HETATM   13  C11 UNL     1      41.747 117.384  50.734  1.00  0.00    -0.031 C 
HETATM   14  C12 UNL     1      41.544 116.726  49.598  1.00  0.00    -0.031 C 
HETATM   15  C13 UNL     1      40.233 116.667  48.896  1.00  0.00     0.027 C 
HETATM   16  C14 UNL     1      39.351 115.572  49.439  1.00  0.00     0.006 C 
HETATM   17  C15 UNL     1      38.022 116.179  49.890  1.00  0.00     0.033 C 
ATOM     18  H22 UNL     1      38.392 119.048  53.803  1.00  0.00     0.278 HD
ATOM     19  H21 UNL     1      38.750 117.730  54.496  1.00  0.00     0.278 HD
HETATM   20  C17 UNL     1      36.021 115.186  50.932  1.00  0.00     0.135 C 
HETATM   21  N1  UNL     1      37.674 114.113  51.172  1.00  0.00    -0.253 N 
HETATM   22  C18 UNL     1      36.648 114.026  50.199  1.00  0.00     0.231 C 
HETATM   23  O1  UNL     1      36.403 113.317  49.211  1.00  0.00    -0.273 OA
HETATM   24  C19 UNL     1      38.451 113.136  51.815  1.00  0.00     0.370 C 
HETATM   25  O2  UNL     1      39.328 113.454  52.665  1.00  0.00    -0.238 OA
BRANCH  24  26
HETATM   26  O3  UNL     1      38.323 111.774  51.577  1.00  0.00    -0.297 OA
BRANCH  26  27
HETATM   27  C20 UNL     1      37.715 110.870  52.513  1.00  0.00     0.142 C 
HETATM   28  C21 UNL     1      36.307 110.668  51.930  1.00  0.00     0.034 C 
HETATM   29  C22 UNL     1      35.429 109.818  52.738  1.00  0.00     0.016 C 
HETATM   30  C23 UNL     1      35.583 108.359  52.817  1.00  0.00    -0.003 C 
HETATM   31  C24 UNL     1      34.443 107.752  51.980  1.00  0.00     0.130 C 
HETATM   32  C29 UNL     1      35.249 107.941  54.245  1.00  0.00     0.003 C 
HETATM   33  C37 UNL     1      36.919 107.816  52.424  1.00  0.00    -0.029 C 
HETATM   34  C25 UNL     1      33.120 107.851  52.762  1.00  0.00     0.064 C 
HETATM   35  C26 UNL     1      33.047 106.852  53.865  1.00  0.00     0.124 C 
HETATM   36  C27 UNL     1      34.481 106.672  54.381  1.00  0.00     0.015 C 
HETATM   37  C28 UNL     1      34.336 106.444  55.892  1.00  0.00     0.013 C 
HETATM   38  C30 UNL     1      36.381 108.113  55.201  1.00  0.00     0.006 C 
HETATM   39  C31 UNL     1      37.608 108.774  54.654  1.00  0.00     0.007 C 
HETATM   40  C32 UNL     1      37.979 108.468  53.264  1.00  0.00     0.005 C 
HETATM   41  C33 UNL     1      38.502 109.626  52.464  1.00  0.00    -0.013 C 
HETATM   42  C34 UNL     1      39.921 109.911  52.877  1.00  0.00     0.018 C 
HETATM   43  C35 UNL     1      38.417 109.124  51.018  1.00  0.00     0.013 C 
HETATM   44  C36 UNL     1      37.346 108.056  51.018  1.00  0.00     0.011 C 
HETATM   45  C38 UNL     1      37.054 106.321  52.630  1.00  0.00     0.016 C 
BRANCH  31  46
HETATM   46  O4  UNL     1      34.181 108.577  50.857  1.00  0.00    -0.395 OA
ATOM     47  H4  UNL     1      33.763 109.382  51.141  1.00  0.00     0.210 HD
ENDBRANCH  31  46
BRANCH  35  48
HETATM   48  O5  UNL     1      32.581 105.618  53.357  1.00  0.00    -0.395 OA
ATOM     49  H5  UNL     1      33.175 104.923  53.614  1.00  0.00     0.210 HD
ENDBRANCH  35  48
ENDBRANCH  26  27
ENDBRANCH  24  26
ENDBRANCH   3   5
TORSDOF 5
ENDMDL
