MODEL 1
REMARK VINA RESULT: -8.564922712      0.000      0.000
REMARK  6 active torsions:
REMARK  status: ('A' for Active; 'I' for Inactive)
REMARK    1  A    between atoms: O1_2  and  C2_3 
REMARK    2  A    between atoms: C2_3  and  C3_5 
REMARK    3  A    between atoms: C5_7  and  C6_8 
REMARK    4  A    between atoms: C6_8  and  C7_9 
REMARK    5  A    between atoms: C16_20  and  O3_21 
REMARK    6  A    between atoms: C37_45  and  O4_46 
ROOT
HETATM    1  C7  UNL     1      35.039 106.781  52.816  1.00  0.00    -0.004 C 
HETATM    2  C8  UNL     1      35.773 107.206  53.946  1.00  0.00     0.014 C 
HETATM    3  C9  UNL     1      36.589 108.256  54.442  1.00  0.00     0.016 C 
HETATM    4  C10 UNL     1      37.064 107.772  55.864  1.00  0.00     0.096 C 
HETATM    5  N1  UNL     1      37.850 106.585  55.810  1.00  0.00    -0.277 NA
HETATM    6  C11 UNL     1      39.206 107.255  55.770  1.00  0.00     0.140 C 
HETATM    7  C12 UNL     1      39.467 107.895  57.099  1.00  0.00     0.072 C 
HETATM    8  N2  UNL     1      38.762 107.500  58.231  1.00  0.00    -0.391 N 
HETATM    9  C13 UNL     1      39.581 107.363  59.421  1.00  0.00     0.149 C 
HETATM   10  C14 UNL     1      37.730 106.532  58.153  1.00  0.00     0.177 C 
HETATM   11  C15 UNL     1      37.935 105.691  56.889  1.00  0.00     0.057 C 
HETATM   12  C16 UNL     1      37.488 104.337  56.975  1.00  0.00     0.155 C 
HETATM   13  N3  UNL     1      36.308 103.586  56.776  1.00  0.00    -0.361 N 
ATOM     14  H3  UNL     1      36.158 102.826  57.440  1.00  0.00     0.162 HD
HETATM   15  C17 UNL     1      35.270 103.742  55.753  1.00  0.00     0.118 C 
HETATM   16  C18 UNL     1      34.004 103.996  56.594  1.00  0.00     0.017 C 
HETATM   17  C19 UNL     1      33.822 105.352  57.138  1.00  0.00     0.034 C 
HETATM   18  C20 UNL     1      32.698 106.185  56.662  1.00  0.00    -0.026 C 
HETATM   19  C21 UNL     1      32.517 106.613  55.283  1.00  0.00     0.002 C 
HETATM   20  C22 UNL     1      32.873 105.786  54.083  1.00  0.00    -0.047 C 
HETATM   21  C23 UNL     1      33.250 104.396  54.392  1.00  0.00     0.021 C 
HETATM   22  C24 UNL     1      32.858 103.845  55.686  1.00  0.00     0.016 C 
HETATM   23  C25 UNL     1      32.930 103.230  53.512  1.00  0.00     0.043 C 
HETATM   24  C26 UNL     1      34.208 102.400  53.738  1.00  0.00    -0.074 C 
HETATM   25  C27 UNL     1      33.899 100.930  53.595  1.00  0.00     0.034 C 
HETATM   26  C28 UNL     1      35.238 100.279  53.227  1.00  0.00     0.005 C 
HETATM   27  C29 UNL     1      36.369 100.690  54.094  1.00  0.00     0.013 C 
HETATM   28  C30 UNL     1      36.484 102.249  54.222  1.00  0.00     0.039 C 
HETATM   29  C31 UNL     1      36.879 102.680  52.881  1.00  0.00    -0.017 C 
HETATM   30  C32 UNL     1      37.403 103.967  52.541  1.00  0.00    -0.001 C 
HETATM   31  C33 UNL     1      36.973 105.168  52.166  1.00  0.00    -0.083 C 
HETATM   32  C34 UNL     1      38.105 106.182  51.932  1.00  0.00     0.043 C 
HETATM   33  C35 UNL     1      35.644 105.695  51.917  1.00  0.00     0.046 C 
HETATM   34  C36 UNL     1      35.132 102.637  54.800  1.00  0.00    -0.047 C 
HETATM   35  C37 UNL     1      33.563 106.486  52.978  1.00  0.00     0.156 C 
ENDROOT
BRANCH   1  36
HETATM   36  C6  UNL     1      34.984 108.020  51.874  1.00  0.00     0.040 C 
BRANCH  36  37
HETATM   37  C5  UNL     1      35.856 107.958  50.719  1.00  0.00    -0.013 C 
HETATM   38  C3  UNL     1      36.552 108.958  50.262  1.00  0.00     0.009 C 
HETATM   39  C4  UNL     1      37.431 108.698  49.010  1.00  0.00     0.054 C 
BRANCH  38  40
HETATM   40  C2  UNL     1      36.655 110.311  50.726  1.00  0.00     0.288 C 
HETATM   41  O2  UNL     1      36.511 111.292  49.984  1.00  0.00    -0.260 OA
BRANCH  40  42
HETATM   42  O1  UNL     1      36.931 110.634  52.075  1.00  0.00    -0.323 OA
HETATM   43  C1  UNL     1      36.118 111.559  52.781  1.00  0.00     0.213 C 
ENDBRANCH  40  42
ENDBRANCH  38  40
ENDBRANCH  36  37
ENDBRANCH   1  36
BRANCH  35  44
HETATM   44  O4  UNL     1      33.221 105.863  51.735  1.00  0.00    -0.390 OA
ATOM     45  H4  UNL     1      33.799 105.109  51.709  1.00  0.00     0.210 HD
ENDBRANCH  35  44
BRANCH  12  46
HETATM   46  O3  UNL     1      38.409 103.466  57.356  1.00  0.00    -0.345 OA
ATOM     47  H3  UNL     1      39.228 103.848  57.649  1.00  0.00     0.219 HD
ENDBRANCH  12  46
TORSDOF 6
ENDMDL
MODEL 2
REMARK VINA RESULT: -8.480233511      1.038      1.302
REMARK  6 active torsions:
REMARK  status: ('A' for Active; 'I' for Inactive)
REMARK    1  A    between atoms: O1_2  and  C2_3 
REMARK    2  A    between atoms: C2_3  and  C3_5 
REMARK    3  A    between atoms: C5_7  and  C6_8 
REMARK    4  A    between atoms: C6_8  and  C7_9 
REMARK    5  A    between atoms: C16_20  and  O3_21 
REMARK    6  A    between atoms: C37_45  and  O4_46 
ROOT
HETATM    1  C7  UNL     1      35.691 106.615  52.082  1.00  0.00    -0.004 C 
HETATM    2  C8  UNL     1      36.116 107.190  53.300  1.00  0.00     0.014 C 
HETATM    3  C9  UNL     1      36.860 108.266  53.850  1.00  0.00     0.016 C 
HETATM    4  C10 UNL     1      36.867 108.011  55.404  1.00  0.00     0.096 C 
HETATM    5  N1  UNL     1      37.515 106.793  55.761  1.00  0.00    -0.277 NA
HETATM    6  C11 UNL     1      38.887 107.376  56.021  1.00  0.00     0.140 C 
HETATM    7  C12 UNL     1      38.827 108.221  57.256  1.00  0.00     0.072 C 
HETATM    8  N2  UNL     1      37.797 108.063  58.178  1.00  0.00    -0.391 N 
HETATM    9  C13 UNL     1      38.232 108.091  59.562  1.00  0.00     0.149 C 
HETATM   10  C14 UNL     1      36.738 107.151  57.947  1.00  0.00     0.177 C 
HETATM   11  C15 UNL     1      37.205 106.095  56.939  1.00  0.00     0.057 C 
HETATM   12  C16 UNL     1      36.620 104.801  57.093  1.00  0.00     0.155 C 
HETATM   13  N3  UNL     1      35.476 104.089  56.672  1.00  0.00    -0.361 N 
ATOM     14  H3  UNL     1      35.070 103.463  57.368  1.00  0.00     0.162 HD
HETATM   15  C17 UNL     1      34.786 104.119  55.379  1.00  0.00     0.118 C 
HETATM   16  C18 UNL     1      33.367 104.578  55.763  1.00  0.00     0.017 C 
HETATM   17  C19 UNL     1      33.175 106.015  56.020  1.00  0.00     0.034 C 
HETATM   18  C20 UNL     1      32.318 106.811  55.116  1.00  0.00    -0.026 C 
HETATM   19  C21 UNL     1      32.574 107.004  53.698  1.00  0.00     0.002 C 
HETATM   20  C22 UNL     1      33.168 105.965  52.792  1.00  0.00    -0.047 C 
HETATM   21  C23 UNL     1      33.304 104.632  53.403  1.00  0.00     0.021 C 
HETATM   22  C24 UNL     1      32.512 104.332  54.593  1.00  0.00     0.016 C 
HETATM   23  C25 UNL     1      33.130 103.350  52.653  1.00  0.00     0.043 C 
HETATM   24  C26 UNL     1      34.205 102.506  53.366  1.00  0.00    -0.074 C 
HETATM   25  C27 UNL     1      33.805 101.052  53.361  1.00  0.00     0.034 C 
HETATM   26  C28 UNL     1      35.123 100.279  53.502  1.00  0.00     0.005 C 
HETATM   27  C29 UNL     1      35.999 100.775  54.591  1.00  0.00     0.013 C 
HETATM   28  C30 UNL     1      36.228 102.325  54.512  1.00  0.00     0.039 C 
HETATM   29  C31 UNL     1      37.024 102.498  53.297  1.00  0.00    -0.017 C 
HETATM   30  C32 UNL     1      37.746 103.678  52.936  1.00  0.00    -0.001 C 
HETATM   31  C33 UNL     1      37.560 104.817  52.277  1.00  0.00    -0.083 C 
HETATM   32  C34 UNL     1      38.806 105.716  52.235  1.00  0.00     0.043 C 
HETATM   33  C35 UNL     1      36.413 105.361  51.572  1.00  0.00     0.046 C 
HETATM   34  C36 UNL     1      34.812 102.875  54.604  1.00  0.00    -0.047 C 
HETATM   35  C37 UNL     1      34.206 106.429  51.846  1.00  0.00     0.156 C 
ENDROOT
BRANCH   1  36
HETATM   36  C6  UNL     1      36.025 107.675  50.991  1.00  0.00     0.040 C 
BRANCH  36  37
HETATM   37  C5  UNL     1      35.600 109.027  51.292  1.00  0.00    -0.013 C 
HETATM   38  C3  UNL     1      36.356 110.081  51.185  1.00  0.00     0.009 C 
HETATM   39  C4  UNL     1      35.722 111.449  51.553  1.00  0.00     0.054 C 
BRANCH  38  40
HETATM   40  C2  UNL     1      37.723 110.210  50.772  1.00  0.00     0.288 C 
HETATM   41  O2  UNL     1      38.055 110.438  49.600  1.00  0.00    -0.260 OA
BRANCH  40  42
HETATM   42  O1  UNL     1      38.805 110.087  51.673  1.00  0.00    -0.323 OA
HETATM   43  C1  UNL     1      39.032 111.069  52.674  1.00  0.00     0.213 C 
ENDBRANCH  40  42
ENDBRANCH  38  40
ENDBRANCH  36  37
ENDBRANCH   1  36
BRANCH  35  44
HETATM   44  O4  UNL     1      34.167 105.619  50.666  1.00  0.00    -0.390 OA
ATOM     45  H4  UNL     1      34.003 106.254  49.978  1.00  0.00     0.210 HD
ENDBRANCH  35  44
BRANCH  12  46
HETATM   46  O3  UNL     1      37.306 103.962  57.853  1.00  0.00    -0.345 OA
ATOM     47  H3  UNL     1      38.171 103.739  57.527  1.00  0.00     0.219 HD
ENDBRANCH  12  46
TORSDOF 6
ENDMDL
MODEL 3
REMARK VINA RESULT: -8.250376025      8.609     14.239
REMARK  6 active torsions:
REMARK  status: ('A' for Active; 'I' for Inactive)
REMARK    1  A    between atoms: O1_2  and  C2_3 
REMARK    2  A    between atoms: C2_3  and  C3_5 
REMARK    3  A    between atoms: C5_7  and  C6_8 
REMARK    4  A    between atoms: C6_8  and  C7_9 
REMARK    5  A    between atoms: C16_20  and  O3_21 
REMARK    6  A    between atoms: C37_45  and  O4_46 
ROOT
HETATM    1  C7  UNL     1      42.512 117.316  51.048  1.00  0.00    -0.004 C 
HETATM    2  C8  UNL     1      41.676 116.273  51.506  1.00  0.00     0.014 C 
HETATM    3  C9  UNL     1      41.661 114.896  51.847  1.00  0.00     0.016 C 
HETATM    4  C10 UNL     1      40.156 114.569  52.176  1.00  0.00     0.096 C 
HETATM    5  N1  UNL     1      39.292 114.761  51.060  1.00  0.00    -0.277 NA
HETATM    6  C11 UNL     1      39.315 113.336  50.553  1.00  0.00     0.140 C 
HETATM    7  C12 UNL     1      38.585 112.464  51.529  1.00  0.00     0.072 C 
HETATM    8  N2  UNL     1      37.694 113.012  52.445  1.00  0.00    -0.391 N 
HETATM    9  C13 UNL     1      36.465 112.255  52.600  1.00  0.00     0.149 C 
HETATM   10  C14 UNL     1      37.496 114.413  52.531  1.00  0.00     0.177 C 
HETATM   11  C15 UNL     1      37.927 115.056  51.208  1.00  0.00     0.057 C 
HETATM   12  C16 UNL     1      37.215 116.238  50.842  1.00  0.00     0.155 C 
HETATM   13  N3  UNL     1      37.277 117.633  51.056  1.00  0.00    -0.361 N 
ATOM     14  H3  UNL     1      36.376 118.099  51.163  1.00  0.00     0.162 HD
HETATM   15  C17 UNL     1      38.451 118.507  51.144  1.00  0.00     0.118 C 
HETATM   16  C18 UNL     1      38.315 119.111  52.555  1.00  0.00     0.017 C 
HETATM   17  C19 UNL     1      38.726 118.266  53.688  1.00  0.00     0.034 C 
HETATM   18  C20 UNL     1      39.893 118.657  54.507  1.00  0.00    -0.026 C 
HETATM   19  C21 UNL     1      41.248 118.794  53.997  1.00  0.00     0.002 C 
HETATM   20  C22 UNL     1      41.594 119.303  52.629  1.00  0.00    -0.047 C 
HETATM   21  C23 UNL     1      40.452 119.855  51.878  1.00  0.00     0.021 C 
HETATM   22  C24 UNL     1      39.256 120.239  52.623  1.00  0.00     0.016 C 
HETATM   23  C25 UNL     1      40.553 121.017  50.943  1.00  0.00     0.043 C 
HETATM   24  C26 UNL     1      39.536 120.559  49.879  1.00  0.00    -0.074 C 
HETATM   25  C27 UNL     1      38.894 121.761  49.231  1.00  0.00     0.034 C 
HETATM   26  C28 UNL     1      38.418 121.262  47.860  1.00  0.00     0.005 C 
HETATM   27  C29 UNL     1      37.662 119.987  47.910  1.00  0.00     0.013 C 
HETATM   28  C30 UNL     1      38.423 118.875  48.713  1.00  0.00     0.039 C 
HETATM   29  C31 UNL     1      39.586 118.576  47.877  1.00  0.00    -0.017 C 
HETATM   30  C32 UNL     1      40.432 117.430  48.008  1.00  0.00    -0.001 C 
HETATM   31  C33 UNL     1      41.531 117.052  48.654  1.00  0.00    -0.083 C 
HETATM   32  C34 UNL     1      41.965 115.611  48.341  1.00  0.00     0.043 C 
HETATM   33  C35 UNL     1      42.407 117.748  49.580  1.00  0.00     0.046 C 
HETATM   34  C36 UNL     1      38.590 119.511  50.085  1.00  0.00    -0.047 C 
HETATM   35  C37 UNL     1      42.644 118.565  51.894  1.00  0.00     0.156 C 
ENDROOT
BRANCH   1  36
HETATM   36  C6  UNL     1      43.960 116.751  51.141  1.00  0.00     0.040 C 
BRANCH  36  37
HETATM   37  C5  UNL     1      44.490 116.628  52.484  1.00  0.00    -0.013 C 
HETATM   38  C3  UNL     1      45.154 115.599  52.925  1.00  0.00     0.009 C 
HETATM   39  C4  UNL     1      45.644 115.650  54.397  1.00  0.00     0.054 C 
BRANCH  38  40
HETATM   40  C2  UNL     1      45.529 114.381  52.270  1.00  0.00     0.288 C 
HETATM   41  O2  UNL     1      44.776 113.401  52.185  1.00  0.00    -0.260 OA
BRANCH  40  42
HETATM   42  O1  UNL     1      46.795 114.199  51.666  1.00  0.00    -0.323 OA
HETATM   43  C1  UNL     1      47.723 113.262  52.192  1.00  0.00     0.213 C 
ENDBRANCH  40  42
ENDBRANCH  38  40
ENDBRANCH  36  37
ENDBRANCH   1  36
BRANCH  35  44
HETATM   44  O4  UNL     1      43.340 119.468  51.028  1.00  0.00    -0.390 OA
ATOM     45  H4  UNL     1      42.897 120.295  51.181  1.00  0.00     0.210 HD
ENDBRANCH  35  44
BRANCH  12  46
HETATM   46  O3  UNL     1      36.158 116.040  50.069  1.00  0.00    -0.345 OA
ATOM     47  H3  UNL     1      36.276 115.390  49.386  1.00  0.00     0.219 HD
ENDBRANCH  12  46
TORSDOF 6
ENDMDL
MODEL 4
REMARK VINA RESULT: -8.086710925      0.466      1.206
REMARK  6 active torsions:
REMARK  status: ('A' for Active; 'I' for Inactive)
REMARK    1  A    between atoms: O1_2  and  C2_3 
REMARK    2  A    between atoms: C2_3  and  C3_5 
REMARK    3  A    between atoms: C5_7  and  C6_8 
REMARK    4  A    between atoms: C6_8  and  C7_9 
REMARK    5  A    between atoms: C16_20  and  O3_21 
REMARK    6  A    between atoms: C37_45  and  O4_46 
ROOT
HETATM    1  C7  UNL     1      35.077 106.775  52.826  1.00  0.00    -0.004 C 
HETATM    2  C8  UNL     1      35.831 107.208  53.939  1.00  0.00     0.014 C 
HETATM    3  C9  UNL     1      36.668 108.253  54.407  1.00  0.00     0.016 C 
HETATM    4  C10 UNL     1      37.156 107.786  55.831  1.00  0.00     0.096 C 
HETATM    5  N1  UNL     1      37.923 106.587  55.785  1.00  0.00    -0.277 NA
HETATM    6  C11 UNL     1      39.288 107.237  55.717  1.00  0.00     0.140 C 
HETATM    7  C12 UNL     1      39.576 107.895  57.032  1.00  0.00     0.072 C 
HETATM    8  N2  UNL     1      38.880 107.528  58.179  1.00  0.00    -0.391 N 
HETATM    9  C13 UNL     1      39.713 107.397  59.360  1.00  0.00     0.149 C 
HETATM   10  C14 UNL     1      37.834 106.573  58.131  1.00  0.00     0.177 C 
HETATM   11  C15 UNL     1      38.010 105.709  56.877  1.00  0.00     0.057 C 
HETATM   12  C16 UNL     1      37.546 104.363  56.991  1.00  0.00     0.155 C 
HETATM   13  N3  UNL     1      36.354 103.626  56.820  1.00  0.00    -0.361 N 
ATOM     14  H3  UNL     1      36.201 102.879  57.497  1.00  0.00     0.162 HD
HETATM   15  C17 UNL     1      35.304 103.780  55.808  1.00  0.00     0.118 C 
HETATM   16  C18 UNL     1      34.053 104.065  56.661  1.00  0.00     0.017 C 
HETATM   17  C19 UNL     1      33.897 105.432  57.185  1.00  0.00     0.034 C 
HETATM   18  C20 UNL     1      32.779 106.274  56.711  1.00  0.00    -0.026 C 
HETATM   19  C21 UNL     1      32.585 106.682  55.328  1.00  0.00     0.002 C 
HETATM   20  C22 UNL     1      32.913 105.831  54.137  1.00  0.00    -0.047 C 
HETATM   21  C23 UNL     1      33.275 104.441  54.463  1.00  0.00     0.021 C 
HETATM   22  C24 UNL     1      32.893 103.916  55.771  1.00  0.00     0.016 C 
HETATM   23  C25 UNL     1      32.927 103.266  53.606  1.00  0.00     0.043 C 
HETATM   24  C26 UNL     1      34.197 102.421  53.829  1.00  0.00    -0.074 C 
HETATM   25  C27 UNL     1      33.865 100.954  53.714  1.00  0.00     0.034 C 
HETATM   26  C28 UNL     1      35.190 100.278  53.338  1.00  0.00     0.005 C 
HETATM   27  C29 UNL     1      36.338 100.688  54.184  1.00  0.00     0.013 C 
HETATM   28  C30 UNL     1      36.477 102.247  54.285  1.00  0.00     0.039 C 
HETATM   29  C31 UNL     1      36.860 102.651  52.932  1.00  0.00    -0.017 C 
HETATM   30  C32 UNL     1      37.397 103.924  52.565  1.00  0.00    -0.001 C 
HETATM   31  C33 UNL     1      36.979 105.125  52.177  1.00  0.00    -0.083 C 
HETATM   32  C34 UNL     1      38.121 106.119  51.912  1.00  0.00     0.043 C 
HETATM   33  C35 UNL     1      35.654 105.667  51.936  1.00  0.00     0.046 C 
HETATM   34  C36 UNL     1      35.137 102.662  54.875  1.00  0.00    -0.047 C 
HETATM   35  C37 UNL     1      33.598 106.504  53.012  1.00  0.00     0.156 C 
ENDROOT
BRANCH   1  36
HETATM   36  C6  UNL     1      35.026 108.000  51.865  1.00  0.00     0.040 C 
BRANCH  36  37
HETATM   37  C5  UNL     1      35.190 109.292  52.502  1.00  0.00    -0.013 C 
HETATM   38  C3  UNL     1      35.881 110.278  52.007  1.00  0.00     0.009 C 
HETATM   39  C4  UNL     1      35.941 111.588  52.836  1.00  0.00     0.054 C 
BRANCH  38  40
HETATM   40  C2  UNL     1      36.625 110.374  50.786  1.00  0.00     0.288 C 
HETATM   41  O2  UNL     1      36.527 111.334  50.009  1.00  0.00    -0.260 OA
BRANCH  40  42
HETATM   42  O1  UNL     1      37.535 109.375  50.368  1.00  0.00    -0.323 OA
HETATM   43  C1  UNL     1      37.306 108.636  49.178  1.00  0.00     0.213 C 
ENDBRANCH  40  42
ENDBRANCH  38  40
ENDBRANCH  36  37
ENDBRANCH   1  36
BRANCH  35  44
HETATM   44  O4  UNL     1      33.231 105.866  51.783  1.00  0.00    -0.390 OA
ATOM     45  H4  UNL     1      33.763 105.078  51.786  1.00  0.00     0.210 HD
ENDBRANCH  35  44
BRANCH  12  46
HETATM   46  O3  UNL     1      38.460 103.485  57.373  1.00  0.00    -0.345 OA
ATOM     47  H3  UNL     1      39.353 103.705  57.138  1.00  0.00     0.219 HD
ENDBRANCH  12  46
TORSDOF 6
ENDMDL
MODEL 5
REMARK VINA RESULT: -7.894687803      9.261     14.414
REMARK  6 active torsions:
REMARK  status: ('A' for Active; 'I' for Inactive)
REMARK    1  A    between atoms: O1_2  and  C2_3 
REMARK    2  A    between atoms: C2_3  and  C3_5 
REMARK    3  A    between atoms: C5_7  and  C6_8 
REMARK    4  A    between atoms: C6_8  and  C7_9 
REMARK    5  A    between atoms: C16_20  and  O3_21 
REMARK    6  A    between atoms: C37_45  and  O4_46 
ROOT
HETATM    1  C7  UNL     1      41.187 119.143  50.551  1.00  0.00    -0.004 C 
HETATM    2  C8  UNL     1      40.155 118.186  50.426  1.00  0.00     0.014 C 
HETATM    3  C9  UNL     1      38.745 118.035  50.377  1.00  0.00     0.016 C 
HETATM    4  C10 UNL     1      38.498 116.481  50.317  1.00  0.00     0.096 C 
HETATM    5  N1  UNL     1      38.979 115.799  51.471  1.00  0.00    -0.277 NA
HETATM    6  C11 UNL     1      37.683 115.805  52.251  1.00  0.00     0.140 C 
HETATM    7  C12 UNL     1      36.708 114.890  51.574  1.00  0.00     0.072 C 
HETATM    8  N2  UNL     1      37.147 113.912  50.688  1.00  0.00    -0.391 N 
HETATM    9  C13 UNL     1      36.489 112.629  50.848  1.00  0.00     0.149 C 
HETATM   10  C14 UNL     1      38.517 113.793  50.344  1.00  0.00     0.177 C 
HETATM   11  C15 UNL     1      39.362 114.448  51.442  1.00  0.00     0.057 C 
HETATM   12  C16 UNL     1      40.652 113.872  51.648  1.00  0.00     0.155 C 
HETATM   13  N3  UNL     1      41.968 113.992  51.149  1.00  0.00    -0.361 N 
ATOM     14  H3  UNL     1      42.484 113.116  51.065  1.00  0.00     0.162 HD
HETATM   15  C17 UNL     1      42.699 115.193  50.735  1.00  0.00     0.118 C 
HETATM   16  C18 UNL     1      43.029 114.895  49.260  1.00  0.00     0.017 C 
HETATM   17  C19 UNL     1      41.947 115.085  48.279  1.00  0.00     0.034 C 
HETATM   18  C20 UNL     1      42.067 116.144  47.256  1.00  0.00    -0.026 C 
HETATM   19  C21 UNL     1      42.176 117.564  47.550  1.00  0.00     0.002 C 
HETATM   20  C22 UNL     1      42.906 118.135  48.730  1.00  0.00    -0.047 C 
HETATM   21  C23 UNL     1      43.693 117.149  49.492  1.00  0.00     0.021 C 
HETATM   22  C24 UNL     1      44.033 115.886  48.844  1.00  0.00     0.016 C 
HETATM   23  C25 UNL     1      45.000 117.456  50.150  1.00  0.00     0.043 C 
HETATM   24  C26 UNL     1      44.850 116.575  51.406  1.00  0.00    -0.074 C 
HETATM   25  C27 UNL     1      46.207 116.110  51.873  1.00  0.00     0.034 C 
HETATM   26  C28 UNL     1      46.027 115.805  53.366  1.00  0.00     0.005 C 
HETATM   27  C29 UNL     1      44.840 114.971  53.674  1.00  0.00     0.013 C 
HETATM   28  C30 UNL     1      43.530 115.537  53.024  1.00  0.00     0.039 C 
HETATM   29  C31 UNL     1      43.294 116.786  53.747  1.00  0.00    -0.017 C 
HETATM   30  C32 UNL     1      42.073 117.531  53.745  1.00  0.00    -0.001 C 
HETATM   31  C33 UNL     1      41.479 118.500  53.055  1.00  0.00    -0.083 C 
HETATM   32  C34 UNL     1      40.093 118.883  53.596  1.00  0.00     0.043 C 
HETATM   33  C35 UNL     1      41.901 119.277  51.902  1.00  0.00     0.046 C 
HETATM   34  C36 UNL     1      43.871 115.546  51.541  1.00  0.00    -0.047 C 
HETATM   35  C37 UNL     1      42.232 119.231  49.459  1.00  0.00     0.156 C 
ENDROOT
BRANCH   1  36
HETATM   36  C6  UNL     1      40.486 120.524  50.391  1.00  0.00     0.040 C 
BRANCH  36  37
HETATM   37  C5  UNL     1      41.080 121.610  51.144  1.00  0.00    -0.013 C 
HETATM   38  C3  UNL     1      40.452 122.692  51.503  1.00  0.00     0.009 C 
HETATM   39  C4  UNL     1      41.258 123.746  52.308  1.00  0.00     0.054 C 
BRANCH  38  40
HETATM   40  C2  UNL     1      39.096 123.100  51.279  1.00  0.00     0.288 C 
HETATM   41  O2  UNL     1      38.157 122.746  52.004  1.00  0.00    -0.260 OA
BRANCH  40  42
HETATM   42  O1  UNL     1      38.722 123.945  50.208  1.00  0.00    -0.323 OA
HETATM   43  C1  UNL     1      38.741 123.471  48.869  1.00  0.00     0.213 C 
ENDBRANCH  40  42
ENDBRANCH  38  40
ENDBRANCH  36  37
ENDBRANCH   1  36
BRANCH  35  44
HETATM   44  O4  UNL     1      43.218 120.100  50.027  1.00  0.00    -0.390 OA
ATOM     45  H4  UNL     1      43.558 120.561  49.269  1.00  0.00     0.210 HD
ENDBRANCH  35  44
BRANCH  12  46
HETATM   46  O3  UNL     1      40.703 112.927  52.574  1.00  0.00    -0.345 OA
ATOM     47  H3  UNL     1      40.212 113.113  53.366  1.00  0.00     0.219 HD
ENDBRANCH  12  46
TORSDOF 6
ENDMDL
