MODEL 1
REMARK VINA RESULT: -9.700808761      0.000      0.000
REMARK  4 active torsions:
REMARK  status: ('A' for Active; 'I' for Inactive)
REMARK       I    between atoms: C2_2  and  N1_4 
REMARK       I    between atoms: N1_4  and  C3_6 
REMARK    1  A    between atoms: C3_6  and  C4_8 
REMARK    2  A    between atoms: C10_14  and  C11_15 
REMARK    3  A    between atoms: C22_28  and  O5_29 
REMARK    4  A    between atoms: C29_37  and  O6_38 
ROOT
HETATM    1  C4  UNL     1      37.718 111.138  52.839  1.00  0.00     0.052 C 
HETATM    2  C5  UNL     1      37.301 111.804  54.142  1.00  0.00     0.020 C 
HETATM    3  C6  UNL     1      38.004 111.207  55.337  1.00  0.00     0.007 C 
HETATM    4  C7  UNL     1      39.443 111.689  55.198  1.00  0.00     0.005 C 
HETATM    5  C8  UNL     1      40.042 111.343  53.882  1.00  0.00    -0.003 C 
HETATM    6  C9  UNL     1      41.303 110.497  53.977  1.00  0.00     0.025 C 
HETATM    7  C10 UNL     1      42.252 110.936  55.023  1.00  0.00     0.125 C 
HETATM    8  C13 UNL     1      41.612 111.524  56.226  1.00  0.00     0.146 C 
HETATM    9  O4  UNL     1      42.242 112.194  57.020  1.00  0.00    -0.296 OA
HETATM   10  C14 UNL     1      40.179 111.261  56.417  1.00  0.00     0.018 C 
HETATM   11  C15 UNL     1      39.885 109.859  56.881  1.00  0.00     0.023 C 
HETATM   12  C16 UNL     1      39.691 112.157  57.571  1.00  0.00     0.023 C 
HETATM   13  C17 UNL     1      39.164 110.697  52.888  1.00  0.00     0.009 C 
HETATM   14  C18 UNL     1      39.186 109.182  52.904  1.00  0.00     0.016 C 
HETATM   15  C19 UNL     1      37.955 108.867  52.116  1.00  0.00    -0.029 C 
HETATM   16  C20 UNL     1      38.216 109.061  50.646  1.00  0.00     0.016 C 
HETATM   17  C21 UNL     1      36.999 109.873  52.680  1.00  0.00     0.041 C 
HETATM   18  C22 UNL     1      35.745 109.807  51.922  1.00  0.00     0.124 C 
HETATM   19  C23 UNL     1      35.367 108.493  51.387  1.00  0.00     0.038 C 
HETATM   20  C24 UNL     1      36.067 107.257  51.828  1.00  0.00     0.005 C 
HETATM   21  C25 UNL     1      35.201 106.375  52.707  1.00  0.00    -0.035 C 
HETATM   22  C26 UNL     1      34.528 107.108  53.809  1.00  0.00     0.016 C 
HETATM   23  C27 UNL     1      34.129 105.789  51.806  1.00  0.00     0.012 C 
HETATM   24  C28 UNL     1      33.226 104.844  52.548  1.00  0.00     0.033 C 
HETATM   25  C29 UNL     1      34.031 103.678  52.983  1.00  0.00     0.126 C 
HETATM   26  C30 UNL     1      35.360 103.986  53.595  1.00  0.00    -0.017 C 
HETATM   27  C31 UNL     1      35.233 103.804  55.090  1.00  0.00     0.018 C 
HETATM   28  C32 UNL     1      36.255 102.787  53.186  1.00  0.00     0.018 C 
HETATM   29  C33 UNL     1      36.045 105.202  53.130  1.00  0.00     0.004 C 
HETATM   30  C34 UNL     1      37.058 105.706  54.103  1.00  0.00     0.007 C 
HETATM   31  C35 UNL     1      37.686 107.019  53.748  1.00  0.00     0.011 C 
HETATM   32  C36 UNL     1      37.475 107.442  52.314  1.00  0.00    -0.032 C 
HETATM   33  C37 UNL     1      38.492 106.601  51.510  1.00  0.00     0.016 C 
ENDROOT
BRANCH   1  34
HETATM   34  C3  UNL     1      37.544 112.184  51.804  1.00  0.00     0.233 C 
HETATM   35  N1  UNL     1      36.834 113.394  51.966  1.00  0.00    -0.297 N 
HETATM   36  C2  UNL     1      36.687 114.350  50.946  1.00  0.00     0.220 C 
ATOM     37  H1  UNL     1      36.406 113.585  52.872  1.00  0.00     0.171 HD
HETATM   38  C1  UNL     1      37.266 114.172  49.611  1.00  0.00     0.117 C 
HETATM   39  O1  UNL     1      36.027 115.429  51.163  1.00  0.00    -0.274 OA
HETATM   40  O2  UNL     1      38.065 111.995  50.683  1.00  0.00    -0.272 OA
ENDBRANCH   1  34
BRANCH  18  41
HETATM   41  O5  UNL     1      34.721 110.264  52.801  1.00  0.00    -0.395 OA
ATOM     42  H5  UNL     1      34.004 110.554  52.249  1.00  0.00     0.210 HD
ENDBRANCH  18  41
BRANCH   7  43
HETATM   43  C11 UNL     1      43.329 111.840  54.491  1.00  0.00     0.134 C 
HETATM   44  C12 UNL     1      42.990 113.038  53.676  1.00  0.00     0.091 C 
HETATM   45  O3  UNL     1      44.511 111.628  54.706  1.00  0.00    -0.298 OA
ENDBRANCH   7  43
BRANCH  25  46
HETATM   46  O6  UNL     1      33.247 102.930  53.886  1.00  0.00    -0.395 OA
ATOM     47  H6  UNL     1      32.336 103.146  53.725  1.00  0.00     0.210 HD
ENDBRANCH  25  46
TORSDOF 4
ENDMDL
MODEL 2
REMARK VINA RESULT: -9.406070184      3.578      9.046
REMARK  4 active torsions:
REMARK  status: ('A' for Active; 'I' for Inactive)
REMARK       I    between atoms: C2_2  and  N1_4 
REMARK       I    between atoms: N1_4  and  C3_6 
REMARK    1  A    between atoms: C3_6  and  C4_8 
REMARK    2  A    between atoms: C10_14  and  C11_15 
REMARK    3  A    between atoms: C22_28  and  O5_29 
REMARK    4  A    between atoms: C29_37  and  O6_38 
ROOT
HETATM    1  C4  UNL     1      34.506 103.893  54.187  1.00  0.00     0.052 C 
HETATM    2  C5  UNL     1      35.701 103.238  54.865  1.00  0.00     0.020 C 
HETATM    3  C6  UNL     1      36.176 104.024  56.063  1.00  0.00     0.007 C 
HETATM    4  C7  UNL     1      35.083 103.810  57.103  1.00  0.00     0.005 C 
HETATM    5  C8  UNL     1      33.734 104.183  56.605  1.00  0.00    -0.003 C 
HETATM    6  C9  UNL     1      33.039 105.253  57.436  1.00  0.00     0.025 C 
HETATM    7  C10 UNL     1      33.158 105.059  58.897  1.00  0.00     0.125 C 
HETATM    8  C13 UNL     1      34.432 104.434  59.333  1.00  0.00     0.146 C 
HETATM    9  O4  UNL     1      34.555 103.939  60.436  1.00  0.00    -0.296 OA
HETATM   10  C14 UNL     1      35.542 104.437  58.370  1.00  0.00     0.018 C 
HETATM   11  C15 UNL     1      36.195 105.785  58.216  1.00  0.00     0.023 C 
HETATM   12  C16 UNL     1      36.654 103.535  58.939  1.00  0.00     0.023 C 
HETATM   13  C17 UNL     1      33.623 104.596  55.194  1.00  0.00     0.009 C 
HETATM   14  C18 UNL     1      33.743 106.087  54.952  1.00  0.00     0.016 C 
HETATM   15  C19 UNL     1      33.993 106.122  53.478  1.00  0.00    -0.029 C 
HETATM   16  C20 UNL     1      32.707 105.894  52.728  1.00  0.00     0.016 C 
HETATM   17  C21 UNL     1      34.964 104.991  53.334  1.00  0.00     0.041 C 
HETATM   18  C22 UNL     1      35.232 104.778  51.908  1.00  0.00     0.124 C 
HETATM   19  C23 UNL     1      35.188 105.966  51.046  1.00  0.00     0.038 C 
HETATM   20  C24 UNL     1      35.153 107.334  51.629  1.00  0.00     0.005 C 
HETATM   21  C25 UNL     1      36.453 108.090  51.425  1.00  0.00    -0.035 C 
HETATM   22  C26 UNL     1      37.661 107.310  51.796  1.00  0.00     0.016 C 
HETATM   23  C27 UNL     1      36.535 108.414  49.944  1.00  0.00     0.012 C 
HETATM   24  C28 UNL     1      37.761 109.216  49.612  1.00  0.00     0.033 C 
HETATM   25  C29 UNL     1      37.648 110.535  50.279  1.00  0.00     0.126 C 
HETATM   26  C30 UNL     1      37.203 110.515  51.707  1.00  0.00    -0.017 C 
HETATM   27  C31 UNL     1      38.418 110.757  52.573  1.00  0.00     0.018 C 
HETATM   28  C32 UNL     1      36.403 111.833  51.874  1.00  0.00     0.018 C 
HETATM   29  C33 UNL     1      36.306 109.422  52.112  1.00  0.00     0.004 C 
HETATM   30  C34 UNL     1      36.323 109.172  53.583  1.00  0.00     0.007 C 
HETATM   31  C35 UNL     1      35.537 107.980  54.037  1.00  0.00     0.011 C 
HETATM   32  C36 UNL     1      34.572 107.442  53.008  1.00  0.00    -0.032 C 
HETATM   33  C37 UNL     1      33.368 108.409  53.066  1.00  0.00     0.016 C 
ENDROOT
BRANCH   1  34
HETATM   34  C3  UNL     1      33.764 102.774  53.560  1.00  0.00     0.233 C 
HETATM   35  N1  UNL     1      32.421 102.818  53.122  1.00  0.00    -0.297 N 
HETATM   36  C2  UNL     1      31.758 101.721  52.543  1.00  0.00     0.220 C 
ATOM     37  H1  UNL     1      31.906 103.691  53.231  1.00  0.00     0.171 HD
HETATM   38  C1  UNL     1      32.410 100.424  52.341  1.00  0.00     0.117 C 
HETATM   39  O1  UNL     1      30.536 101.831  52.168  1.00  0.00    -0.274 OA
HETATM   40  O2  UNL     1      34.363 101.689  53.396  1.00  0.00    -0.272 OA
ENDBRANCH   1  34
BRANCH  18  41
HETATM   41  O5  UNL     1      36.527 104.192  51.827  1.00  0.00    -0.395 OA
ATOM     42  H5  UNL     1      36.981 104.643  51.124  1.00  0.00     0.210 HD
ENDBRANCH  18  41
BRANCH   7  43
HETATM   43  C11 UNL     1      31.977 104.341  59.489  1.00  0.00     0.134 C 
HETATM   44  C12 UNL     1      31.493 103.058  58.911  1.00  0.00     0.091 C 
HETATM   45  O3  UNL     1      31.377 104.778  60.456  1.00  0.00    -0.298 OA
ENDBRANCH   7  43
BRANCH  25  46
HETATM   46  O6  UNL     1      38.901 111.176  50.174  1.00  0.00    -0.395 OA
ATOM     47  H6  UNL     1      38.813 111.880  49.543  1.00  0.00     0.210 HD
ENDBRANCH  25  46
TORSDOF 4
ENDMDL
MODEL 3
REMARK VINA RESULT: -8.901056126      1.392      1.666
REMARK  4 active torsions:
REMARK  status: ('A' for Active; 'I' for Inactive)
REMARK       I    between atoms: C2_2  and  N1_4 
REMARK       I    between atoms: N1_4  and  C3_6 
REMARK    1  A    between atoms: C3_6  and  C4_8 
REMARK    2  A    between atoms: C10_14  and  C11_15 
REMARK    3  A    between atoms: C22_28  and  O5_29 
REMARK    4  A    between atoms: C29_37  and  O6_38 
ROOT
HETATM    1  C4  UNL     1      38.589 111.040  53.565  1.00  0.00     0.052 C 
HETATM    2  C5  UNL     1      38.240 111.704  54.889  1.00  0.00     0.020 C 
HETATM    3  C6  UNL     1      38.729 110.905  56.072  1.00  0.00     0.007 C 
HETATM    4  C7  UNL     1      40.242 111.079  56.035  1.00  0.00     0.005 C 
HETATM    5  C8  UNL     1      40.835 110.690  54.730  1.00  0.00    -0.003 C 
HETATM    6  C9  UNL     1      41.884 109.592  54.827  1.00  0.00     0.025 C 
HETATM    7  C10 UNL     1      42.838 109.760  55.945  1.00  0.00     0.125 C 
HETATM    8  C13 UNL     1      42.262 110.401  57.153  1.00  0.00     0.146 C 
HETATM    9  O4  UNL     1      42.967 110.877  58.021  1.00  0.00    -0.296 OA
HETATM   10  C14 UNL     1      40.797 110.437  57.256  1.00  0.00     0.018 C 
HETATM   11  C15 UNL     1      40.190 109.105  57.609  1.00  0.00     0.023 C 
HETATM   12  C16 UNL     1      40.436 111.349  58.444  1.00  0.00     0.023 C 
HETATM   13  C17 UNL     1      39.905 110.302  53.653  1.00  0.00     0.009 C 
HETATM   14  C18 UNL     1      39.610 108.818  53.566  1.00  0.00     0.016 C 
HETATM   15  C19 UNL     1      38.391 108.816  52.700  1.00  0.00    -0.029 C 
HETATM   16  C20 UNL     1      38.778 109.033  51.261  1.00  0.00     0.016 C 
HETATM   17  C21 UNL     1      37.633 109.968  53.285  1.00  0.00     0.041 C 
HETATM   18  C22 UNL     1      36.442 110.212  52.465  1.00  0.00     0.124 C 
HETATM   19  C23 UNL     1      35.832 109.040  51.823  1.00  0.00     0.038 C 
HETATM   20  C24 UNL     1      36.232 107.661  52.211  1.00  0.00     0.005 C 
HETATM   21  C25 UNL     1      35.149 106.933  52.985  1.00  0.00    -0.035 C 
HETATM   22  C26 UNL     1      34.577 107.729  54.102  1.00  0.00     0.016 C 
HETATM   23  C27 UNL     1      34.035 106.640  51.996  1.00  0.00     0.012 C 
HETATM   24  C28 UNL     1      32.912 105.867  52.627  1.00  0.00     0.033 C 
HETATM   25  C29 UNL     1      33.428 104.534  53.019  1.00  0.00     0.126 C 
HETATM   26  C30 UNL     1      34.752 104.518  53.715  1.00  0.00    -0.017 C 
HETATM   27  C31 UNL     1      34.498 104.283  55.186  1.00  0.00     0.018 C 
HETATM   28  C32 UNL     1      35.401 103.182  53.268  1.00  0.00     0.018 C 
HETATM   29  C33 UNL     1      35.702 105.587  53.368  1.00  0.00     0.004 C 
HETATM   30  C34 UNL     1      36.736 105.809  54.420  1.00  0.00     0.007 C 
HETATM   31  C35 UNL     1      37.644 106.977  54.187  1.00  0.00     0.011 C 
HETATM   32  C36 UNL     1      37.615 107.516  52.776  1.00  0.00    -0.032 C 
HETATM   33  C37 UNL     1      38.481 106.525  51.966  1.00  0.00     0.016 C 
ENDROOT
BRANCH   1  34
HETATM   34  C3  UNL     1      38.700 112.157  52.596  1.00  0.00     0.233 C 
HETATM   35  N1  UNL     1      39.750 112.343  51.669  1.00  0.00    -0.297 N 
HETATM   36  C2  UNL     1      39.816 113.429  50.779  1.00  0.00     0.220 C 
ATOM     37  H1  UNL     1      40.501 111.653  51.645  1.00  0.00     0.171 HD
HETATM   38  C1  UNL     1      38.787 114.473  50.734  1.00  0.00     0.117 C 
HETATM   39  O1  UNL     1      40.800 113.536  49.963  1.00  0.00    -0.274 OA
HETATM   40  O2  UNL     1      37.794 113.018  52.585  1.00  0.00    -0.272 OA
ENDBRANCH   1  34
BRANCH  18  41
HETATM   41  O5  UNL     1      35.484 110.824  53.323  1.00  0.00    -0.395 OA
ATOM     42  H5  UNL     1      35.901 110.907  54.173  1.00  0.00     0.210 HD
ENDBRANCH  18  41
BRANCH   7  43
HETATM   43  C11 UNL     1      44.111 110.445  55.529  1.00  0.00     0.134 C 
HETATM   44  C12 UNL     1      45.436 109.928  55.965  1.00  0.00     0.091 C 
HETATM   45  O3  UNL     1      44.105 111.440  54.825  1.00  0.00    -0.298 OA
ENDBRANCH   7  43
BRANCH  25  46
HETATM   46  O6  UNL     1      32.451 103.918  53.830  1.00  0.00    -0.395 OA
ATOM     47  H6  UNL     1      31.752 104.546  53.966  1.00  0.00     0.210 HD
ENDBRANCH  25  46
TORSDOF 4
ENDMDL
MODEL 4
REMARK VINA RESULT: -8.636233569      2.619      7.654
REMARK  4 active torsions:
REMARK  status: ('A' for Active; 'I' for Inactive)
REMARK       I    between atoms: C2_2  and  N1_4 
REMARK       I    between atoms: N1_4  and  C3_6 
REMARK    1  A    between atoms: C3_6  and  C4_8 
REMARK    2  A    between atoms: C10_14  and  C11_15 
REMARK    3  A    between atoms: C22_28  and  O5_29 
REMARK    4  A    between atoms: C29_37  and  O6_38 
ROOT
HETATM    1  C4  UNL     1      38.817 109.998  53.253  1.00  0.00     0.052 C 
HETATM    2  C5  UNL     1      39.193 109.054  52.120  1.00  0.00     0.020 C 
HETATM    3  C6  UNL     1      38.717 107.645  52.371  1.00  0.00     0.007 C 
HETATM    4  C7  UNL     1      37.205 107.731  52.204  1.00  0.00     0.005 C 
HETATM    5  C8  UNL     1      36.587 108.765  53.074  1.00  0.00    -0.003 C 
HETATM    6  C9  UNL     1      35.529 108.226  54.026  1.00  0.00     0.025 C 
HETATM    7  C10 UNL     1      34.595 107.257  53.410  1.00  0.00     0.125 C 
HETATM    8  C13 UNL     1      35.197 106.413  52.349  1.00  0.00     0.146 C 
HETATM    9  O4  UNL     1      34.510 105.800  51.555  1.00  0.00    -0.296 OA
HETATM   10  C14 UNL     1      36.664 106.349  52.296  1.00  0.00     0.018 C 
HETATM   11  C15 UNL     1      37.264 105.500  53.385  1.00  0.00     0.023 C 
HETATM   12  C16 UNL     1      37.053 105.629  50.991  1.00  0.00     0.023 C 
HETATM   13  C17 UNL     1      37.496 109.607  53.874  1.00  0.00     0.009 C 
HETATM   14  C18 UNL     1      37.775 109.096  55.273  1.00  0.00     0.016 C 
HETATM   15  C19 UNL     1      38.980 109.903  55.640  1.00  0.00    -0.029 C 
HETATM   16  C20 UNL     1      38.572 111.305  56.010  1.00  0.00     0.016 C 
HETATM   17  C21 UNL     1      39.758 109.836  54.362  1.00  0.00     0.041 C 
HETATM   18  C22 UNL     1      40.939 110.699  54.484  1.00  0.00     0.124 C 
HETATM   19  C23 UNL     1      41.526 110.825  55.823  1.00  0.00     0.038 C 
HETATM   20  C24 UNL     1      41.121 109.913  56.926  1.00  0.00     0.005 C 
HETATM   21  C25 UNL     1      42.209 108.924  57.300  1.00  0.00    -0.035 C 
HETATM   22  C26 UNL     1      42.806 108.226  56.133  1.00  0.00     0.016 C 
HETATM   23  C27 UNL     1      43.304 109.726  57.981  1.00  0.00     0.012 C 
HETATM   24  C28 UNL     1      44.430 108.851  58.454  1.00  0.00     0.033 C 
HETATM   25  C29 UNL     1      43.908 107.953  59.511  1.00  0.00     0.126 C 
HETATM   26  C30 UNL     1      42.595 107.294  59.228  1.00  0.00    -0.017 C 
HETATM   27  C31 UNL     1      42.871 105.855  58.859  1.00  0.00     0.018 C 
HETATM   28  C32 UNL     1      41.926 107.162  60.621  1.00  0.00     0.018 C 
HETATM   29  C33 UNL     1      41.649 108.029  58.373  1.00  0.00     0.004 C 
HETATM   30  C34 UNL     1      40.635 107.142  57.733  1.00  0.00     0.007 C 
HETATM   31  C35 UNL     1      39.734 107.813  56.742  1.00  0.00     0.011 C 
HETATM   32  C36 UNL     1      39.746 109.322  56.812  1.00  0.00    -0.032 C 
HETATM   33  C37 UNL     1      38.857 109.658  58.031  1.00  0.00     0.016 C 
ENDROOT
BRANCH   1  34
HETATM   34  C3  UNL     1      38.701 111.331  52.615  1.00  0.00     0.233 C 
HETATM   35  N1  UNL     1      37.696 112.288  52.883  1.00  0.00    -0.297 N 
HETATM   36  C2  UNL     1      37.623 113.536  52.239  1.00  0.00     0.220 C 
ATOM     37  H1  UNL     1      36.988 112.062  53.580  1.00  0.00     0.171 HD
HETATM   38  C1  UNL     1      38.594 113.957  51.224  1.00  0.00     0.117 C 
HETATM   39  O1  UNL     1      36.682 114.358  52.531  1.00  0.00    -0.274 OA
HETATM   40  O2  UNL     1      39.557 111.653  51.763  1.00  0.00    -0.272 OA
ENDBRANCH   1  34
BRANCH  18  41
HETATM   41  O5  UNL     1      41.916 110.168  53.594  1.00  0.00    -0.395 OA
ATOM     42  H5  UNL     1      41.457 109.561  53.025  1.00  0.00     0.210 HD
ENDBRANCH  18  41
BRANCH   7  43
HETATM   43  C11 UNL     1      33.323 107.898  52.930  1.00  0.00     0.134 C 
HETATM   44  C12 UNL     1      33.354 109.079  52.024  1.00  0.00     0.091 C 
HETATM   45  O3  UNL     1      32.227 107.479  53.261  1.00  0.00    -0.298 OA
ENDBRANCH   7  43
BRANCH  25  46
HETATM   46  O6  UNL     1      44.892 106.974  59.766  1.00  0.00    -0.395 OA
ATOM     47  H6  UNL     1      45.035 106.493  58.960  1.00  0.00     0.210 HD
ENDBRANCH  25  46
TORSDOF 4
ENDMDL
MODEL 5
REMARK VINA RESULT: -8.583603084      2.520      3.323
REMARK  4 active torsions:
REMARK  status: ('A' for Active; 'I' for Inactive)
REMARK       I    between atoms: C2_2  and  N1_4 
REMARK       I    between atoms: N1_4  and  C3_6 
REMARK    1  A    between atoms: C3_6  and  C4_8 
REMARK    2  A    between atoms: C10_14  and  C11_15 
REMARK    3  A    between atoms: C22_28  and  O5_29 
REMARK    4  A    between atoms: C29_37  and  O6_38 
ROOT
HETATM    1  C4  UNL     1      37.456 108.125  53.323  1.00  0.00     0.052 C 
HETATM    2  C5  UNL     1      36.912 109.004  54.440  1.00  0.00     0.020 C 
HETATM    3  C6  UNL     1      37.203 108.432  55.806  1.00  0.00     0.007 C 
HETATM    4  C7  UNL     1      38.705 108.625  55.974  1.00  0.00     0.005 C 
HETATM    5  C8  UNL     1      39.491 108.024  54.864  1.00  0.00    -0.003 C 
HETATM    6  C9  UNL     1      40.502 106.980  55.313  1.00  0.00     0.025 C 
HETATM    7  C10 UNL     1      41.271 107.358  56.518  1.00  0.00     0.125 C 
HETATM    8  C13 UNL     1      40.520 108.189  57.492  1.00  0.00     0.146 C 
HETATM    9  O4  UNL     1      41.087 108.821  58.361  1.00  0.00    -0.296 OA
HETATM   10  C14 UNL     1      39.057 108.215  57.360  1.00  0.00     0.018 C 
HETATM   11  C15 UNL     1      38.391 106.955  57.842  1.00  0.00     0.023 C 
HETATM   12  C16 UNL     1      38.524 109.314  58.299  1.00  0.00     0.023 C 
HETATM   13  C17 UNL     1      38.735 107.438  53.741  1.00  0.00     0.009 C 
HETATM   14  C18 UNL     1      38.444 105.957  53.871  1.00  0.00     0.016 C 
HETATM   15  C19 UNL     1      37.374 105.781  52.841  1.00  0.00    -0.029 C 
HETATM   16  C20 UNL     1      37.982 105.751  51.463  1.00  0.00     0.016 C 
HETATM   17  C21 UNL     1      36.545 107.003  53.091  1.00  0.00     0.041 C 
HETATM   18  C22 UNL     1      35.498 107.079  52.066  1.00  0.00     0.124 C 
HETATM   19  C23 UNL     1      34.985 105.803  51.554  1.00  0.00     0.038 C 
HETATM   20  C24 UNL     1      35.306 104.519  52.234  1.00  0.00     0.005 C 
HETATM   21  C25 UNL     1      34.110 103.918  52.947  1.00  0.00    -0.035 C 
HETATM   22  C26 UNL     1      33.378 104.886  53.805  1.00  0.00     0.016 C 
HETATM   23  C27 UNL     1      33.161 103.436  51.864  1.00  0.00     0.012 C 
HETATM   24  C28 UNL     1      31.946 102.765  52.439  1.00  0.00     0.033 C 
HETATM   25  C29 UNL     1      32.382 101.531  53.134  1.00  0.00     0.126 C 
HETATM   26  C30 UNL     1      33.582 101.660  54.017  1.00  0.00    -0.017 C 
HETATM   27  C31 UNL     1      33.100 101.681  55.450  1.00  0.00     0.018 C 
HETATM   28  C32 UNL     1      34.281 100.279  53.917  1.00  0.00     0.018 C 
HETATM   29  C33 UNL     1      34.585 102.669  53.640  1.00  0.00     0.004 C 
HETATM   30  C34 UNL     1      35.444 103.090  54.784  1.00  0.00     0.007 C 
HETATM   31  C35 UNL     1      36.388 104.217  54.493  1.00  0.00     0.011 C 
HETATM   32  C36 UNL     1      36.583 104.501  53.023  1.00  0.00    -0.032 C 
HETATM   33  C37 UNL     1      37.556 103.400  52.543  1.00  0.00     0.016 C 
ENDROOT
BRANCH   1  34
HETATM   34  C3  UNL     1      37.726 109.058  52.203  1.00  0.00     0.233 C 
HETATM   35  N1  UNL     1      36.854 110.070  51.744  1.00  0.00    -0.297 N 
HETATM   36  C2  UNL     1      37.154 110.922  50.666  1.00  0.00     0.220 C 
ATOM     37  H1  UNL     1      35.960 110.190  52.219  1.00  0.00     0.171 HD
HETATM   38  C1  UNL     1      38.412 110.833  49.918  1.00  0.00     0.117 C 
HETATM   39  O1  UNL     1      36.314 111.821  50.301  1.00  0.00    -0.274 OA
HETATM   40  O2  UNL     1      38.817 108.953  51.601  1.00  0.00    -0.272 OA
ENDBRANCH   1  34
BRANCH  18  41
HETATM   41  O5  UNL     1      34.424 107.814  52.646  1.00  0.00    -0.395 OA
ATOM     42  H5  UNL     1      34.639 107.921  53.565  1.00  0.00     0.210 HD
ENDBRANCH  18  41
BRANCH   7  43
HETATM   43  C11 UNL     1      42.600 107.982  56.191  1.00  0.00     0.134 C 
HETATM   44  C12 UNL     1      43.873 107.340  56.614  1.00  0.00     0.091 C 
HETATM   45  O3  UNL     1      42.682 109.029  55.572  1.00  0.00    -0.298 OA
ENDBRANCH   7  43
BRANCH  25  46
HETATM   46  O6  UNL     1      31.286 101.048  53.879  1.00  0.00    -0.395 OA
ATOM     47  H6  UNL     1      30.496 101.239  53.387  1.00  0.00     0.210 HD
ENDBRANCH  25  46
TORSDOF 4
ENDMDL
