MODEL 1
REMARK VINA RESULT: -10.937664544      0.000      0.000
REMARK  8 active torsions:
REMARK  status: ('A' for Active; 'I' for Inactive)
REMARK    1  A    between atoms: C4_4  and  O1_5 
REMARK    2  A    between atoms: C20_22  and  N1_23 
REMARK    3  A    between atoms: C23_26  and  C24_27 
REMARK    4  A    between atoms: C24_27  and  C25_28 
REMARK       I    between atoms: C25_28  and  N2_30 
REMARK    5  A    between atoms: N2_30  and  C26_32 
REMARK    6  A    between atoms: C26_32  and  O3_33 
REMARK    7  A    between atoms: C26_32  and  N3_35 
REMARK    8  A    between atoms: C30_40  and  O5_41 
ROOT
HETATM    1  C1  UNL     1      38.108 122.186  48.437  1.00  0.00     0.018 C 
HETATM    2  C2  UNL     1      39.138 122.025  49.562  1.00  0.00    -0.018 C 
HETATM    3  C3  UNL     1      40.389 122.737  49.031  1.00  0.00     0.018 C 
HETATM    4  C4  UNL     1      38.667 122.676  50.751  1.00  0.00     0.126 C 
HETATM    5  C5  UNL     1      39.152 122.148  52.090  1.00  0.00     0.033 C 
HETATM    6  C6  UNL     1      38.484 120.867  52.418  1.00  0.00     0.012 C 
HETATM    7  C7  UNL     1      39.225 119.583  52.145  1.00  0.00    -0.036 C 
HETATM    8  C8  UNL     1      39.379 118.985  53.548  1.00  0.00     0.016 C 
HETATM    9  C9  UNL     1      40.659 119.785  51.741  1.00  0.00     0.010 C 
HETATM   10  C10 UNL     1      40.731 120.268  50.366  1.00  0.00     0.007 C 
HETATM   11  C11 UNL     1      39.450 120.521  49.655  1.00  0.00     0.001 C 
HETATM   12  C12 UNL     1      38.269 119.715  49.984  1.00  0.00    -0.000 C 
HETATM   13  C13 UNL     1      37.990 118.800  48.780  1.00  0.00     0.006 C 
HETATM   14  C14 UNL     1      39.003 117.756  49.020  1.00  0.00     0.007 C 
HETATM   15  C15 UNL     1      38.993 117.560  50.544  1.00  0.00     0.004 C 
HETATM   16  C16 UNL     1      38.525 116.205  50.915  1.00  0.00    -0.032 C 
HETATM   17  C17 UNL     1      39.522 115.633  51.932  1.00  0.00     0.016 C 
HETATM   18  C18 UNL     1      38.561 115.170  49.788  1.00  0.00     0.016 C 
HETATM   19  C19 UNL     1      38.442 113.775  50.324  1.00  0.00     0.053 C 
HETATM   20  C20 UNL     1      37.696 113.566  51.584  1.00  0.00    -0.013 C 
HETATM   21  C31 UNL     1      36.985 114.716  52.162  1.00  0.00     0.062 C 
HETATM   22  C32 UNL     1      37.141 116.045  51.440  1.00  0.00    -0.031 C 
HETATM   23  C33 UNL     1      35.992 116.198  50.536  1.00  0.00     0.016 C 
HETATM   24  C34 UNL     1      36.988 117.147  52.497  1.00  0.00     0.011 C 
HETATM   25  C35 UNL     1      37.115 118.499  51.885  1.00  0.00     0.012 C 
HETATM   26  C36 UNL     1      38.423 118.752  51.178  1.00  0.00    -0.025 C 
ENDROOT
BRANCH  20  27
HETATM   27  N1  UNL     1      36.960 112.296  51.602  1.00  0.00    -0.361 N 
HETATM   28  C21 UNL     1      36.503 111.991  52.927  1.00  0.00     0.125 C 
HETATM   29  C22 UNL     1      35.405 110.937  52.841  1.00  0.00     0.025 C 
HETATM   30  C23 UNL     1      35.899 109.777  52.043  1.00  0.00    -0.000 C 
HETATM   31  C29 UNL     1      36.182 110.275  50.632  1.00  0.00     0.059 C 
HETATM   32  C30 UNL     1      37.366 111.260  50.790  1.00  0.00     0.220 C 
BRANCH  30  33
HETATM   33  C24 UNL     1      35.095 108.541  52.075  1.00  0.00     0.108 C 
BRANCH  33  34
HETATM   34  C25 UNL     1      35.807 107.295  51.674  1.00  0.00     0.225 C 
HETATM   35  O2  UNL     1      35.169 106.427  51.063  1.00  0.00    -0.273 OA
HETATM   36  N2  UNL     1      37.168 107.115  51.984  1.00  0.00    -0.291 N 
ATOM     37  H2  UNL     1      37.617 107.882  52.485  1.00  0.00     0.172 HD
BRANCH  36  38
HETATM   38  C26 UNL     1      37.979 106.023  51.693  1.00  0.00     0.246 C 
BRANCH  38  39
HETATM   39  O3  UNL     1      38.176 105.826  50.410  1.00  0.00    -0.331 OA
ATOM     40  H3  UNL     1      38.354 104.922  50.178  1.00  0.00     0.221 HD
ENDBRANCH  38  39
BRANCH  38  41
HETATM   41  N3  UNL     1      38.601 105.125  52.564  1.00  0.00    -0.219 N 
HETATM   42  C27 UNL     1      39.091 105.221  53.963  1.00  0.00     0.188 C 
HETATM   43  C28 UNL     1      40.077 104.187  53.455  1.00  0.00     0.224 C 
HETATM   44  O4  UNL     1      39.025 103.860  52.578  1.00  0.00    -0.273 OA
ENDBRANCH  38  41
ENDBRANCH  36  38
ENDBRANCH  33  34
ENDBRANCH  30  33
BRANCH  32  45
HETATM   45  O5  UNL     1      38.384 110.442  51.339  1.00  0.00    -0.377 OA
ATOM     46  H5  UNL     1      38.135 109.975  52.129  1.00  0.00     0.212 HD
ENDBRANCH  32  45
ENDBRANCH  20  27
BRANCH   4  47
HETATM   47  O1  UNL     1      38.980 124.038  50.722  1.00  0.00    -0.395 OA
ATOM     48  H1  UNL     1      38.370 124.509  50.167  1.00  0.00     0.210 HD
ENDBRANCH   4  47
TORSDOF 8
ENDMDL
MODEL 2
REMARK VINA RESULT: -10.843147596      2.099      2.529
REMARK  8 active torsions:
REMARK  status: ('A' for Active; 'I' for Inactive)
REMARK    1  A    between atoms: C4_4  and  O1_5 
REMARK    2  A    between atoms: C20_22  and  N1_23 
REMARK    3  A    between atoms: C23_26  and  C24_27 
REMARK    4  A    between atoms: C24_27  and  C25_28 
REMARK       I    between atoms: C25_28  and  N2_30 
REMARK    5  A    between atoms: N2_30  and  C26_32 
REMARK    6  A    between atoms: C26_32  and  O3_33 
REMARK    7  A    between atoms: C26_32  and  N3_35 
REMARK    8  A    between atoms: C30_40  and  O5_41 
ROOT
HETATM    1  C1  UNL     1      38.382 121.665  48.376  1.00  0.00     0.018 C 
HETATM    2  C2  UNL     1      39.160 121.655  49.697  1.00  0.00    -0.018 C 
HETATM    3  C3  UNL     1      40.352 122.587  49.438  1.00  0.00     0.018 C 
HETATM    4  C4  UNL     1      38.341 122.183  50.750  1.00  0.00     0.126 C 
HETATM    5  C5  UNL     1      38.616 121.712  52.168  1.00  0.00     0.033 C 
HETATM    6  C6  UNL     1      38.128 120.327  52.360  1.00  0.00     0.012 C 
HETATM    7  C7  UNL     1      39.122 119.198  52.267  1.00  0.00    -0.036 C 
HETATM    8  C8  UNL     1      39.077 118.599  53.678  1.00  0.00     0.016 C 
HETATM    9  C9  UNL     1      40.551 119.656  52.176  1.00  0.00     0.010 C 
HETATM   10  C10 UNL     1      40.829 120.179  50.843  1.00  0.00     0.007 C 
HETATM   11  C11 UNL     1      39.703 120.226  49.872  1.00  0.00     0.001 C 
HETATM   12  C12 UNL     1      38.640 119.219  49.950  1.00  0.00    -0.000 C 
HETATM   13  C13 UNL     1      38.787 118.302  48.725  1.00  0.00     0.006 C 
HETATM   14  C14 UNL     1      39.892 117.443  49.188  1.00  0.00     0.007 C 
HETATM   15  C15 UNL     1      39.593 117.208  50.677  1.00  0.00     0.004 C 
HETATM   16  C16 UNL     1      39.301 115.783  50.955  1.00  0.00    -0.032 C 
HETATM   17  C17 UNL     1      40.143 115.366  52.168  1.00  0.00     0.016 C 
HETATM   18  C18 UNL     1      39.756 114.800  49.873  1.00  0.00     0.016 C 
HETATM   19  C19 UNL     1      39.772 113.391  50.388  1.00  0.00     0.053 C 
HETATM   20  C20 UNL     1      38.823 113.024  51.462  1.00  0.00    -0.013 C 
HETATM   21  C31 UNL     1      37.815 114.017  51.861  1.00  0.00     0.062 C 
HETATM   22  C32 UNL     1      37.887 115.372  51.174  1.00  0.00    -0.031 C 
HETATM   23  C33 UNL     1      36.948 115.348  50.043  1.00  0.00     0.016 C 
HETATM   24  C34 UNL     1      37.322 116.403  52.160  1.00  0.00     0.011 C 
HETATM   25  C35 UNL     1      37.338 117.772  51.574  1.00  0.00     0.012 C 
HETATM   26  C36 UNL     1      38.702 118.266  51.160  1.00  0.00    -0.025 C 
ENDROOT
BRANCH  20  27
HETATM   27  N1  UNL     1      38.334 111.645  51.337  1.00  0.00    -0.361 N 
HETATM   28  C21 UNL     1      37.065 111.613  50.669  1.00  0.00     0.125 C 
HETATM   29  C22 UNL     1      36.803 110.195  50.174  1.00  0.00     0.025 C 
HETATM   30  C23 UNL     1      36.961 109.242  51.311  1.00  0.00    -0.000 C 
HETATM   31  C29 UNL     1      38.408 109.314  51.775  1.00  0.00     0.059 C 
HETATM   32  C30 UNL     1      38.568 110.743  52.350  1.00  0.00     0.220 C 
BRANCH  30  33
HETATM   33  C24 UNL     1      36.481 107.862  51.108  1.00  0.00     0.108 C 
BRANCH  33  34
HETATM   34  C25 UNL     1      35.229 107.500  51.830  1.00  0.00     0.225 C 
HETATM   35  O2  UNL     1      34.793 108.291  52.677  1.00  0.00    -0.273 OA
HETATM   36  N2  UNL     1      34.564 106.290  51.553  1.00  0.00    -0.291 N 
ATOM     37  H2  UNL     1      34.990 105.701  50.838  1.00  0.00     0.172 HD
BRANCH  36  38
HETATM   38  C26 UNL     1      33.399 105.797  52.132  1.00  0.00     0.246 C 
BRANCH  38  39
HETATM   39  O3  UNL     1      32.411 106.661  52.168  1.00  0.00    -0.331 OA
ATOM     40  H3  UNL     1      32.357 107.157  52.976  1.00  0.00     0.221 HD
ENDBRANCH  38  39
BRANCH  38  41
HETATM   41  N3  UNL     1      33.143 104.534  52.668  1.00  0.00    -0.219 N 
HETATM   42  C27 UNL     1      33.160 103.977  54.045  1.00  0.00     0.188 C 
HETATM   43  C28 UNL     1      33.531 102.714  53.293  1.00  0.00     0.224 C 
HETATM   44  O4  UNL     1      32.790 103.314  52.257  1.00  0.00    -0.273 OA
ENDBRANCH  38  41
ENDBRANCH  36  38
ENDBRANCH  33  34
ENDBRANCH  30  33
BRANCH  32  45
HETATM   45  O5  UNL     1      37.614 110.768  53.397  1.00  0.00    -0.377 OA
ATOM     46  H5  UNL     1      36.918 110.127  53.315  1.00  0.00     0.212 HD
ENDBRANCH  32  45
ENDBRANCH  20  27
BRANCH   4  47
HETATM   47  O1  UNL     1      38.411 123.579  50.773  1.00  0.00    -0.395 OA
ATOM     48  H1  UNL     1      38.019 123.920  51.569  1.00  0.00     0.210 HD
ENDBRANCH   4  47
TORSDOF 8
ENDMDL
MODEL 3
REMARK VINA RESULT: -10.731185487      2.272      2.723
REMARK  8 active torsions:
REMARK  status: ('A' for Active; 'I' for Inactive)
REMARK    1  A    between atoms: C4_4  and  O1_5 
REMARK    2  A    between atoms: C20_22  and  N1_23 
REMARK    3  A    between atoms: C23_26  and  C24_27 
REMARK    4  A    between atoms: C24_27  and  C25_28 
REMARK       I    between atoms: C25_28  and  N2_30 
REMARK    5  A    between atoms: N2_30  and  C26_32 
REMARK    6  A    between atoms: C26_32  and  O3_33 
REMARK    7  A    between atoms: C26_32  and  N3_35 
REMARK    8  A    between atoms: C30_40  and  O5_41 
ROOT
HETATM    1  C1  UNL     1      38.175 121.830  48.406  1.00  0.00     0.018 C 
HETATM    2  C2  UNL     1      39.090 121.777  49.634  1.00  0.00    -0.018 C 
HETATM    3  C3  UNL     1      40.316 122.604  49.227  1.00  0.00     0.018 C 
HETATM    4  C4  UNL     1      38.435 122.386  50.757  1.00  0.00     0.126 C 
HETATM    5  C5  UNL     1      38.824 121.916  52.148  1.00  0.00     0.033 C 
HETATM    6  C6  UNL     1      38.251 120.578  52.424  1.00  0.00     0.012 C 
HETATM    7  C7  UNL     1      39.136 119.371  52.253  1.00  0.00    -0.036 C 
HETATM    8  C8  UNL     1      39.197 118.799  53.674  1.00  0.00     0.016 C 
HETATM    9  C9  UNL     1      40.579 119.709  51.998  1.00  0.00     0.010 C 
HETATM   10  C10 UNL     1      40.750 120.187  50.631  1.00  0.00     0.007 C 
HETATM   11  C11 UNL     1      39.533 120.311  49.784  1.00  0.00     0.001 C 
HETATM   12  C12 UNL     1      38.408 119.395  50.001  1.00  0.00    -0.000 C 
HETATM   13  C13 UNL     1      38.347 118.451  48.790  1.00  0.00     0.006 C 
HETATM   14  C14 UNL     1      39.424 117.512  49.152  1.00  0.00     0.007 C 
HETATM   15  C15 UNL     1      39.272 117.325  50.669  1.00  0.00     0.004 C 
HETATM   16  C16 UNL     1      38.899 115.933  51.011  1.00  0.00    -0.032 C 
HETATM   17  C17 UNL     1      39.833 115.467  52.137  1.00  0.00     0.016 C 
HETATM   18  C18 UNL     1      39.154 114.900  49.911  1.00  0.00     0.016 C 
HETATM   19  C19 UNL     1      39.114 113.502  50.455  1.00  0.00     0.053 C 
HETATM   20  C20 UNL     1      38.261 113.230  51.633  1.00  0.00    -0.013 C 
HETATM   21  C31 UNL     1      37.385 114.308  52.114  1.00  0.00     0.062 C 
HETATM   22  C32 UNL     1      37.489 115.642  51.390  1.00  0.00    -0.031 C 
HETATM   23  C33 UNL     1      36.434 115.677  50.368  1.00  0.00     0.016 C 
HETATM   24  C34 UNL     1      37.119 116.731  52.406  1.00  0.00     0.011 C 
HETATM   25  C35 UNL     1      37.180 118.085  51.789  1.00  0.00     0.012 C 
HETATM   26  C36 UNL     1      38.526 118.460  51.220  1.00  0.00    -0.025 C 
ENDROOT
BRANCH  20  27
HETATM   27  N1  UNL     1      37.654 111.894  51.594  1.00  0.00    -0.361 N 
HETATM   28  C21 UNL     1      36.523 111.874  50.712  1.00  0.00     0.125 C 
HETATM   29  C22 UNL     1      36.196 110.427  50.360  1.00  0.00     0.025 C 
HETATM   30  C23 UNL     1      36.051 109.637  51.617  1.00  0.00    -0.000 C 
HETATM   31  C29 UNL     1      37.396 109.653  52.329  1.00  0.00     0.059 C 
HETATM   32  C30 UNL     1      37.610 111.130  52.739  1.00  0.00     0.220 C 
BRANCH  30  33
HETATM   33  C24 UNL     1      35.466 108.288  51.504  1.00  0.00     0.108 C 
BRANCH  33  34
HETATM   34  C25 UNL     1      34.207 108.063  52.271  1.00  0.00     0.225 C 
HETATM   35  O2  UNL     1      33.253 108.825  52.064  1.00  0.00    -0.273 OA
HETATM   36  N2  UNL     1      34.112 107.013  53.203  1.00  0.00    -0.291 N 
ATOM     37  H2  UNL     1      34.944 106.432  53.307  1.00  0.00     0.172 HD
BRANCH  36  38
HETATM   38  C26 UNL     1      33.027 106.666  54.001  1.00  0.00     0.246 C 
BRANCH  38  39
HETATM   39  O3  UNL     1      31.870 107.088  53.546  1.00  0.00    -0.331 OA
ATOM     40  H3  UNL     1      31.536 107.860  53.988  1.00  0.00     0.221 HD
ENDBRANCH  38  39
BRANCH  38  41
HETATM   41  N3  UNL     1      33.001 105.945  55.196  1.00  0.00    -0.219 N 
HETATM   42  C27 UNL     1      32.993 106.330  56.631  1.00  0.00     0.188 C 
HETATM   43  C28 UNL     1      33.713 105.002  56.764  1.00  0.00     0.224 C 
HETATM   44  O4  UNL     1      32.973 104.677  55.611  1.00  0.00    -0.273 OA
ENDBRANCH  38  41
ENDBRANCH  36  38
ENDBRANCH  33  34
ENDBRANCH  30  33
BRANCH  32  45
HETATM   45  O5  UNL     1      36.498 111.386  53.579  1.00  0.00    -0.377 OA
ATOM     46  H5  UNL     1      36.720 111.598  54.478  1.00  0.00     0.212 HD
ENDBRANCH  32  45
ENDBRANCH  20  27
BRANCH   4  47
HETATM   47  O1  UNL     1      38.617 123.771  50.739  1.00  0.00    -0.395 OA
ATOM     48  H1  UNL     1      39.233 124.036  51.412  1.00  0.00     0.210 HD
ENDBRANCH   4  47
TORSDOF 8
ENDMDL
MODEL 4
REMARK VINA RESULT: -10.624133243      2.340      3.924
REMARK  8 active torsions:
REMARK  status: ('A' for Active; 'I' for Inactive)
REMARK    1  A    between atoms: C4_4  and  O1_5 
REMARK    2  A    between atoms: C20_22  and  N1_23 
REMARK    3  A    between atoms: C23_26  and  C24_27 
REMARK    4  A    between atoms: C24_27  and  C25_28 
REMARK       I    between atoms: C25_28  and  N2_30 
REMARK    5  A    between atoms: N2_30  and  C26_32 
REMARK    6  A    between atoms: C26_32  and  O3_33 
REMARK    7  A    between atoms: C26_32  and  N3_35 
REMARK    8  A    between atoms: C30_40  and  O5_41 
ROOT
HETATM    1  C1  UNL     1      40.664 120.090  53.299  1.00  0.00     0.018 C 
HETATM    2  C2  UNL     1      40.268 120.185  51.822  1.00  0.00    -0.018 C 
HETATM    3  C3  UNL     1      39.560 121.542  51.708  1.00  0.00     0.018 C 
HETATM    4  C4  UNL     1      41.445 120.174  51.000  1.00  0.00     0.126 C 
HETATM    5  C5  UNL     1      41.319 119.636  49.585  1.00  0.00     0.033 C 
HETATM    6  C6  UNL     1      41.202 118.160  49.597  1.00  0.00     0.012 C 
HETATM    7  C7  UNL     1      39.829 117.549  49.476  1.00  0.00    -0.036 C 
HETATM    8  C8  UNL     1      39.927 116.770  48.160  1.00  0.00     0.016 C 
HETATM    9  C9  UNL     1      38.748 118.545  49.161  1.00  0.00     0.010 C 
HETATM   10  C10 UNL     1      38.432 119.336  50.345  1.00  0.00     0.007 C 
HETATM   11  C11 UNL     1      39.224 119.082  51.578  1.00  0.00     0.001 C 
HETATM   12  C12 UNL     1      39.748 117.736  51.834  1.00  0.00    -0.000 C 
HETATM   13  C13 UNL     1      38.958 117.156  53.019  1.00  0.00     0.006 C 
HETATM   14  C14 UNL     1      37.726 116.747  52.320  1.00  0.00     0.007 C 
HETATM   15  C15 UNL     1      38.219 116.184  50.978  1.00  0.00     0.004 C 
HETATM   16  C16 UNL     1      37.933 114.736  50.857  1.00  0.00    -0.032 C 
HETATM   17  C17 UNL     1      37.284 114.505  49.485  1.00  0.00     0.016 C 
HETATM   18  C18 UNL     1      36.876 114.197  51.825  1.00  0.00     0.016 C 
HETATM   19  C19 UNL     1      36.378 112.849  51.393  1.00  0.00     0.053 C 
HETATM   20  C20 UNL     1      37.293 111.972  50.630  1.00  0.00    -0.013 C 
HETATM   21  C31 UNL     1      38.688 112.408  50.466  1.00  0.00     0.062 C 
HETATM   22  C32 UNL     1      39.048 113.768  51.043  1.00  0.00    -0.031 C 
HETATM   23  C33 UNL     1      39.611 113.549  52.383  1.00  0.00     0.016 C 
HETATM   24  C34 UNL     1      40.199 114.322  50.194  1.00  0.00     0.011 C 
HETATM   25  C35 UNL     1      40.637 115.658  50.688  1.00  0.00     0.012 C 
HETATM   26  C36 UNL     1      39.557 116.712  50.699  1.00  0.00    -0.025 C 
ENDROOT
BRANCH  20  27
HETATM   27  N1  UNL     1      37.110 110.551  50.948  1.00  0.00    -0.361 N 
HETATM   28  C21 UNL     1      38.375 109.879  51.026  1.00  0.00     0.125 C 
HETATM   29  C22 UNL     1      38.188 108.560  51.767  1.00  0.00     0.025 C 
HETATM   30  C23 UNL     1      37.084 107.788  51.125  1.00  0.00    -0.000 C 
HETATM   31  C29 UNL     1      35.805 108.597  51.282  1.00  0.00     0.059 C 
HETATM   32  C30 UNL     1      36.033 109.868  50.428  1.00  0.00     0.220 C 
BRANCH  30  33
HETATM   33  C24 UNL     1      36.932 106.374  51.514  1.00  0.00     0.108 C 
BRANCH  33  34
HETATM   34  C25 UNL     1      35.629 106.013  52.143  1.00  0.00     0.225 C 
HETATM   35  O2  UNL     1      35.488 106.221  53.356  1.00  0.00    -0.273 OA
HETATM   36  N2  UNL     1      34.592 105.452  51.374  1.00  0.00    -0.291 N 
ATOM     37  H2  UNL     1      34.793 105.320  50.383  1.00  0.00     0.172 HD
BRANCH  36  38
HETATM   38  C26 UNL     1      33.328 105.055  51.796  1.00  0.00     0.246 C 
BRANCH  38  39
HETATM   39  O3  UNL     1      32.381 105.931  51.552  1.00  0.00    -0.331 OA
ATOM     40  H3  UNL     1      31.561 105.752  51.998  1.00  0.00     0.221 HD
ENDBRANCH  38  39
BRANCH  38  41
HETATM   41  N3  UNL     1      32.936 103.874  52.430  1.00  0.00    -0.219 N 
HETATM   42  C27 UNL     1      32.873 103.440  53.850  1.00  0.00     0.188 C 
HETATM   43  C28 UNL     1      33.127 102.086  53.217  1.00  0.00     0.224 C 
HETATM   44  O4  UNL     1      32.468 102.664  52.115  1.00  0.00    -0.273 OA
ENDBRANCH  38  41
ENDBRANCH  36  38
ENDBRANCH  33  34
ENDBRANCH  30  33
BRANCH  32  45
HETATM   45  O5  UNL     1      36.237 109.340  49.129  1.00  0.00    -0.377 OA
ATOM     46  H5  UNL     1      36.718 109.910  48.540  1.00  0.00     0.212 HD
ENDBRANCH  32  45
ENDBRANCH  20  27
BRANCH   4  47
HETATM   47  O1  UNL     1      41.981 121.459  50.892  1.00  0.00    -0.395 OA
ATOM     48  H1  UNL     1      42.693 121.578  51.511  1.00  0.00     0.210 HD
ENDBRANCH   4  47
TORSDOF 8
ENDMDL
MODEL 5
REMARK VINA RESULT: -10.574143410      3.447      5.451
REMARK  8 active torsions:
REMARK  status: ('A' for Active; 'I' for Inactive)
REMARK    1  A    between atoms: C4_4  and  O1_5 
REMARK    2  A    between atoms: C20_22  and  N1_23 
REMARK    3  A    between atoms: C23_26  and  C24_27 
REMARK    4  A    between atoms: C24_27  and  C25_28 
REMARK       I    between atoms: C25_28  and  N2_30 
REMARK    5  A    between atoms: N2_30  and  C26_32 
REMARK    6  A    between atoms: C26_32  and  O3_33 
REMARK    7  A    between atoms: C26_32  and  N3_35 
REMARK    8  A    between atoms: C30_40  and  O5_41 
ROOT
HETATM    1  C1  UNL     1      36.556 118.209  51.201  1.00  0.00     0.018 C 
HETATM    2  C2  UNL     1      37.865 117.859  50.484  1.00  0.00    -0.018 C 
HETATM    3  C3  UNL     1      37.862 118.754  49.237  1.00  0.00     0.018 C 
HETATM    4  C4  UNL     1      38.983 118.187  51.322  1.00  0.00     0.126 C 
HETATM    5  C5  UNL     1      40.267 117.396  51.136  1.00  0.00     0.033 C 
HETATM    6  C6  UNL     1      40.126 116.034  51.700  1.00  0.00     0.012 C 
HETATM    7  C7  UNL     1      39.815 114.898  50.760  1.00  0.00    -0.036 C 
HETATM    8  C8  UNL     1      41.052 114.004  50.899  1.00  0.00     0.016 C 
HETATM    9  C9  UNL     1      39.876 115.280  49.307  1.00  0.00     0.010 C 
HETATM   10  C10 UNL     1      38.705 116.070  48.944  1.00  0.00     0.007 C 
HETATM   11  C11 UNL     1      37.732 116.398  50.021  1.00  0.00     0.001 C 
HETATM   12  C12 UNL     1      37.547 115.463  51.136  1.00  0.00    -0.000 C 
HETATM   13  C13 UNL     1      36.153 114.835  50.980  1.00  0.00     0.006 C 
HETATM   14  C14 UNL     1      36.447 113.831  49.941  1.00  0.00     0.007 C 
HETATM   15  C15 UNL     1      37.834 113.288  50.318  1.00  0.00     0.004 C 
HETATM   16  C16 UNL     1      37.774 111.857  50.693  1.00  0.00    -0.032 C 
HETATM   17  C17 UNL     1      38.890 111.131  49.928  1.00  0.00     0.016 C 
HETATM   18  C18 UNL     1      36.515 111.115  50.239  1.00  0.00     0.016 C 
HETATM   19  C19 UNL     1      36.700 109.628  50.316  1.00  0.00     0.053 C 
HETATM   20  C20 UNL     1      37.632 109.087  51.330  1.00  0.00    -0.013 C 
HETATM   21  C31 UNL     1      38.211 110.024  52.304  1.00  0.00     0.062 C 
HETATM   22  C32 UNL     1      37.849 111.491  52.134  1.00  0.00    -0.031 C 
HETATM   23  C33 UNL     1      36.711 111.774  53.021  1.00  0.00     0.016 C 
HETATM   24  C34 UNL     1      39.023 112.308  52.690  1.00  0.00     0.011 C 
HETATM   25  C35 UNL     1      38.760 113.770  52.580  1.00  0.00     0.012 C 
HETATM   26  C36 UNL     1      38.513 114.263  51.176  1.00  0.00    -0.025 C 
ENDROOT
BRANCH  20  27
HETATM   27  N1  UNL     1      37.184 107.802  51.881  1.00  0.00    -0.361 N 
HETATM   28  C21 UNL     1      37.188 106.785  50.869  1.00  0.00     0.125 C 
HETATM   29  C22 UNL     1      37.150 105.418  51.543  1.00  0.00     0.025 C 
HETATM   30  C23 UNL     1      36.007 105.374  52.500  1.00  0.00    -0.000 C 
HETATM   31  C29 UNL     1      36.267 106.419  53.577  1.00  0.00     0.059 C 
HETATM   32  C30 UNL     1      36.193 107.777  52.837  1.00  0.00     0.220 C 
BRANCH  30  33
HETATM   33  C24 UNL     1      35.630 104.057  53.045  1.00  0.00     0.108 C 
BRANCH  33  34
HETATM   34  C25 UNL     1      34.167 103.809  53.185  1.00  0.00     0.225 C 
HETATM   35  O2  UNL     1      33.386 104.584  52.616  1.00  0.00    -0.273 OA
HETATM   36  N2  UNL     1      33.691 102.724  53.944  1.00  0.00    -0.291 N 
ATOM     37  H2  UNL     1      34.404 102.134  54.374  1.00  0.00     0.172 HD
BRANCH  36  38
HETATM   38  C26 UNL     1      32.372 102.353  54.182  1.00  0.00     0.246 C 
BRANCH  38  39
HETATM   39  O3  UNL     1      31.561 102.577  53.174  1.00  0.00    -0.331 OA
ATOM     40  H3  UNL     1      30.644 102.634  53.417  1.00  0.00     0.221 HD
ENDBRANCH  38  39
BRANCH  38  41
HETATM   41  N3  UNL     1      31.804 101.785  55.324  1.00  0.00    -0.219 N 
HETATM   42  C27 UNL     1      32.155 101.807  56.768  1.00  0.00     0.188 C 
HETATM   43  C28 UNL     1      31.495 100.443  56.723  1.00  0.00     0.224 C 
HETATM   44  O4  UNL     1      30.768 101.015  55.663  1.00  0.00    -0.273 OA
ENDBRANCH  38  41
ENDBRANCH  36  38
ENDBRANCH  33  34
ENDBRANCH  30  33
BRANCH  32  45
HETATM   45  O5  UNL     1      34.874 107.781  52.321  1.00  0.00    -0.377 OA
ATOM     46  H5  UNL     1      34.219 108.138  52.910  1.00  0.00     0.212 HD
ENDBRANCH  32  45
ENDBRANCH  20  27
BRANCH   4  47
HETATM   47  O1  UNL     1      39.322 119.535  51.185  1.00  0.00    -0.395 OA
ATOM     48  H1  UNL     1      39.843 119.826  51.924  1.00  0.00     0.210 HD
ENDBRANCH   4  47
TORSDOF 8
ENDMDL
