MODEL 1
REMARK VINA RESULT: -9.080565879      0.000      0.000
REMARK  9 active torsions:
REMARK  status: ('A' for Active; 'I' for Inactive)
REMARK    1  A    between atoms: C2_2  and  C3_3 
REMARK       I    between atoms: C3_3  and  N1_5 
REMARK    2  A    between atoms: N1_5  and  N2_7 
REMARK    3  A    between atoms: C4_9  and  C5_10 
REMARK    4  A    between atoms: C11_16  and  C12_17 
REMARK       I    between atoms: N4_24  and  C17_25 
REMARK    5  A    between atoms: C17_25  and  C18_27 
REMARK    6  A    between atoms: C18_27  and  C19_28 
REMARK    7  A    between atoms: C18_27  and  N5_36 
REMARK    8  A    between atoms: C19_28  and  C20_29 
REMARK    9  A    between atoms: N5_36  and  S1_38 
ROOT
HETATM    1  C1  UNL     1      -4.130  14.101  19.751  1.00  0.00     0.052 C 
HETATM    2  C2  UNL     1      -4.926  13.165  20.681  1.00  0.00     0.139 A 
HETATM    3  C11 UNL     1      -5.924  13.827  21.614  1.00  0.00     0.160 A 
HETATM    4  N4  UNL     1      -4.656  13.249  22.076  1.00  0.00    -0.318 N 
HETATM    5  C17 UNL     1      -3.858  13.035  23.228  1.00  0.00     0.245 C 
HETATM    6  O2  UNL     1      -4.246  13.398  24.374  1.00  0.00    -0.271 OA
ENDROOT
BRANCH   2   7
HETATM    7  C3  UNL     1      -5.451  11.985  19.999  1.00  0.00     0.266 C 
HETATM    8  O1  UNL     1      -6.164  12.065  18.953  1.00  0.00    -0.269 OA
HETATM    9  N1  UNL     1      -5.196  10.667  20.462  1.00  0.00    -0.268 N 
ATOM     10  H1  UNL     1      -4.628  10.549  21.302  1.00  0.00     0.190 HD
BRANCH   9  11
HETATM   11  N2  UNL     1      -5.686   9.527  19.827  1.00  0.00    -0.308 N 
HETATM   12  C4  UNL     1      -5.023   8.675  19.170  1.00  0.00     0.118 C 
ATOM     13  H2  UNL     1      -6.689   9.363  19.900  1.00  0.00     0.186 HD
BRANCH  12  14
HETATM   14  C5  UNL     1      -5.688   7.530  18.562  1.00  0.00    -0.019 A 
HETATM   15  C6  UNL     1      -5.095   6.272  18.587  1.00  0.00     0.013 A 
HETATM   16  C7  UNL     1      -5.751   5.220  18.003  1.00  0.00     0.001 A 
HETATM   17  C8  UNL     1      -6.969   5.397  17.405  1.00  0.00     0.000 A 
HETATM   18  C9  UNL     1      -7.567   6.634  17.372  1.00  0.00     0.001 A 
HETATM   19  C10 UNL     1      -6.921   7.700  17.952  1.00  0.00     0.013 A 
ENDBRANCH  12  14
ENDBRANCH   9  11
ENDBRANCH   2   7
BRANCH   3  20
HETATM   20  C12 UNL     1      -7.206  13.196  21.901  1.00  0.00    -0.017 A 
HETATM   21  C13 UNL     1      -7.440  12.177  22.793  1.00  0.00     0.012 A 
HETATM   22  C14 UNL     1      -8.713  11.687  22.961  1.00  0.00     0.018 A 
HETATM   23  C15 UNL     1      -9.786  12.198  22.245  1.00  0.00     0.087 A 
HETATM   24  N3  UNL     1      -9.548  13.190  21.379  1.00  0.00    -0.375 N 
HETATM   25  C16 UNL     1      -8.312  13.664  21.219  1.00  0.00     0.096 A 
ATOM     26  H3  UNL     1     -10.317  13.586  20.838  1.00  0.00     0.164 HD
ENDBRANCH   3  20
BRANCH   5  27
HETATM   27  C18 UNL     1      -2.520  12.386  23.211  1.00  0.00     0.189 C 
BRANCH  27  28
HETATM   28  C19 UNL     1      -1.809  12.429  24.503  1.00  0.00     0.074 C 
BRANCH  28  29
HETATM   29  C20 UNL     1      -1.569  11.156  25.176  1.00  0.00    -0.056 A 
HETATM   30  C21 UNL     1      -2.374  10.636  26.169  1.00  0.00     0.010 A 
HETATM   31  C22 UNL     1      -2.141   9.439  26.812  1.00  0.00     0.043 A 
HETATM   32  C23 UNL     1      -1.029   8.694  26.449  1.00  0.00     0.116 A 
HETATM   33  F1  UNL     1      -0.786   7.511  27.074  1.00  0.00    -0.206 F 
HETATM   34  C24 UNL     1      -0.211   9.186  25.467  1.00  0.00     0.043 A 
HETATM   35  C25 UNL     1      -0.468  10.405  24.828  1.00  0.00     0.010 A 
ENDBRANCH  28  29
ENDBRANCH  27  28
BRANCH  27  36
HETATM   36  N5  UNL     1      -1.734  12.817  22.113  1.00  0.00    -0.306 N 
ATOM     37  H5  UNL     1      -1.665  13.809  21.882  1.00  0.00     0.173 HD
BRANCH  36  38
HETATM   38  S1  UNL     1      -0.919  11.669  21.201  1.00  0.00     0.223 S 
HETATM   39  C26 UNL     1      -1.673  10.062  21.232  1.00  0.00     0.185 C 
HETATM   40  O3  UNL     1       0.528  11.493  21.486  1.00  0.00    -0.206 OA
HETATM   41  O4  UNL     1      -0.997  12.120  19.744  1.00  0.00    -0.206 OA
ENDBRANCH  36  38
ENDBRANCH  27  36
ENDBRANCH   5  27
TORSDOF 9
ENDMDL
MODEL 2
REMARK VINA RESULT: -9.068699456      1.276      1.697
REMARK  9 active torsions:
REMARK  status: ('A' for Active; 'I' for Inactive)
REMARK    1  A    between atoms: C2_2  and  C3_3 
REMARK       I    between atoms: C3_3  and  N1_5 
REMARK    2  A    between atoms: N1_5  and  N2_7 
REMARK    3  A    between atoms: C4_9  and  C5_10 
REMARK    4  A    between atoms: C11_16  and  C12_17 
REMARK       I    between atoms: N4_24  and  C17_25 
REMARK    5  A    between atoms: C17_25  and  C18_27 
REMARK    6  A    between atoms: C18_27  and  C19_28 
REMARK    7  A    between atoms: C18_27  and  N5_36 
REMARK    8  A    between atoms: C19_28  and  C20_29 
REMARK    9  A    between atoms: N5_36  and  S1_38 
ROOT
HETATM    1  C1  UNL     1      -3.418  13.697  21.140  1.00  0.00     0.052 C 
HETATM    2  C2  UNL     1      -4.521  12.852  21.805  1.00  0.00     0.139 A 
HETATM    3  C11 UNL     1      -5.614  13.615  22.532  1.00  0.00     0.160 A 
HETATM    4  N4  UNL     1      -4.572  12.849  23.227  1.00  0.00    -0.318 N 
HETATM    5  C17 UNL     1      -4.096  12.486  24.512  1.00  0.00     0.245 C 
HETATM    6  O2  UNL     1      -4.689  12.862  25.563  1.00  0.00    -0.271 OA
ENDROOT
BRANCH   2   7
HETATM    7  C3  UNL     1      -5.022  11.780  20.948  1.00  0.00     0.266 C 
HETATM    8  O1  UNL     1      -5.428  11.990  19.764  1.00  0.00    -0.269 OA
HETATM    9  N1  UNL     1      -5.086  10.430  21.382  1.00  0.00    -0.268 N 
ATOM     10  H1  UNL     1      -4.771  10.209  22.327  1.00  0.00     0.190 HD
BRANCH   9  11
HETATM   11  N2  UNL     1      -5.559   9.393  20.580  1.00  0.00    -0.308 N 
HETATM   12  C4  UNL     1      -4.970   8.856  19.600  1.00  0.00     0.118 C 
ATOM     13  H2  UNL     1      -6.482   9.026  20.811  1.00  0.00     0.186 HD
BRANCH  12  14
HETATM   14  C5  UNL     1      -5.604   7.773  18.859  1.00  0.00    -0.019 A 
HETATM   15  C6  UNL     1      -6.890   7.920  18.352  1.00  0.00     0.013 A 
HETATM   16  C7  UNL     1      -7.452   6.878  17.661  1.00  0.00     0.001 A 
HETATM   17  C8  UNL     1      -6.763   5.710  17.470  1.00  0.00     0.000 A 
HETATM   18  C9  UNL     1      -5.491   5.550  17.966  1.00  0.00     0.001 A 
HETATM   19  C10 UNL     1      -4.914   6.586  18.662  1.00  0.00     0.013 A 
ENDBRANCH  12  14
ENDBRANCH   9  11
ENDBRANCH   2   7
BRANCH   3  20
HETATM   20  C12 UNL     1      -6.997  13.161  22.482  1.00  0.00    -0.017 A 
HETATM   21  C13 UNL     1      -7.561  12.157  23.232  1.00  0.00     0.012 A 
HETATM   22  C14 UNL     1      -8.890  11.845  23.077  1.00  0.00     0.018 A 
HETATM   23  C15 UNL     1      -9.693  12.524  22.172  1.00  0.00     0.087 A 
HETATM   24  N3  UNL     1      -9.136  13.501  21.447  1.00  0.00    -0.375 N 
HETATM   25  C16 UNL     1      -7.846  13.801  21.599  1.00  0.00     0.096 A 
ATOM     26  H3  UNL     1      -9.700  14.018  20.773  1.00  0.00     0.164 HD
ENDBRANCH   3  20
BRANCH   5  27
HETATM   27  C18 UNL     1      -2.886  11.657  24.754  1.00  0.00     0.189 C 
BRANCH  27  28
HETATM   28  C19 UNL     1      -2.544  11.484  26.179  1.00  0.00     0.074 C 
BRANCH  28  29
HETATM   29  C20 UNL     1      -2.182  10.141  26.621  1.00  0.00    -0.056 A 
HETATM   30  C21 UNL     1      -2.915   9.394  27.521  1.00  0.00     0.010 A 
HETATM   31  C22 UNL     1      -2.567   8.129  27.946  1.00  0.00     0.043 A 
HETATM   32  C23 UNL     1      -1.408   7.554  27.446  1.00  0.00     0.116 A 
HETATM   33  F1  UNL     1      -1.053   6.306  27.856  1.00  0.00    -0.206 F 
HETATM   34  C24 UNL     1      -0.661   8.273  26.552  1.00  0.00     0.043 A 
HETATM   35  C25 UNL     1      -1.034   9.556  26.135  1.00  0.00     0.010 A 
ENDBRANCH  28  29
ENDBRANCH  27  28
BRANCH  27  36
HETATM   36  N5  UNL     1      -1.792  12.066  23.951  1.00  0.00    -0.306 N 
ATOM     37  H5  UNL     1      -1.339  12.966  24.111  1.00  0.00     0.173 HD
BRANCH  36  38
HETATM   38  S1  UNL     1      -1.255  11.045  22.733  1.00  0.00     0.223 S 
HETATM   39  C26 UNL     1      -0.343  11.872  21.454  1.00  0.00     0.185 C 
HETATM   40  O3  UNL     1      -2.278  10.192  22.077  1.00  0.00    -0.206 OA
HETATM   41  O4  UNL     1      -0.262  10.076  23.370  1.00  0.00    -0.206 OA
ENDBRANCH  36  38
ENDBRANCH  27  36
ENDBRANCH   5  27
TORSDOF 9
ENDMDL
MODEL 3
REMARK VINA RESULT: -8.569200244      3.031      3.893
REMARK  9 active torsions:
REMARK  status: ('A' for Active; 'I' for Inactive)
REMARK    1  A    between atoms: C2_2  and  C3_3 
REMARK       I    between atoms: C3_3  and  N1_5 
REMARK    2  A    between atoms: N1_5  and  N2_7 
REMARK    3  A    between atoms: C4_9  and  C5_10 
REMARK    4  A    between atoms: C11_16  and  C12_17 
REMARK       I    between atoms: N4_24  and  C17_25 
REMARK    5  A    between atoms: C17_25  and  C18_27 
REMARK    6  A    between atoms: C18_27  and  C19_28 
REMARK    7  A    between atoms: C18_27  and  N5_36 
REMARK    8  A    between atoms: C19_28  and  C20_29 
REMARK    9  A    between atoms: N5_36  and  S1_38 
ROOT
HETATM    1  C1  UNL     1      -7.061  14.620  20.517  1.00  0.00     0.052 C 
HETATM    2  C2  UNL     1      -7.695  13.443  21.280  1.00  0.00     0.139 A 
HETATM    3  C11 UNL     1      -9.085  13.672  21.846  1.00  0.00     0.160 A 
HETATM    4  N4  UNL     1      -7.881  13.600  22.683  1.00  0.00    -0.318 N 
HETATM    5  C17 UNL     1      -7.422  13.681  24.021  1.00  0.00     0.245 C 
HETATM    6  O2  UNL     1      -8.223  13.857  24.982  1.00  0.00    -0.271 OA
ENDROOT
BRANCH   2   7
HETATM    7  C3  UNL     1      -7.543  12.162  20.595  1.00  0.00     0.266 C 
HETATM    8  O1  UNL     1      -7.881  11.994  19.384  1.00  0.00    -0.269 OA
HETATM    9  N1  UNL     1      -7.004  11.017  21.240  1.00  0.00    -0.268 N 
ATOM     10  H1  UNL     1      -6.718  11.099  22.215  1.00  0.00     0.190 HD
BRANCH   9  11
HETATM   11  N2  UNL     1      -6.849   9.786  20.604  1.00  0.00    -0.308 N 
HETATM   12  C4  UNL     1      -5.866   9.405  19.910  1.00  0.00     0.118 C 
ATOM     13  H2  UNL     1      -7.614   9.120  20.712  1.00  0.00     0.186 HD
BRANCH  12  14
HETATM   14  C5  UNL     1      -5.855   8.077  19.308  1.00  0.00    -0.019 A 
HETATM   15  C6  UNL     1      -4.691   7.562  18.749  1.00  0.00     0.013 A 
HETATM   16  C7  UNL     1      -4.721   6.310  18.192  1.00  0.00     0.001 A 
HETATM   17  C8  UNL     1      -5.875   5.575  18.183  1.00  0.00     0.000 A 
HETATM   18  C9  UNL     1      -7.034   6.070  18.732  1.00  0.00     0.001 A 
HETATM   19  C10 UNL     1      -7.020   7.324  19.294  1.00  0.00     0.013 A 
ENDBRANCH  12  14
ENDBRANCH   9  11
ENDBRANCH   2   7
BRANCH   3  20
HETATM   20  C12 UNL     1     -10.078  12.607  21.835  1.00  0.00    -0.017 A 
HETATM   21  C13 UNL     1     -10.179  11.565  22.726  1.00  0.00     0.012 A 
HETATM   22  C14 UNL     1     -11.180  10.635  22.589  1.00  0.00     0.018 A 
HETATM   23  C15 UNL     1     -12.108  10.715  21.561  1.00  0.00     0.087 A 
HETATM   24  N3  UNL     1     -12.002  11.732  20.697  1.00  0.00    -0.375 N 
HETATM   25  C16 UNL     1     -11.030  12.634  20.833  1.00  0.00     0.096 A 
ATOM     26  H3  UNL     1     -12.669  11.818  19.930  1.00  0.00     0.164 HD
ENDBRANCH   3  20
BRANCH   5  27
HETATM   27  C18 UNL     1      -5.995  13.575  24.425  1.00  0.00     0.189 C 
BRANCH  27  28
HETATM   28  C19 UNL     1      -5.430  12.217  24.306  1.00  0.00     0.074 C 
BRANCH  28  29
HETATM   29  C20 UNL     1      -3.990  12.109  24.089  1.00  0.00    -0.056 A 
HETATM   30  C21 UNL     1      -3.349  12.474  22.923  1.00  0.00     0.010 A 
HETATM   31  C22 UNL     1      -1.991  12.362  22.715  1.00  0.00     0.043 A 
HETATM   32  C23 UNL     1      -1.201  11.852  23.735  1.00  0.00     0.116 A 
HETATM   33  F1  UNL     1       0.141  11.736  23.545  1.00  0.00    -0.206 F 
HETATM   34  C24 UNL     1      -1.811  11.481  24.904  1.00  0.00     0.043 A 
HETATM   35  C25 UNL     1      -3.192  11.603  25.092  1.00  0.00     0.010 A 
ENDBRANCH  28  29
ENDBRANCH  27  28
BRANCH  27  36
HETATM   36  N5  UNL     1      -5.752  14.185  25.682  1.00  0.00    -0.306 N 
ATOM     37  H5  UNL     1      -6.180  13.814  26.530  1.00  0.00     0.173 HD
BRANCH  36  38
HETATM   38  S1  UNL     1      -4.748  15.527  25.748  1.00  0.00     0.223 S 
HETATM   39  C26 UNL     1      -3.952  15.904  24.206  1.00  0.00     0.185 C 
HETATM   40  O3  UNL     1      -3.705  15.530  26.805  1.00  0.00    -0.206 OA
HETATM   41  O4  UNL     1      -5.635  16.733  26.046  1.00  0.00    -0.206 OA
ENDBRANCH  36  38
ENDBRANCH  27  36
ENDBRANCH   5  27
TORSDOF 9
ENDMDL
MODEL 4
REMARK VINA RESULT: -8.450746759      3.242      4.178
REMARK  9 active torsions:
REMARK  status: ('A' for Active; 'I' for Inactive)
REMARK    1  A    between atoms: C2_2  and  C3_3 
REMARK       I    between atoms: C3_3  and  N1_5 
REMARK    2  A    between atoms: N1_5  and  N2_7 
REMARK    3  A    between atoms: C4_9  and  C5_10 
REMARK    4  A    between atoms: C11_16  and  C12_17 
REMARK       I    between atoms: N4_24  and  C17_25 
REMARK    5  A    between atoms: C17_25  and  C18_27 
REMARK    6  A    between atoms: C18_27  and  C19_28 
REMARK    7  A    between atoms: C18_27  and  N5_36 
REMARK    8  A    between atoms: C19_28  and  C20_29 
REMARK    9  A    between atoms: N5_36  and  S1_38 
ROOT
HETATM    1  C1  UNL     1      -7.274  14.716  20.501  1.00  0.00     0.052 C 
HETATM    2  C2  UNL     1      -7.838  13.513  21.280  1.00  0.00     0.139 A 
HETATM    3  C11 UNL     1      -9.210  13.693  21.905  1.00  0.00     0.160 A 
HETATM    4  N4  UNL     1      -7.971  13.654  22.690  1.00  0.00    -0.318 N 
HETATM    5  C17 UNL     1      -7.460  13.741  24.010  1.00  0.00     0.245 C 
HETATM    6  O2  UNL     1      -8.226  13.884  25.004  1.00  0.00    -0.271 OA
ENDROOT
BRANCH   2   7
HETATM    7  C3  UNL     1      -7.673  12.242  20.579  1.00  0.00     0.266 C 
HETATM    8  O1  UNL     1      -8.000  12.090  19.363  1.00  0.00    -0.269 OA
HETATM    9  N1  UNL     1      -7.134  11.092  21.212  1.00  0.00    -0.268 N 
ATOM     10  H1  UNL     1      -6.855  11.162  22.191  1.00  0.00     0.190 HD
BRANCH   9  11
HETATM   11  N2  UNL     1      -6.966   9.870  20.561  1.00  0.00    -0.308 N 
HETATM   12  C4  UNL     1      -5.902   9.415  20.056  1.00  0.00     0.118 C 
ATOM     13  H2  UNL     1      -7.794   9.280  20.485  1.00  0.00     0.186 HD
BRANCH  12  14
HETATM   14  C5  UNL     1      -5.892   8.111  19.405  1.00  0.00    -0.019 A 
HETATM   15  C6  UNL     1      -7.045   7.336  19.354  1.00  0.00     0.013 A 
HETATM   16  C7  UNL     1      -6.995   6.114  18.734  1.00  0.00     0.001 A 
HETATM   17  C8  UNL     1      -5.832   5.660  18.173  1.00  0.00     0.000 A 
HETATM   18  C9  UNL     1      -4.684   6.414  18.216  1.00  0.00     0.001 A 
HETATM   19  C10 UNL     1      -4.718   7.641  18.835  1.00  0.00     0.013 A 
ENDBRANCH  12  14
ENDBRANCH   9  11
ENDBRANCH   2   7
BRANCH   3  20
HETATM   20  C12 UNL     1     -10.168  12.596  21.925  1.00  0.00    -0.017 A 
HETATM   21  C13 UNL     1     -10.213  11.560  22.827  1.00  0.00     0.012 A 
HETATM   22  C14 UNL     1     -11.187  10.596  22.721  1.00  0.00     0.018 A 
HETATM   23  C15 UNL     1     -12.141  10.638  21.715  1.00  0.00     0.087 A 
HETATM   24  N3  UNL     1     -12.089  11.650  20.841  1.00  0.00    -0.375 N 
HETATM   25  C16 UNL     1     -11.144  12.584  20.947  1.00  0.00     0.096 A 
ATOM     26  H3  UNL     1     -12.777  11.708  20.090  1.00  0.00     0.164 HD
ENDBRANCH   3  20
BRANCH   5  27
HETATM   27  C18 UNL     1      -6.015  13.679  24.354  1.00  0.00     0.189 C 
BRANCH  27  28
HETATM   28  C19 UNL     1      -5.402  12.350  24.161  1.00  0.00     0.074 C 
BRANCH  28  29
HETATM   29  C20 UNL     1      -4.102  12.303  23.498  1.00  0.00    -0.056 A 
HETATM   30  C21 UNL     1      -2.919  11.970  24.125  1.00  0.00     0.010 A 
HETATM   31  C22 UNL     1      -1.691  11.936  23.501  1.00  0.00     0.043 A 
HETATM   32  C23 UNL     1      -1.620  12.255  22.153  1.00  0.00     0.116 A 
HETATM   33  F1  UNL     1      -0.415  12.226  21.523  1.00  0.00    -0.206 F 
HETATM   34  C24 UNL     1      -2.779  12.591  21.505  1.00  0.00     0.043 A 
HETATM   35  C25 UNL     1      -4.015  12.619  22.160  1.00  0.00     0.010 A 
ENDBRANCH  28  29
ENDBRANCH  27  28
BRANCH  27  36
HETATM   36  N5  UNL     1      -5.745  14.252  25.622  1.00  0.00    -0.306 N 
ATOM     37  H5  UNL     1      -6.175  13.872  26.465  1.00  0.00     0.173 HD
BRANCH  36  38
HETATM   38  S1  UNL     1      -4.707  15.567  25.711  1.00  0.00     0.223 S 
HETATM   39  C26 UNL     1      -3.883  15.934  24.182  1.00  0.00     0.185 C 
HETATM   40  O3  UNL     1      -3.677  15.534  26.780  1.00  0.00    -0.206 OA
HETATM   41  O4  UNL     1      -5.566  16.794  26.008  1.00  0.00    -0.206 OA
ENDBRANCH  36  38
ENDBRANCH  27  36
ENDBRANCH   5  27
TORSDOF 9
ENDMDL
MODEL 5
REMARK VINA RESULT: -8.314688111      3.077      7.108
REMARK  9 active torsions:
REMARK  status: ('A' for Active; 'I' for Inactive)
REMARK    1  A    between atoms: C2_2  and  C3_3 
REMARK       I    between atoms: C3_3  and  N1_5 
REMARK    2  A    between atoms: N1_5  and  N2_7 
REMARK    3  A    between atoms: C4_9  and  C5_10 
REMARK    4  A    between atoms: C11_16  and  C12_17 
REMARK       I    between atoms: N4_24  and  C17_25 
REMARK    5  A    between atoms: C17_25  and  C18_27 
REMARK    6  A    between atoms: C18_27  and  C19_28 
REMARK    7  A    between atoms: C18_27  and  N5_36 
REMARK    8  A    between atoms: C19_28  and  C20_29 
REMARK    9  A    between atoms: N5_36  and  S1_38 
ROOT
HETATM    1  C1  UNL     1      -7.967  11.683  20.911  1.00  0.00     0.052 C 
HETATM    2  C2  UNL     1      -6.558  12.286  21.075  1.00  0.00     0.139 A 
HETATM    3  C11 UNL     1      -6.435  13.785  20.868  1.00  0.00     0.160 A 
HETATM    4  N4  UNL     1      -5.929  12.799  19.905  1.00  0.00    -0.318 N 
HETATM    5  C17 UNL     1      -5.275  12.664  18.655  1.00  0.00     0.245 C 
HETATM    6  O2  UNL     1      -4.897  13.675  17.998  1.00  0.00    -0.271 OA
ENDROOT
BRANCH   2   7
HETATM    7  C3  UNL     1      -5.854  11.795  22.257  1.00  0.00     0.266 C 
HETATM    8  O1  UNL     1      -6.344  11.879  23.424  1.00  0.00    -0.269 OA
HETATM    9  N1  UNL     1      -4.573  11.190  22.178  1.00  0.00    -0.268 N 
ATOM     10  H1  UNL     1      -4.134  11.099  21.261  1.00  0.00     0.190 HD
BRANCH   9  11
HETATM   11  N2  UNL     1      -3.884  10.713  23.292  1.00  0.00    -0.308 N 
HETATM   12  C4  UNL     1      -2.655  10.851  23.546  1.00  0.00     0.118 C 
ATOM     13  H2  UNL     1      -4.434  10.195  23.978  1.00  0.00     0.186 HD
BRANCH  12  14
HETATM   14  C5  UNL     1      -2.083  10.289  24.764  1.00  0.00    -0.019 A 
HETATM   15  C6  UNL     1      -2.787  10.334  25.962  1.00  0.00     0.013 A 
HETATM   16  C7  UNL     1      -2.215   9.795  27.085  1.00  0.00     0.001 A 
HETATM   17  C8  UNL     1      -0.973   9.223  27.035  1.00  0.00     0.000 A 
HETATM   18  C9  UNL     1      -0.265   9.172  25.857  1.00  0.00     0.001 A 
HETATM   19  C10 UNL     1      -0.825   9.708  24.722  1.00  0.00     0.013 A 
ENDBRANCH  12  14
ENDBRANCH   9  11
ENDBRANCH   2   7
BRANCH   3  20
HETATM   20  C12 UNL     1      -5.538  14.580  21.697  1.00  0.00    -0.017 A 
HETATM   21  C13 UNL     1      -5.858  15.229  22.866  1.00  0.00     0.012 A 
HETATM   22  C14 UNL     1      -4.897  15.938  23.544  1.00  0.00     0.018 A 
HETATM   23  C15 UNL     1      -3.593  16.021  23.078  1.00  0.00     0.087 A 
HETATM   24  N3  UNL     1      -3.291  15.385  21.940  1.00  0.00    -0.375 N 
HETATM   25  C16 UNL     1      -4.225  14.698  21.284  1.00  0.00     0.096 A 
ATOM     26  H3  UNL     1      -2.341  15.428  21.572  1.00  0.00     0.164 HD
ENDBRANCH   3  20
BRANCH   5  27
HETATM   27  C18 UNL     1      -4.977  11.362  18.001  1.00  0.00     0.189 C 
BRANCH  27  28
HETATM   28  C19 UNL     1      -4.481  10.321  18.922  1.00  0.00     0.074 C 
BRANCH  28  29
HETATM   29  C20 UNL     1      -5.143   9.021  18.880  1.00  0.00    -0.056 A 
HETATM   30  C21 UNL     1      -4.528   7.846  18.496  1.00  0.00     0.010 A 
HETATM   31  C22 UNL     1      -5.157   6.621  18.446  1.00  0.00     0.043 A 
HETATM   32  C23 UNL     1      -6.495   6.544  18.802  1.00  0.00     0.116 A 
HETATM   33  F1  UNL     1      -7.129   5.341  18.759  1.00  0.00    -0.206 F 
HETATM   34  C24 UNL     1      -7.131   7.695  19.186  1.00  0.00     0.043 A 
HETATM   35  C25 UNL     1      -6.472   8.928  19.229  1.00  0.00     0.010 A 
ENDBRANCH  28  29
ENDBRANCH  27  28
BRANCH  27  36
HETATM   36  N5  UNL     1      -4.182  11.521  16.838  1.00  0.00    -0.306 N 
ATOM     37  H5  UNL     1      -3.299  12.030  16.879  1.00  0.00     0.173 HD
BRANCH  36  38
HETATM   38  S1  UNL     1      -4.720  10.857  15.394  1.00  0.00     0.223 S 
HETATM   39  C26 UNL     1      -5.940  11.844  14.563  1.00  0.00     0.185 C 
HETATM   40  O3  UNL     1      -5.228   9.464  15.448  1.00  0.00    -0.206 OA
HETATM   41  O4  UNL     1      -3.522  10.821  14.448  1.00  0.00    -0.206 OA
ENDBRANCH  36  38
ENDBRANCH  27  36
ENDBRANCH   5  27
TORSDOF 9
ENDMDL
