MODEL 1
REMARK VINA RESULT: -8.071532901      0.000      0.000
REMARK  13 active torsions:
REMARK  status: ('A' for Active; 'I' for Inactive)
REMARK       I    between atoms: N1_2  and  C2_4 
REMARK    1  A    between atoms: C2_4  and  C3_6 
REMARK    2  A    between atoms: C8_12  and  N2_13 
REMARK    3  A    between atoms: N2_13  and  C9_14 
REMARK    4  A    between atoms: C9_14  and  O2_15 
REMARK    5  A    between atoms: C9_14  and  C10_17 
REMARK    6  A    between atoms: C10_17  and  O3_18 
REMARK    7  A    between atoms: O3_18  and  C11_19 
REMARK    8  A    between atoms: C11_19  and  O4_20 
REMARK    9  A    between atoms: C11_19  and  C12_22 
REMARK   10  A    between atoms: C12_22  and  C13_23 
REMARK   11  A    between atoms: C13_23  and  S1_24 
REMARK   12  A    between atoms: S1_24  and  N3_27 
REMARK       I    between atoms: N3_27  and  C15_29 
REMARK   13  A    between atoms: C15_29  and  C16_31 
ROOT
HETATM    1  C10 UNL     1      -0.896  11.817  21.574  1.00  0.00     0.271 C 
ENDROOT
BRANCH   1   2
HETATM    2  C9  UNL     1      -0.180  11.875  22.935  1.00  0.00     0.214 C 
BRANCH   2   3
HETATM    3  N2  UNL     1      -0.513  11.193  24.049  1.00  0.00    -0.382 NA
BRANCH   3   4
HETATM    4  C8  UNL     1      -0.836  10.513  25.170  1.00  0.00     0.125 A 
HETATM    5  C3  UNL     1      -2.092  10.544  25.734  1.00  0.00     0.073 A 
HETATM    6  C4  UNL     1      -2.479   9.616  26.677  1.00  0.00     0.039 A 
HETATM    7  C5  UNL     1      -1.592   8.611  27.099  1.00  0.00     0.012 A 
HETATM    8 BR1  UNL     1      -2.146   7.341  28.409  1.00  0.00    -0.051 Br
HETATM    9  C6  UNL     1      -0.361   8.594  26.550  1.00  0.00     0.022 A 
HETATM   10  C7  UNL     1       0.077   9.477  25.612  1.00  0.00     0.047 A 
BRANCH   5  11
HETATM   11  C2  UNL     1      -2.974  11.692  25.486  1.00  0.00     0.254 C 
HETATM   12  N1  UNL     1      -4.318  11.488  25.079  1.00  0.00    -0.361 N 
HETATM   13  C1  UNL     1      -5.228  12.635  24.865  1.00  0.00     0.149 C 
ATOM     14  H1  UNL     1      -4.661  10.539  24.932  1.00  0.00     0.162 HD
HETATM   15  O1  UNL     1      -2.580  12.833  25.620  1.00  0.00    -0.268 OA
ENDBRANCH   5  11
ENDBRANCH   3   4
ENDBRANCH   2   3
BRANCH   2  16
HETATM   16  O2  UNL     1       0.852  12.670  22.866  1.00  0.00    -0.337 OA
ATOM     17  H2  UNL     1       1.471  12.658  22.145  1.00  0.00     0.220 HD
ENDBRANCH   2  16
ENDBRANCH   1   2
BRANCH   1  18
HETATM   18  O3  UNL     1      -1.683  10.555  21.723  1.00  0.00    -0.352 OA
BRANCH  18  19
HETATM   19  C11 UNL     1      -3.074  10.849  21.863  1.00  0.00     0.258 C 
BRANCH  19  20
HETATM   20  O4  UNL     1      -3.735   9.941  22.520  1.00  0.00    -0.371 OA
ATOM     21  H4  UNL     1      -4.107  10.256  23.334  1.00  0.00     0.212 HD
ENDBRANCH  19  20
BRANCH  19  22
HETATM   22  C12 UNL     1      -3.774  12.004  21.352  1.00  0.00     0.077 C 
BRANCH  22  23
HETATM   23  C13 UNL     1      -4.258  11.992  19.937  1.00  0.00     0.168 C 
BRANCH  23  24
HETATM   24  S1  UNL     1      -5.972  11.417  19.987  1.00  0.00     0.234 S 
HETATM   25  O5  UNL     1      -6.359  10.878  21.299  1.00  0.00    -0.205 OA
HETATM   26  O6  UNL     1      -6.800  12.672  19.776  1.00  0.00    -0.205 OA
BRANCH  24  27
HETATM   27  N3  UNL     1      -6.280  10.291  18.709  1.00  0.00    -0.249 N 
HETATM   28  C14 UNL     1      -7.098  10.724  17.638  1.00  0.00     0.172 C 
HETATM   29  C15 UNL     1      -5.682   9.035  18.824  1.00  0.00     0.240 C 
HETATM   30  O7  UNL     1      -4.885   8.891  19.828  1.00  0.00    -0.272 OA
BRANCH  29  31
HETATM   31  C16 UNL     1      -5.836   7.842  17.956  1.00  0.00     0.031 C 
HETATM   32  C17 UNL     1      -4.944   6.700  18.476  1.00  0.00     0.025 C 
HETATM   33  C18 UNL     1      -5.390   8.130  16.568  1.00  0.00     0.025 C 
HETATM   34  C19 UNL     1      -7.251   7.333  18.094  1.00  0.00     0.025 C 
ENDBRANCH  29  31
ENDBRANCH  24  27
ENDBRANCH  23  24
ENDBRANCH  22  23
ENDBRANCH  19  22
ENDBRANCH  18  19
ENDBRANCH   1  18
TORSDOF 13
ENDMDL
MODEL 2
REMARK VINA RESULT: -7.878520190      1.259      1.572
REMARK  13 active torsions:
REMARK  status: ('A' for Active; 'I' for Inactive)
REMARK       I    between atoms: N1_2  and  C2_4 
REMARK    1  A    between atoms: C2_4  and  C3_6 
REMARK    2  A    between atoms: C8_12  and  N2_13 
REMARK    3  A    between atoms: N2_13  and  C9_14 
REMARK    4  A    between atoms: C9_14  and  O2_15 
REMARK    5  A    between atoms: C9_14  and  C10_17 
REMARK    6  A    between atoms: C10_17  and  O3_18 
REMARK    7  A    between atoms: O3_18  and  C11_19 
REMARK    8  A    between atoms: C11_19  and  O4_20 
REMARK    9  A    between atoms: C11_19  and  C12_22 
REMARK   10  A    between atoms: C12_22  and  C13_23 
REMARK   11  A    between atoms: C13_23  and  S1_24 
REMARK   12  A    between atoms: S1_24  and  N3_27 
REMARK       I    between atoms: N3_27  and  C15_29 
REMARK   13  A    between atoms: C15_29  and  C16_31 
ROOT
HETATM    1  C10 UNL     1      -0.737  11.001  21.007  1.00  0.00     0.271 C 
ENDROOT
BRANCH   1   2
HETATM    2  C9  UNL     1      -0.237  11.469  22.386  1.00  0.00     0.214 C 
BRANCH   2   3
HETATM    3  N2  UNL     1      -0.529  10.912  23.579  1.00  0.00    -0.382 NA
BRANCH   3   4
HETATM    4  C8  UNL     1      -0.832  10.350  24.768  1.00  0.00     0.125 A 
HETATM    5  C3  UNL     1      -2.051  10.509  25.389  1.00  0.00     0.073 A 
HETATM    6  C4  UNL     1      -2.441   9.690  26.426  1.00  0.00     0.039 A 
HETATM    7  C5  UNL     1      -1.596   8.666  26.888  1.00  0.00     0.012 A 
HETATM    8 BR1  UNL     1      -2.155   7.548  28.328  1.00  0.00    -0.051 Br
HETATM    9  C6  UNL     1      -0.401   8.524  26.282  1.00  0.00     0.022 A 
HETATM   10  C7  UNL     1       0.039   9.295  25.252  1.00  0.00     0.047 A 
BRANCH   5  11
HETATM   11  C2  UNL     1      -2.872  11.689  25.088  1.00  0.00     0.254 C 
HETATM   12  N1  UNL     1      -3.918  11.609  24.132  1.00  0.00    -0.361 N 
HETATM   13  C1  UNL     1      -4.779  12.778  23.848  1.00  0.00     0.149 C 
ATOM     14  H1  UNL     1      -4.078  10.733  23.634  1.00  0.00     0.162 HD
HETATM   15  O1  UNL     1      -2.679  12.753  25.642  1.00  0.00    -0.268 OA
ENDBRANCH   5  11
ENDBRANCH   3   4
ENDBRANCH   2   3
BRANCH   2  16
HETATM   16  O2  UNL     1       0.565  12.488  22.251  1.00  0.00    -0.337 OA
ATOM     17  H2  UNL     1       1.128  12.612  21.495  1.00  0.00     0.220 HD
ENDBRANCH   2  16
ENDBRANCH   1   2
BRANCH   1  18
HETATM   18  O3  UNL     1      -0.721  12.289  20.250  1.00  0.00    -0.352 OA
BRANCH  18  19
HETATM   19  C11 UNL     1      -2.033  12.610  19.786  1.00  0.00     0.258 C 
BRANCH  19  20
HETATM   20  O4  UNL     1      -2.107  12.762  18.496  1.00  0.00    -0.371 OA
ATOM     21  H4  UNL     1      -2.924  13.148  18.204  1.00  0.00     0.212 HD
ENDBRANCH  19  20
BRANCH  19  22
HETATM   22  C12 UNL     1      -3.220  12.785  20.588  1.00  0.00     0.077 C 
BRANCH  22  23
HETATM   23  C13 UNL     1      -4.560  12.550  19.965  1.00  0.00     0.168 C 
BRANCH  23  24
HETATM   24  S1  UNL     1      -5.050  10.870  20.423  1.00  0.00     0.234 S 
HETATM   25  O5  UNL     1      -4.138  10.251  21.397  1.00  0.00    -0.205 OA
HETATM   26  O6  UNL     1      -6.381  11.043  21.131  1.00  0.00    -0.205 OA
BRANCH  24  27
HETATM   27  N3  UNL     1      -5.259   9.886  19.015  1.00  0.00    -0.249 N 
HETATM   28  C14 UNL     1      -4.789  10.399  17.782  1.00  0.00     0.172 C 
HETATM   29  C15 UNL     1      -5.867   8.645  19.204  1.00  0.00     0.240 C 
HETATM   30  O7  UNL     1      -6.116   8.331  20.430  1.00  0.00    -0.272 OA
BRANCH  29  31
HETATM   31  C16 UNL     1      -6.269   7.635  18.194  1.00  0.00     0.031 C 
HETATM   32  C17 UNL     1      -6.847   6.393  18.897  1.00  0.00     0.025 C 
HETATM   33  C18 UNL     1      -5.097   7.170  17.407  1.00  0.00     0.025 C 
HETATM   34  C19 UNL     1      -7.413   8.200  17.387  1.00  0.00     0.025 C 
ENDBRANCH  29  31
ENDBRANCH  24  27
ENDBRANCH  23  24
ENDBRANCH  22  23
ENDBRANCH  19  22
ENDBRANCH  18  19
ENDBRANCH   1  18
TORSDOF 13
ENDMDL
MODEL 3
REMARK VINA RESULT: -7.564617919      1.529      2.082
REMARK  13 active torsions:
REMARK  status: ('A' for Active; 'I' for Inactive)
REMARK       I    between atoms: N1_2  and  C2_4 
REMARK    1  A    between atoms: C2_4  and  C3_6 
REMARK    2  A    between atoms: C8_12  and  N2_13 
REMARK    3  A    between atoms: N2_13  and  C9_14 
REMARK    4  A    between atoms: C9_14  and  O2_15 
REMARK    5  A    between atoms: C9_14  and  C10_17 
REMARK    6  A    between atoms: C10_17  and  O3_18 
REMARK    7  A    between atoms: O3_18  and  C11_19 
REMARK    8  A    between atoms: C11_19  and  O4_20 
REMARK    9  A    between atoms: C11_19  and  C12_22 
REMARK   10  A    between atoms: C12_22  and  C13_23 
REMARK   11  A    between atoms: C13_23  and  S1_24 
REMARK   12  A    between atoms: S1_24  and  N3_27 
REMARK       I    between atoms: N3_27  and  C15_29 
REMARK   13  A    between atoms: C15_29  and  C16_31 
ROOT
HETATM    1  C10 UNL     1      -1.298  12.098  21.600  1.00  0.00     0.271 C 
ENDROOT
BRANCH   1   2
HETATM    2  C9  UNL     1      -0.371  11.923  22.817  1.00  0.00     0.214 C 
BRANCH   2   3
HETATM    3  N2  UNL     1      -0.646  11.242  23.947  1.00  0.00    -0.382 NA
BRANCH   3   4
HETATM    4  C8  UNL     1      -0.911  10.560  25.082  1.00  0.00     0.125 A 
HETATM    5  C3  UNL     1      -2.133  10.597  25.716  1.00  0.00     0.073 A 
HETATM    6  C4  UNL     1      -2.472   9.669  26.676  1.00  0.00     0.039 A 
HETATM    7  C5  UNL     1      -1.570   8.655  27.043  1.00  0.00     0.012 A 
HETATM    8 BR1  UNL     1      -2.059   7.384  28.378  1.00  0.00    -0.051 Br
HETATM    9  C6  UNL     1      -0.372   8.632  26.426  1.00  0.00     0.022 A 
HETATM   10  C7  UNL     1       0.018   9.515  25.468  1.00  0.00     0.047 A 
BRANCH   5  11
HETATM   11  C2  UNL     1      -3.019  11.752  25.523  1.00  0.00     0.254 C 
HETATM   12  N1  UNL     1      -4.340  11.569  25.039  1.00  0.00    -0.361 N 
HETATM   13  C1  UNL     1      -5.256  12.719  24.877  1.00  0.00     0.149 C 
ATOM     14  H1  UNL     1      -4.662  10.631  24.800  1.00  0.00     0.162 HD
HETATM   15  O1  UNL     1      -2.647  12.883  25.767  1.00  0.00    -0.268 OA
ENDBRANCH   5  11
ENDBRANCH   3   4
ENDBRANCH   2   3
BRANCH   2  16
HETATM   16  O2  UNL     1       0.774  12.509  22.598  1.00  0.00    -0.337 OA
ATOM     17  H2  UNL     1       0.851  13.419  22.335  1.00  0.00     0.220 HD
ENDBRANCH   2  16
ENDBRANCH   1   2
BRANCH   1  18
HETATM   18  O3  UNL     1      -2.633  11.859  22.227  1.00  0.00    -0.352 OA
BRANCH  18  19
HETATM   19  C11 UNL     1      -3.207  10.650  21.729  1.00  0.00     0.258 C 
BRANCH  19  20
HETATM   20  O4  UNL     1      -3.884   9.988  22.621  1.00  0.00    -0.371 OA
ATOM     21  H4  UNL     1      -4.799   9.872  22.396  1.00  0.00     0.212 HD
ENDBRANCH  19  20
BRANCH  19  22
HETATM   22  C12 UNL     1      -3.094  10.120  20.390  1.00  0.00     0.077 C 
BRANCH  22  23
HETATM   23  C13 UNL     1      -4.141  10.468  19.380  1.00  0.00     0.168 C 
BRANCH  23  24
HETATM   24  S1  UNL     1      -5.219   9.023  19.242  1.00  0.00     0.234 S 
HETATM   25  O5  UNL     1      -4.504   7.813  18.808  1.00  0.00    -0.205 OA
HETATM   26  O6  UNL     1      -5.686   8.760  20.662  1.00  0.00    -0.205 OA
BRANCH  24  27
HETATM   27  N3  UNL     1      -6.582   9.367  18.232  1.00  0.00    -0.249 N 
HETATM   28  C14 UNL     1      -7.832   9.565  18.865  1.00  0.00     0.172 C 
HETATM   29  C15 UNL     1      -6.341   9.438  16.859  1.00  0.00     0.240 C 
HETATM   30  O7  UNL     1      -5.104   9.335  16.507  1.00  0.00    -0.272 OA
BRANCH  29  31
HETATM   31  C16 UNL     1      -7.307   9.614  15.746  1.00  0.00     0.031 C 
HETATM   32  C17 UNL     1      -6.588   9.435  14.397  1.00  0.00     0.025 C 
HETATM   33  C18 UNL     1      -7.877  10.986  15.746  1.00  0.00     0.025 C 
HETATM   34  C19 UNL     1      -8.314   8.490  15.810  1.00  0.00     0.025 C 
ENDBRANCH  29  31
ENDBRANCH  24  27
ENDBRANCH  23  24
ENDBRANCH  22  23
ENDBRANCH  19  22
ENDBRANCH  18  19
ENDBRANCH   1  18
TORSDOF 13
ENDMDL
MODEL 4
REMARK VINA RESULT: -7.558957454      1.618      2.193
REMARK  13 active torsions:
REMARK  status: ('A' for Active; 'I' for Inactive)
REMARK       I    between atoms: N1_2  and  C2_4 
REMARK    1  A    between atoms: C2_4  and  C3_6 
REMARK    2  A    between atoms: C8_12  and  N2_13 
REMARK    3  A    between atoms: N2_13  and  C9_14 
REMARK    4  A    between atoms: C9_14  and  O2_15 
REMARK    5  A    between atoms: C9_14  and  C10_17 
REMARK    6  A    between atoms: C10_17  and  O3_18 
REMARK    7  A    between atoms: O3_18  and  C11_19 
REMARK    8  A    between atoms: C11_19  and  O4_20 
REMARK    9  A    between atoms: C11_19  and  C12_22 
REMARK   10  A    between atoms: C12_22  and  C13_23 
REMARK   11  A    between atoms: C13_23  and  S1_24 
REMARK   12  A    between atoms: S1_24  and  N3_27 
REMARK       I    between atoms: N3_27  and  C15_29 
REMARK   13  A    between atoms: C15_29  and  C16_31 
ROOT
HETATM    1  C10 UNL     1      -0.381  11.547  21.143  1.00  0.00     0.271 C 
ENDROOT
BRANCH   1   2
HETATM    2  C9  UNL     1       0.101  11.873  22.568  1.00  0.00     0.214 C 
BRANCH   2   3
HETATM    3  N2  UNL     1      -0.339  11.314  23.714  1.00  0.00    -0.382 NA
BRANCH   3   4
HETATM    4  C8  UNL     1      -0.778  10.743  24.855  1.00  0.00     0.125 A 
HETATM    5  C3  UNL     1      -2.047  10.936  25.355  1.00  0.00     0.073 A 
HETATM    6  C4  UNL     1      -2.568  10.115  26.331  1.00  0.00     0.039 A 
HETATM    7  C5  UNL     1      -1.808   9.054  26.855  1.00  0.00     0.012 A 
HETATM    8 BR1  UNL     1      -2.547   7.934  28.210  1.00  0.00    -0.051 Br
HETATM    9  C6  UNL     1      -0.564   8.879  26.369  1.00  0.00     0.022 A 
HETATM   10  C7  UNL     1       0.003   9.651  25.403  1.00  0.00     0.047 A 
BRANCH   5  11
HETATM   11  C2  UNL     1      -2.794  12.149  24.997  1.00  0.00     0.254 C 
HETATM   12  N1  UNL     1      -3.408  12.262  23.722  1.00  0.00    -0.361 N 
HETATM   13  C1  UNL     1      -4.197  13.462  23.363  1.00  0.00     0.149 C 
ATOM     14  H1  UNL     1      -3.305  11.507  23.046  1.00  0.00     0.162 HD
HETATM   15  O1  UNL     1      -2.902  13.078  25.772  1.00  0.00    -0.268 OA
ENDBRANCH   5  11
ENDBRANCH   3   4
ENDBRANCH   2   3
BRANCH   2  16
HETATM   16  O2  UNL     1       1.049  12.767  22.529  1.00  0.00    -0.337 OA
ATOM     17  H2  UNL     1       1.033  13.566  23.043  1.00  0.00     0.220 HD
ENDBRANCH   2  16
ENDBRANCH   1   2
BRANCH   1  18
HETATM   18  O3  UNL     1      -1.748  12.150  21.162  1.00  0.00    -0.352 OA
BRANCH  18  19
HETATM   19  C11 UNL     1      -1.843  13.198  20.197  1.00  0.00     0.258 C 
BRANCH  19  20
HETATM   20  O4  UNL     1      -0.851  14.040  20.242  1.00  0.00    -0.371 OA
ATOM     21  H4  UNL     1      -0.698  14.491  19.420  1.00  0.00     0.212 HD
ENDBRANCH  19  20
BRANCH  19  22
HETATM   22  C12 UNL     1      -2.899  13.400  19.234  1.00  0.00     0.077 C 
BRANCH  22  23
HETATM   23  C13 UNL     1      -4.304  13.054  19.613  1.00  0.00     0.168 C 
BRANCH  23  24
HETATM   24  S1  UNL     1      -4.881  11.850  18.393  1.00  0.00     0.234 S 
HETATM   25  O5  UNL     1      -6.034  12.328  17.615  1.00  0.00    -0.205 OA
HETATM   26  O6  UNL     1      -3.728  11.717  17.416  1.00  0.00    -0.205 OA
BRANCH  24  27
HETATM   27  N3  UNL     1      -5.194  10.320  19.141  1.00  0.00    -0.249 N 
HETATM   28  C14 UNL     1      -4.787  10.154  20.486  1.00  0.00     0.172 C 
HETATM   29  C15 UNL     1      -5.842   9.363  18.360  1.00  0.00     0.240 C 
HETATM   30  O7  UNL     1      -6.224   9.765  17.194  1.00  0.00    -0.272 OA
BRANCH  29  31
HETATM   31  C16 UNL     1      -6.154   7.948  18.678  1.00  0.00     0.031 C 
HETATM   32  C17 UNL     1      -7.037   7.345  17.572  1.00  0.00     0.025 C 
HETATM   33  C18 UNL     1      -6.928   7.844  19.943  1.00  0.00     0.025 C 
HETATM   34  C19 UNL     1      -4.868   7.157  18.634  1.00  0.00     0.025 C 
ENDBRANCH  29  31
ENDBRANCH  24  27
ENDBRANCH  23  24
ENDBRANCH  22  23
ENDBRANCH  19  22
ENDBRANCH  18  19
ENDBRANCH   1  18
TORSDOF 13
ENDMDL
MODEL 5
REMARK VINA RESULT: -7.522490867      1.138      1.415
REMARK  13 active torsions:
REMARK  status: ('A' for Active; 'I' for Inactive)
REMARK       I    between atoms: N1_2  and  C2_4 
REMARK    1  A    between atoms: C2_4  and  C3_6 
REMARK    2  A    between atoms: C8_12  and  N2_13 
REMARK    3  A    between atoms: N2_13  and  C9_14 
REMARK    4  A    between atoms: C9_14  and  O2_15 
REMARK    5  A    between atoms: C9_14  and  C10_17 
REMARK    6  A    between atoms: C10_17  and  O3_18 
REMARK    7  A    between atoms: O3_18  and  C11_19 
REMARK    8  A    between atoms: C11_19  and  O4_20 
REMARK    9  A    between atoms: C11_19  and  C12_22 
REMARK   10  A    between atoms: C12_22  and  C13_23 
REMARK   11  A    between atoms: C13_23  and  S1_24 
REMARK   12  A    between atoms: S1_24  and  N3_27 
REMARK       I    between atoms: N3_27  and  C15_29 
REMARK   13  A    between atoms: C15_29  and  C16_31 
ROOT
HETATM    1  C10 UNL     1      -1.399  11.984  21.491  1.00  0.00     0.271 C 
ENDROOT
BRANCH   1   2
HETATM    2  C9  UNL     1      -0.467  11.860  22.710  1.00  0.00     0.214 C 
BRANCH   2   3
HETATM    3  N2  UNL     1      -0.720  11.188  23.851  1.00  0.00    -0.382 NA
BRANCH   3   4
HETATM    4  C8  UNL     1      -0.977  10.525  24.999  1.00  0.00     0.125 A 
HETATM    5  C3  UNL     1      -2.182  10.604  25.661  1.00  0.00     0.073 A 
HETATM    6  C4  UNL     1      -2.525   9.696  26.639  1.00  0.00     0.039 A 
HETATM    7  C5  UNL     1      -1.643   8.660  26.996  1.00  0.00     0.012 A 
HETATM    8 BR1  UNL     1      -2.137   7.417  28.356  1.00  0.00    -0.051 Br
HETATM    9  C6  UNL     1      -0.462   8.597  26.351  1.00  0.00     0.022 A 
HETATM   10  C7  UNL     1      -0.069   9.458  25.375  1.00  0.00     0.047 A 
BRANCH   5  11
HETATM   11  C2  UNL     1      -3.038  11.783  25.476  1.00  0.00     0.254 C 
HETATM   12  N1  UNL     1      -4.369  11.634  25.006  1.00  0.00    -0.361 N 
HETATM   13  C1  UNL     1      -5.256  12.809  24.853  1.00  0.00     0.149 C 
ATOM     14  H1  UNL     1      -4.718  10.706  24.770  1.00  0.00     0.162 HD
HETATM   15  O1  UNL     1      -2.634  12.903  25.717  1.00  0.00    -0.268 OA
ENDBRANCH   5  11
ENDBRANCH   3   4
ENDBRANCH   2   3
BRANCH   2  16
HETATM   16  O2  UNL     1       0.657  12.481  22.482  1.00  0.00    -0.337 OA
ATOM     17  H2  UNL     1       0.769  13.417  22.604  1.00  0.00     0.220 HD
ENDBRANCH   2  16
ENDBRANCH   1   2
BRANCH   1  18
HETATM   18  O3  UNL     1      -2.735  11.998  22.159  1.00  0.00    -0.352 OA
BRANCH  18  19
HETATM   19  C11 UNL     1      -3.534  10.907  21.698  1.00  0.00     0.258 C 
BRANCH  19  20
HETATM   20  O4  UNL     1      -3.705   9.973  22.587  1.00  0.00    -0.371 OA
ATOM     21  H4  UNL     1      -2.943   9.418  22.707  1.00  0.00     0.212 HD
ENDBRANCH  19  20
BRANCH  19  22
HETATM   22  C12 UNL     1      -4.125  10.755  20.389  1.00  0.00     0.077 C 
BRANCH  22  23
HETATM   23  C13 UNL     1      -4.775  11.937  19.743  1.00  0.00     0.168 C 
BRANCH  23  24
HETATM   24  S1  UNL     1      -5.428  11.360  18.158  1.00  0.00     0.234 S 
HETATM   25  O5  UNL     1      -6.099  12.421  17.393  1.00  0.00    -0.205 OA
HETATM   26  O6  UNL     1      -4.197  10.967  17.361  1.00  0.00    -0.205 OA
BRANCH  24  27
HETATM   27  N3  UNL     1      -6.447   9.978  18.381  1.00  0.00    -0.249 N 
HETATM   28  C14 UNL     1      -7.772  10.208  18.822  1.00  0.00     0.172 C 
HETATM   29  C15 UNL     1      -5.886   8.734  18.092  1.00  0.00     0.240 C 
HETATM   30  O7  UNL     1      -4.695   8.765  17.596  1.00  0.00    -0.272 OA
BRANCH  29  31
HETATM   31  C16 UNL     1      -6.464   7.380  18.277  1.00  0.00     0.031 C 
HETATM   32  C17 UNL     1      -5.356   6.318  18.160  1.00  0.00     0.025 C 
HETATM   33  C18 UNL     1      -7.459   7.075  17.215  1.00  0.00     0.025 C 
HETATM   34  C19 UNL     1      -6.970   7.269  19.695  1.00  0.00     0.025 C 
ENDBRANCH  29  31
ENDBRANCH  24  27
ENDBRANCH  23  24
ENDBRANCH  22  23
ENDBRANCH  19  22
ENDBRANCH  18  19
ENDBRANCH   1  18
TORSDOF 13
ENDMDL
