MODEL 1
REMARK VINA RESULT: -8.925316366      0.000      0.000
REMARK  10 active torsions:
REMARK  status: ('A' for Active; 'I' for Inactive)
REMARK    1  A    between atoms: O1_1  and  C1_3 
REMARK    2  A    between atoms: C1_3  and  C2_4 
REMARK    3  A    between atoms: C1_3  and  N2_25 
REMARK    4  A    between atoms: C2_4  and  O2_5 
REMARK    5  A    between atoms: O2_5  and  C3_6 
REMARK    6  A    between atoms: C3_6  and  C4_7 
REMARK    7  A    between atoms: N1_14  and  C11_15 
REMARK    8  A    between atoms: C11_15  and  O3_16 
REMARK    9  A    between atoms: C11_15  and  C12_18 
REMARK   10  A    between atoms: N3_28  and  C19_29 
ROOT
HETATM    1  C4  UNL     1      -3.511  11.310  21.007  1.00  0.00     0.146 C 
HETATM    2  C5  UNL     1      -2.637  10.759  19.911  1.00  0.00     0.034 C 
HETATM    3  C6  UNL     1      -1.462  10.100  20.560  1.00  0.00     0.006 C 
HETATM    4  C7  UNL     1      -1.505  10.116  22.066  1.00  0.00     0.038 C 
HETATM    5  C8  UNL     1      -2.006  11.383  22.659  1.00  0.00     0.067 C 
HETATM    6  C9  UNL     1      -0.888  12.227  23.243  1.00  0.00     0.058 C 
HETATM    7  C10 UNL     1      -0.147  11.479  24.345  1.00  0.00     0.130 C 
HETATM    8  N1  UNL     1      -1.141  10.594  25.023  1.00  0.00    -0.334 N 
HETATM    9  C15 UNL     1      -2.432  11.161  25.119  1.00  0.00     0.275 C 
HETATM   10  F1  UNL     1      -3.291  10.622  26.008  1.00  0.00    -0.227 F 
HETATM   11  C16 UNL     1      -3.056  11.028  23.716  1.00  0.00     0.097 C 
HETATM   12  O4  UNL     1      -2.688  12.203  21.741  1.00  0.00    -0.372 OA
ENDROOT
BRANCH   1  13
HETATM   13  C3  UNL     1      -4.736  12.037  20.488  1.00  0.00     0.200 C 
BRANCH  13  14
HETATM   14  O2  UNL     1      -5.243  12.838  21.469  1.00  0.00    -0.381 OA
BRANCH  14  15
HETATM   15  C2  UNL     1      -6.577  13.024  21.540  1.00  0.00     0.251 C 
BRANCH  15  16
HETATM   16  C1  UNL     1      -7.378  11.886  21.969  1.00  0.00     0.138 C 
BRANCH  16  17
HETATM   17  O1  UNL     1      -7.427  11.589  23.236  1.00  0.00    -0.348 OA
ATOM     18  H1  UNL     1      -7.722  10.724  23.496  1.00  0.00     0.219 HD
ENDBRANCH  16  17
BRANCH  16  19
HETATM   19  N2  UNL     1      -8.117  11.051  21.134  1.00  0.00    -0.360 N 
HETATM   20  C17 UNL     1      -8.605  11.392  19.821  1.00  0.00     0.155 C 
HETATM   21  C18 UNL     1      -8.429  10.103  18.985  1.00  0.00     0.292 C 
HETATM   22  N3  UNL     1      -7.282   9.424  19.496  1.00  0.00     0.096 N 
HETATM   23  C24 UNL     1      -7.551   8.755  20.754  1.00  0.00     0.292 C 
HETATM   24  C25 UNL     1      -8.470   9.672  21.573  1.00  0.00     0.155 C 
BRANCH  22  25
HETATM   25  C19 UNL     1      -6.558   8.634  18.551  1.00  0.00     0.223 C 
HETATM   26  C20 UNL     1      -5.230   8.165  19.078  1.00  0.00     0.036 C 
HETATM   27  C21 UNL     1      -5.076   6.800  18.497  1.00  0.00     0.002 C 
HETATM   28  C22 UNL     1      -6.489   6.230  18.448  1.00  0.00     0.002 C 
HETATM   29  C23 UNL     1      -7.365   7.434  18.155  1.00  0.00     0.036 C 
ENDBRANCH  22  25
ENDBRANCH  16  19
ENDBRANCH  15  16
ENDBRANCH  14  15
ENDBRANCH  13  14
ENDBRANCH   1  13
BRANCH   8  30
HETATM   30  C11 UNL     1      -0.700   9.362  25.461  1.00  0.00     0.119 C 
BRANCH  30  31
HETATM   31  O3  UNL     1      -0.245   8.494  24.602  1.00  0.00    -0.349 OA
ATOM     32  H3  UNL     1      -0.812   8.173  23.910  1.00  0.00     0.219 HD
ENDBRANCH  30  31
BRANCH  30  33
HETATM   33  C12 UNL     1      -0.692   8.907  26.855  1.00  0.00     0.060 A 
HETATM   34  C13 UNL     1      -0.836   7.438  27.069  1.00  0.00     0.013 A 
HETATM   35  C14 UNL     1      -2.012   8.277  27.298  1.00  0.00     0.013 A 
ENDBRANCH  30  33
ENDBRANCH   8  30
TORSDOF 10
ENDMDL
MODEL 2
REMARK VINA RESULT: -8.816401491      2.098      3.723
REMARK  10 active torsions:
REMARK  status: ('A' for Active; 'I' for Inactive)
REMARK    1  A    between atoms: O1_1  and  C1_3 
REMARK    2  A    between atoms: C1_3  and  C2_4 
REMARK    3  A    between atoms: C1_3  and  N2_25 
REMARK    4  A    between atoms: C2_4  and  O2_5 
REMARK    5  A    between atoms: O2_5  and  C3_6 
REMARK    6  A    between atoms: C3_6  and  C4_7 
REMARK    7  A    between atoms: N1_14  and  C11_15 
REMARK    8  A    between atoms: C11_15  and  O3_16 
REMARK    9  A    between atoms: C11_15  and  C12_18 
REMARK   10  A    between atoms: N3_28  and  C19_29 
ROOT
HETATM    1  C4  UNL     1      -5.752  13.427  23.970  1.00  0.00     0.146 C 
HETATM    2  C5  UNL     1      -5.544  14.543  24.960  1.00  0.00     0.034 C 
HETATM    3  C6  UNL     1      -4.112  14.502  25.390  1.00  0.00     0.006 C 
HETATM    4  C7  UNL     1      -3.295  13.442  24.702  1.00  0.00     0.038 C 
HETATM    5  C8  UNL     1      -3.997  12.147  24.503  1.00  0.00     0.067 C 
HETATM    6  C9  UNL     1      -3.525  11.082  25.476  1.00  0.00     0.058 C 
HETATM    7  C10 UNL     1      -2.033  10.811  25.320  1.00  0.00     0.130 C 
HETATM    8  N1  UNL     1      -1.696  11.018  23.880  1.00  0.00    -0.334 N 
HETATM    9  C15 UNL     1      -2.718  10.609  22.993  1.00  0.00     0.275 C 
HETATM   10  F1  UNL     1      -2.389  10.415  21.700  1.00  0.00    -0.227 F 
HETATM   11  C16 UNL     1      -3.791  11.714  23.049  1.00  0.00     0.097 C 
HETATM   12  O4  UNL     1      -5.394  12.236  24.654  1.00  0.00    -0.372 OA
ENDROOT
BRANCH   1  13
HETATM   13  C3  UNL     1      -7.179  13.330  23.467  1.00  0.00     0.200 C 
BRANCH  13  14
HETATM   14  O2  UNL     1      -7.502  12.022  23.258  1.00  0.00    -0.381 OA
BRANCH  14  15
HETATM   15  C2  UNL     1      -8.275  11.698  22.201  1.00  0.00     0.251 C 
BRANCH  15  16
HETATM   16  C1  UNL     1      -7.805  10.615  21.348  1.00  0.00     0.138 C 
BRANCH  16  17
HETATM   17  O1  UNL     1      -8.023   9.384  21.712  1.00  0.00    -0.348 OA
ATOM     18  H1  UNL     1      -8.173   8.725  21.045  1.00  0.00     0.219 HD
ENDBRANCH  16  17
BRANCH  16  19
HETATM   19  N2  UNL     1      -7.116  10.766  20.147  1.00  0.00    -0.360 N 
HETATM   20  C17 UNL     1      -5.686  10.699  19.983  1.00  0.00     0.155 C 
HETATM   21  C18 UNL     1      -5.474   9.959  18.641  1.00  0.00     0.292 C 
HETATM   22  N3  UNL     1      -6.557   9.040  18.494  1.00  0.00     0.096 N 
HETATM   23  C24 UNL     1      -7.792   9.698  18.113  1.00  0.00     0.292 C 
HETATM   24  C25 UNL     1      -7.860  11.024  18.883  1.00  0.00     0.155 C 
BRANCH  22  25
HETATM   25  C19 UNL     1      -6.266   7.855  17.750  1.00  0.00     0.223 C 
HETATM   26  C20 UNL     1      -4.993   7.187  18.191  1.00  0.00     0.036 C 
HETATM   27  C21 UNL     1      -5.288   5.731  18.058  1.00  0.00     0.002 C 
HETATM   28  C22 UNL     1      -6.766   5.594  18.407  1.00  0.00     0.002 C 
HETATM   29  C23 UNL     1      -7.391   6.873  17.883  1.00  0.00     0.036 C 
ENDBRANCH  22  25
ENDBRANCH  16  19
ENDBRANCH  15  16
ENDBRANCH  14  15
ENDBRANCH  13  14
ENDBRANCH   1  13
BRANCH   8  30
HETATM   30  C11 UNL     1      -0.466  11.570  23.589  1.00  0.00     0.119 C 
BRANCH  30  31
HETATM   31  O3  UNL     1       0.514  11.456  24.441  1.00  0.00    -0.349 OA
ATOM     32  H3  UNL     1       0.430  11.831  25.309  1.00  0.00     0.219 HD
ENDBRANCH  30  31
BRANCH  30  33
HETATM   33  C12 UNL     1      -0.132  12.308  22.366  1.00  0.00     0.060 A 
HETATM   34  C13 UNL     1       0.790  13.470  22.528  1.00  0.00     0.013 A 
HETATM   35  C14 UNL     1      -0.637  13.750  22.366  1.00  0.00     0.013 A 
ENDBRANCH  30  33
ENDBRANCH   8  30
TORSDOF 10
ENDMDL
MODEL 3
REMARK VINA RESULT: -8.633339441      1.650      2.576
REMARK  10 active torsions:
REMARK  status: ('A' for Active; 'I' for Inactive)
REMARK    1  A    between atoms: O1_1  and  C1_3 
REMARK    2  A    between atoms: C1_3  and  C2_4 
REMARK    3  A    between atoms: C1_3  and  N2_25 
REMARK    4  A    between atoms: C2_4  and  O2_5 
REMARK    5  A    between atoms: O2_5  and  C3_6 
REMARK    6  A    between atoms: C3_6  and  C4_7 
REMARK    7  A    between atoms: N1_14  and  C11_15 
REMARK    8  A    between atoms: C11_15  and  O3_16 
REMARK    9  A    between atoms: C11_15  and  C12_18 
REMARK   10  A    between atoms: N3_28  and  C19_29 
ROOT
HETATM    1  C4  UNL     1      -3.713  11.293  21.198  1.00  0.00     0.146 C 
HETATM    2  C5  UNL     1      -2.955  10.661  20.059  1.00  0.00     0.034 C 
HETATM    3  C6  UNL     1      -1.762   9.972  20.639  1.00  0.00     0.006 C 
HETATM    4  C7  UNL     1      -1.681  10.046  22.141  1.00  0.00     0.038 C 
HETATM    5  C8  UNL     1      -2.076  11.357  22.720  1.00  0.00     0.067 C 
HETATM    6  C9  UNL     1      -0.878  12.168  23.178  1.00  0.00     0.058 C 
HETATM    7  C10 UNL     1      -0.083  11.427  24.247  1.00  0.00     0.130 C 
HETATM    8  N1  UNL     1      -1.057  10.617  25.038  1.00  0.00    -0.334 N 
HETATM    9  C15 UNL     1      -2.310  11.247  25.213  1.00  0.00     0.275 C 
HETATM   10  F1  UNL     1      -3.116  10.783  26.189  1.00  0.00    -0.227 F 
HETATM   11  C16 UNL     1      -3.051  11.091  23.871  1.00  0.00     0.097 C 
HETATM   12  O4  UNL     1      -2.794  12.173  21.826  1.00  0.00    -0.372 OA
ENDROOT
BRANCH   1  13
HETATM   13  C3  UNL     1      -4.943  12.057  20.749  1.00  0.00     0.200 C 
BRANCH  13  14
HETATM   14  O2  UNL     1      -4.563  13.175  20.067  1.00  0.00    -0.381 OA
BRANCH  14  15
HETATM   15  C2  UNL     1      -5.114  13.428  18.863  1.00  0.00     0.251 C 
BRANCH  15  16
HETATM   16  C1  UNL     1      -4.594  12.676  17.729  1.00  0.00     0.138 C 
BRANCH  16  17
HETATM   17  O1  UNL     1      -3.440  13.009  17.226  1.00  0.00    -0.348 OA
ATOM     18  H1  UNL     1      -3.196  12.676  16.370  1.00  0.00     0.219 HD
ENDBRANCH  16  17
BRANCH  16  19
HETATM   19  N2  UNL     1      -5.229  11.605  17.104  1.00  0.00    -0.360 N 
HETATM   20  C17 UNL     1      -4.576  10.560  16.355  1.00  0.00     0.155 C 
HETATM   21  C18 UNL     1      -5.348   9.271  16.717  1.00  0.00     0.292 C 
HETATM   22  N3  UNL     1      -5.810   9.420  18.061  1.00  0.00     0.096 N 
HETATM   23  C24 UNL     1      -6.949  10.314  18.156  1.00  0.00     0.292 C 
HETATM   24  C25 UNL     1      -6.710  11.467  17.172  1.00  0.00     0.155 C 
BRANCH  22  25
HETATM   25  C19 UNL     1      -5.945   8.210  18.808  1.00  0.00     0.223 C 
HETATM   26  C20 UNL     1      -7.228   7.483  18.514  1.00  0.00     0.036 C 
HETATM   27  C21 UNL     1      -6.845   6.042  18.576  1.00  0.00     0.002 C 
HETATM   28  C22 UNL     1      -5.418   5.990  18.043  1.00  0.00     0.002 C 
HETATM   29  C23 UNL     1      -4.797   7.291  18.514  1.00  0.00     0.036 C 
ENDBRANCH  22  25
ENDBRANCH  16  19
ENDBRANCH  15  16
ENDBRANCH  14  15
ENDBRANCH  13  14
ENDBRANCH   1  13
BRANCH   8  30
HETATM   30  C11 UNL     1      -0.637   9.382  25.490  1.00  0.00     0.119 C 
BRANCH  30  31
HETATM   31  O3  UNL     1      -0.164   8.510  24.645  1.00  0.00    -0.349 OA
ATOM     32  H3  UNL     1      -0.699   7.771  24.379  1.00  0.00     0.219 HD
ENDBRANCH  30  31
BRANCH  30  33
HETATM   33  C12 UNL     1      -0.671   8.930  26.884  1.00  0.00     0.060 A 
HETATM   34  C13 UNL     1      -0.833   7.462  27.096  1.00  0.00     0.013 A 
HETATM   35  C14 UNL     1      -2.008   8.312  27.292  1.00  0.00     0.013 A 
ENDBRANCH  30  33
ENDBRANCH   8  30
TORSDOF 10
ENDMDL
MODEL 4
REMARK VINA RESULT: -8.590144218      2.579      7.527
REMARK  10 active torsions:
REMARK  status: ('A' for Active; 'I' for Inactive)
REMARK    1  A    between atoms: O1_1  and  C1_3 
REMARK    2  A    between atoms: C1_3  and  C2_4 
REMARK    3  A    between atoms: C1_3  and  N2_25 
REMARK    4  A    between atoms: C2_4  and  O2_5 
REMARK    5  A    between atoms: O2_5  and  C3_6 
REMARK    6  A    between atoms: C3_6  and  C4_7 
REMARK    7  A    between atoms: N1_14  and  C11_15 
REMARK    8  A    between atoms: C11_15  and  O3_16 
REMARK    9  A    between atoms: C11_15  and  C12_18 
REMARK   10  A    between atoms: N3_28  and  C19_29 
ROOT
HETATM    1  C4  UNL     1      -8.113  11.557  19.492  1.00  0.00     0.146 C 
HETATM    2  C5  UNL     1      -9.426  11.399  18.770  1.00  0.00     0.034 C 
HETATM    3  C6  UNL     1      -9.261  10.299  17.771  1.00  0.00     0.006 C 
HETATM    4  C7  UNL     1      -7.906   9.642  17.800  1.00  0.00     0.038 C 
HETATM    5  C8  UNL     1      -6.767  10.576  17.999  1.00  0.00     0.067 C 
HETATM    6  C9  UNL     1      -5.996  10.824  16.716  1.00  0.00     0.058 C 
HETATM    7  C10 UNL     1      -5.419   9.529  16.156  1.00  0.00     0.130 C 
HETATM    8  N1  UNL     1      -5.096   8.651  17.321  1.00  0.00    -0.334 N 
HETATM    9  C15 UNL     1      -4.624   9.357  18.450  1.00  0.00     0.275 C 
HETATM   10  F1  UNL     1      -3.975   8.658  19.403  1.00  0.00    -0.227 F 
HETATM   11  C16 UNL     1      -5.868   9.999  19.096  1.00  0.00     0.097 C 
HETATM   12  O4  UNL     1      -7.154  11.839  18.484  1.00  0.00    -0.372 OA
ENDROOT
BRANCH   1  13
HETATM   13  C3  UNL     1      -8.126  12.667  20.524  1.00  0.00     0.200 C 
BRANCH  13  14
HETATM   14  O2  UNL     1      -7.367  12.304  21.596  1.00  0.00    -0.381 OA
BRANCH  14  15
HETATM   15  C2  UNL     1      -6.286  13.045  21.916  1.00  0.00     0.251 C 
BRANCH  15  16
HETATM   16  C1  UNL     1      -5.353  12.469  22.875  1.00  0.00     0.138 C 
BRANCH  16  17
HETATM   17  O1  UNL     1      -5.808  12.027  24.012  1.00  0.00    -0.348 OA
ATOM     18  H1  UNL     1      -5.412  11.254  24.399  1.00  0.00     0.219 HD
ENDBRANCH  16  17
BRANCH  16  19
HETATM   19  N2  UNL     1      -3.977  12.345  22.696  1.00  0.00    -0.360 N 
HETATM   20  C17 UNL     1      -2.993  13.346  23.022  1.00  0.00     0.155 C 
HETATM   21  C18 UNL     1      -1.795  12.554  23.594  1.00  0.00     0.292 C 
HETATM   22  N3  UNL     1      -2.327  11.403  24.251  1.00  0.00     0.096 N 
HETATM   23  C24 UNL     1      -2.754  10.381  23.314  1.00  0.00     0.292 C 
HETATM   24  C25 UNL     1      -3.405  11.096  22.122  1.00  0.00     0.155 C 
BRANCH  22  25
HETATM   25  C19 UNL     1      -1.564  10.911  25.353  1.00  0.00     0.223 C 
HETATM   26  C20 UNL     1      -2.384  10.094  26.313  1.00  0.00     0.036 C 
HETATM   27  C21 UNL     1      -1.448   9.024  26.764  1.00  0.00     0.002 C 
HETATM   28  C22 UNL     1      -0.577   8.724  25.549  1.00  0.00     0.002 C 
HETATM   29  C23 UNL     1      -0.427  10.067  24.860  1.00  0.00     0.036 C 
ENDBRANCH  22  25
ENDBRANCH  16  19
ENDBRANCH  15  16
ENDBRANCH  14  15
ENDBRANCH  13  14
ENDBRANCH   1  13
BRANCH   8  30
HETATM   30  C11 UNL     1      -5.293   7.294  17.167  1.00  0.00     0.119 C 
BRANCH  30  31
HETATM   31  O3  UNL     1      -5.291   6.770  15.973  1.00  0.00    -0.349 OA
ATOM     32  H3  UNL     1      -4.498   6.787  15.451  1.00  0.00     0.219 HD
ENDBRANCH  30  31
BRANCH  30  33
HETATM   33  C12 UNL     1      -5.515   6.337  18.256  1.00  0.00     0.060 A 
HETATM   34  C13 UNL     1      -6.406   5.181  17.945  1.00  0.00     0.013 A 
HETATM   35  C14 UNL     1      -6.967   6.280  18.731  1.00  0.00     0.013 A 
ENDBRANCH  30  33
ENDBRANCH   8  30
TORSDOF 10
ENDMDL
MODEL 5
REMARK VINA RESULT: -8.504268305      2.283      3.236
REMARK  10 active torsions:
REMARK  status: ('A' for Active; 'I' for Inactive)
REMARK    1  A    between atoms: O1_1  and  C1_3 
REMARK    2  A    between atoms: C1_3  and  C2_4 
REMARK    3  A    between atoms: C1_3  and  N2_25 
REMARK    4  A    between atoms: C2_4  and  O2_5 
REMARK    5  A    between atoms: O2_5  and  C3_6 
REMARK    6  A    between atoms: C3_6  and  C4_7 
REMARK    7  A    between atoms: N1_14  and  C11_15 
REMARK    8  A    between atoms: C11_15  and  O3_16 
REMARK    9  A    between atoms: C11_15  and  C12_18 
REMARK   10  A    between atoms: N3_28  and  C19_29 
ROOT
HETATM    1  C4  UNL     1      -0.762  13.389  20.093  1.00  0.00     0.146 C 
HETATM    2  C5  UNL     1       0.477  14.130  20.524  1.00  0.00     0.034 C 
HETATM    3  C6  UNL     1       0.805  13.688  21.915  1.00  0.00     0.006 C 
HETATM    4  C7  UNL     1      -0.119  12.629  22.455  1.00  0.00     0.038 C 
HETATM    5  C8  UNL     1      -1.551  12.816  22.105  1.00  0.00     0.067 C 
HETATM    6  C9  UNL     1      -2.367  13.327  23.277  1.00  0.00     0.058 C 
HETATM    7  C10 UNL     1      -2.317  12.358  24.453  1.00  0.00     0.130 C 
HETATM    8  N1  UNL     1      -2.204  10.982  23.885  1.00  0.00    -0.334 N 
HETATM    9  C15 UNL     1      -2.927  10.803  22.684  1.00  0.00     0.275 C 
HETATM   10  F1  UNL     1      -3.188   9.540  22.290  1.00  0.00    -0.227 F 
HETATM   11  C16 UNL     1      -2.089  11.480  21.583  1.00  0.00     0.097 C 
HETATM   12  O4  UNL     1      -1.758  13.721  21.048  1.00  0.00    -0.372 OA
ENDROOT
BRANCH   1  13
HETATM   13  C3  UNL     1      -1.230  13.763  18.700  1.00  0.00     0.200 C 
BRANCH  13  14
HETATM   14  O2  UNL     1      -2.010  12.765  18.196  1.00  0.00    -0.381 OA
BRANCH  14  15
HETATM   15  C2  UNL     1      -3.330  12.985  18.031  1.00  0.00     0.251 C 
BRANCH  15  16
HETATM   16  C1  UNL     1      -4.121  11.879  17.507  1.00  0.00     0.138 C 
BRANCH  16  17
HETATM   17  O1  UNL     1      -3.707  11.255  16.442  1.00  0.00    -0.348 OA
ATOM     18  H1  UNL     1      -2.833  10.881  16.438  1.00  0.00     0.219 HD
ENDBRANCH  16  17
BRANCH  16  19
HETATM   19  N2  UNL     1      -5.319  11.412  18.043  1.00  0.00    -0.360 N 
HETATM   20  C17 UNL     1      -6.411  10.843  17.293  1.00  0.00     0.155 C 
HETATM   21  C18 UNL     1      -6.938   9.687  18.174  1.00  0.00     0.292 C 
HETATM   22  N3  UNL     1      -5.821   9.164  18.895  1.00  0.00     0.096 N 
HETATM   23  C24 UNL     1      -5.421  10.025  19.992  1.00  0.00     0.292 C 
HETATM   24  C25 UNL     1      -5.560  11.476  19.511  1.00  0.00     0.155 C 
BRANCH  22  25
HETATM   25  C19 UNL     1      -5.893   7.777  19.228  1.00  0.00     0.223 C 
HETATM   26  C20 UNL     1      -7.212   7.155  18.857  1.00  0.00     0.036 C 
HETATM   27  C21 UNL     1      -6.846   5.778  18.417  1.00  0.00     0.002 C 
HETATM   28  C22 UNL     1      -5.486   5.926  17.745  1.00  0.00     0.002 C 
HETATM   29  C23 UNL     1      -4.798   7.022  18.536  1.00  0.00     0.036 C 
ENDBRANCH  22  25
ENDBRANCH  16  19
ENDBRANCH  15  16
ENDBRANCH  14  15
ENDBRANCH  13  14
ENDBRANCH   1  13
BRANCH   8  30
HETATM   30  C11 UNL     1      -1.429  10.072  24.574  1.00  0.00     0.119 C 
BRANCH  30  31
HETATM   31  O3  UNL     1      -0.804   9.130  23.925  1.00  0.00    -0.349 OA
ATOM     32  H3  UNL     1       0.111   9.240  23.697  1.00  0.00     0.219 HD
ENDBRANCH  30  31
BRANCH  30  33
HETATM   33  C12 UNL     1      -1.226  10.053  26.027  1.00  0.00     0.060 A 
HETATM   34  C13 UNL     1      -1.057   8.708  26.651  1.00  0.00     0.013 A 
HETATM   35  C14 UNL     1      -2.357   9.364  26.791  1.00  0.00     0.013 A 
ENDBRANCH  30  33
ENDBRANCH   8  30
TORSDOF 10
ENDMDL
