MODEL 1
REMARK VINA RESULT: -8.301113358      0.000      0.000
REMARK  7 active torsions:
REMARK  status: ('A' for Active; 'I' for Inactive)
REMARK       I    between atoms: C2_2  and  N1_4 
REMARK    1  A    between atoms: C3_6  and  O2_7 
REMARK    2  A    between atoms: C3_6  and  C14_25 
REMARK    3  A    between atoms: O2_7  and  C4_8 
REMARK    4  A    between atoms: C4_8  and  C6_10 
REMARK       I    between atoms: C6_10  and  N2_12 
REMARK    5  A    between atoms: N2_12  and  N3_14 
REMARK    6  A    between atoms: N3_14  and  S1_16 
REMARK    7  A    between atoms: S1_16  and  C8_19 
ROOT
HETATM    1  C6  UNL     1      -3.844  10.753  21.689  1.00  0.00     0.262 C 
HETATM    2  O3  UNL     1      -3.474   9.690  22.222  1.00  0.00    -0.269 OA
HETATM    3  N2  UNL     1      -4.262  11.827  22.502  1.00  0.00    -0.274 N 
ATOM      4  H2  UNL     1      -4.559  12.676  22.021  1.00  0.00     0.185 HD
ENDROOT
BRANCH   1   5
HETATM    5  C4  UNL     1      -3.830  10.850  20.211  1.00  0.00     0.219 C 
HETATM    6  C5  UNL     1      -2.555  11.492  19.712  1.00  0.00     0.050 C 
BRANCH   5   7
HETATM    7  O2  UNL     1      -3.861   9.519  19.671  1.00  0.00    -0.320 OA
BRANCH   7   8
HETATM    8  C3  UNL     1      -4.898   9.222  18.750  1.00  0.00     0.163 C 
HETATM    9  N1  UNL     1      -4.845   9.808  17.630  1.00  0.00    -0.307 N 
HETATM   10  C2  UNL     1      -5.678   9.743  16.528  1.00  0.00     0.219 C 
ATOM     11  H1  UNL     1      -4.052  10.439  17.522  1.00  0.00     0.171 HD
HETATM   12  C1  UNL     1      -6.771  10.729  16.345  1.00  0.00     0.117 C 
HETATM   13  O1  UNL     1      -5.552   8.853  15.627  1.00  0.00    -0.274 OA
BRANCH   8  14
HETATM   14  C14 UNL     1      -5.927   8.276  19.167  1.00  0.00     0.064 C 
HETATM   15 BR1  UNL     1      -7.271   8.733  20.459  1.00  0.00    -0.046 Br
HETATM   16  C15 UNL     1      -5.918   7.056  18.623  1.00  0.00    -0.058 A 
HETATM   17  C16 UNL     1      -6.489   5.699  18.488  1.00  0.00     0.040 A 
HETATM   18  C17 UNL     1      -5.269   6.047  17.677  1.00  0.00     0.040 A 
ENDBRANCH   8  14
ENDBRANCH   7   8
ENDBRANCH   5   7
ENDBRANCH   1   5
BRANCH   3  19
HETATM   19  N3  UNL     1      -4.310  11.849  23.884  1.00  0.00    -0.118 NA
HETATM   20  C7  UNL     1      -5.276  12.892  24.282  1.00  0.00     0.156 C 
BRANCH  19  21
HETATM   21  S1  UNL     1      -2.803  12.290  24.594  1.00  0.00     0.260 S 
HETATM   22  O4  UNL     1      -1.842  12.911  23.661  1.00  0.00    -0.204 OA
HETATM   23  O5  UNL     1      -3.010  13.252  25.756  1.00  0.00    -0.204 OA
BRANCH  21  24
HETATM   24  C8  UNL     1      -2.038  10.857  25.260  1.00  0.00     0.076 A 
HETATM   25  C9  UNL     1      -2.504  10.289  26.432  1.00  0.00     0.025 A 
HETATM   26  C10 UNL     1      -1.920   9.146  26.981  1.00  0.00     0.002 A 
HETATM   27  C11 UNL     1      -0.844   8.552  26.345  1.00  0.00     0.000 A 
HETATM   28  C12 UNL     1      -0.395   9.139  25.174  1.00  0.00     0.002 A 
HETATM   29  C13 UNL     1      -0.965  10.260  24.633  1.00  0.00     0.025 A 
ENDBRANCH  21  24
ENDBRANCH  19  21
ENDBRANCH   3  19
TORSDOF 7
ENDMDL
MODEL 2
REMARK VINA RESULT: -8.263019587      1.208      1.418
REMARK  7 active torsions:
REMARK  status: ('A' for Active; 'I' for Inactive)
REMARK       I    between atoms: C2_2  and  N1_4 
REMARK    1  A    between atoms: C3_6  and  O2_7 
REMARK    2  A    between atoms: C3_6  and  C14_25 
REMARK    3  A    between atoms: O2_7  and  C4_8 
REMARK    4  A    between atoms: C4_8  and  C6_10 
REMARK       I    between atoms: C6_10  and  N2_12 
REMARK    5  A    between atoms: N2_12  and  N3_14 
REMARK    6  A    between atoms: N3_14  and  S1_16 
REMARK    7  A    between atoms: S1_16  and  C8_19 
ROOT
HETATM    1  C6  UNL     1      -3.633  10.631  21.513  1.00  0.00     0.262 C 
HETATM    2  O3  UNL     1      -4.079   9.594  22.038  1.00  0.00    -0.269 OA
HETATM    3  N2  UNL     1      -2.959  11.579  22.312  1.00  0.00    -0.274 N 
ATOM      4  H2  UNL     1      -2.615  12.414  21.839  1.00  0.00     0.185 HD
ENDROOT
BRANCH   1   5
HETATM    5  C4  UNL     1      -3.827  10.833  20.058  1.00  0.00     0.219 C 
HETATM    6  C5  UNL     1      -2.682  11.614  19.451  1.00  0.00     0.050 C 
BRANCH   5   7
HETATM    7  O2  UNL     1      -3.832   9.545  19.422  1.00  0.00    -0.320 OA
BRANCH   7   8
HETATM    8  C3  UNL     1      -4.931   9.248  18.577  1.00  0.00     0.163 C 
HETATM    9  N1  UNL     1      -4.962   9.842  17.460  1.00  0.00    -0.307 N 
HETATM   10  C2  UNL     1      -5.872   9.780  16.420  1.00  0.00     0.219 C 
ATOM     11  H1  UNL     1      -4.181  10.477  17.298  1.00  0.00     0.171 HD
HETATM   12  C1  UNL     1      -6.980  10.762  16.323  1.00  0.00     0.117 C 
HETATM   13  O1  UNL     1      -5.808   8.896  15.507  1.00  0.00    -0.274 OA
BRANCH   8  14
HETATM   14  C14 UNL     1      -5.923   8.295  19.060  1.00  0.00     0.064 C 
HETATM   15 BR1  UNL     1      -7.224   8.763  20.392  1.00  0.00    -0.046 Br
HETATM   16  C15 UNL     1      -5.910   7.060  18.551  1.00  0.00    -0.058 A 
HETATM   17  C16 UNL     1      -6.458   5.689  18.477  1.00  0.00     0.040 A 
HETATM   18  C17 UNL     1      -5.279   6.038  17.608  1.00  0.00     0.040 A 
ENDBRANCH   8  14
ENDBRANCH   7   8
ENDBRANCH   5   7
ENDBRANCH   1   5
BRANCH   3  19
HETATM   19  N3  UNL     1      -2.717  11.491  23.672  1.00  0.00    -0.118 NA
HETATM   20  C7  UNL     1      -2.631  12.868  24.200  1.00  0.00     0.156 C 
BRANCH  19  21
HETATM   21  S1  UNL     1      -1.209  10.740  24.031  1.00  0.00     0.260 S 
HETATM   22  O4  UNL     1      -0.648   9.930  22.932  1.00  0.00    -0.204 OA
HETATM   23  O5  UNL     1      -0.165  11.777  24.424  1.00  0.00    -0.204 OA
BRANCH  21  24
HETATM   24  C8  UNL     1      -1.408   9.681  25.416  1.00  0.00     0.076 A 
HETATM   25  C9  UNL     1      -2.409   9.910  26.342  1.00  0.00     0.025 A 
HETATM   26  C10 UNL     1      -2.595   9.081  27.449  1.00  0.00     0.002 A 
HETATM   27  C11 UNL     1      -1.762   7.992  27.639  1.00  0.00     0.000 A 
HETATM   28  C12 UNL     1      -0.767   7.783  26.699  1.00  0.00     0.002 A 
HETATM   29  C13 UNL     1      -0.582   8.595  25.613  1.00  0.00     0.025 A 
ENDBRANCH  21  24
ENDBRANCH  19  21
ENDBRANCH   3  19
TORSDOF 7
ENDMDL
MODEL 3
REMARK VINA RESULT: -8.170237212      2.326      2.712
REMARK  7 active torsions:
REMARK  status: ('A' for Active; 'I' for Inactive)
REMARK       I    between atoms: C2_2  and  N1_4 
REMARK    1  A    between atoms: C3_6  and  O2_7 
REMARK    2  A    between atoms: C3_6  and  C14_25 
REMARK    3  A    between atoms: O2_7  and  C4_8 
REMARK    4  A    between atoms: C4_8  and  C6_10 
REMARK       I    between atoms: C6_10  and  N2_12 
REMARK    5  A    between atoms: N2_12  and  N3_14 
REMARK    6  A    between atoms: N3_14  and  S1_16 
REMARK    7  A    between atoms: S1_16  and  C8_19 
ROOT
HETATM    1  C6  UNL     1      -3.549  12.069  20.634  1.00  0.00     0.262 C 
HETATM    2  O3  UNL     1      -4.532  12.077  21.397  1.00  0.00    -0.269 OA
HETATM    3  N2  UNL     1      -2.252  12.203  21.172  1.00  0.00    -0.274 N 
ATOM      4  H2  UNL     1      -1.478  12.194  20.508  1.00  0.00     0.185 HD
ENDROOT
BRANCH   1   5
HETATM    5  C4  UNL     1      -3.779  11.917  19.178  1.00  0.00     0.219 C 
HETATM    6  C5  UNL     1      -2.672  12.562  18.374  1.00  0.00     0.050 C 
BRANCH   5   7
HETATM    7  O2  UNL     1      -3.756  10.516  18.863  1.00  0.00    -0.320 OA
BRANCH   7   8
HETATM    8  C3  UNL     1      -5.007   9.884  18.648  1.00  0.00     0.163 C 
HETATM    9  N1  UNL     1      -5.879  10.033  19.552  1.00  0.00    -0.307 N 
HETATM   10  C2  UNL     1      -7.176   9.563  19.654  1.00  0.00     0.219 C 
ATOM     11  H1  UNL     1      -5.573  10.598  20.344  1.00  0.00     0.171 HD
HETATM   12  C1  UNL     1      -7.470   8.303  20.381  1.00  0.00     0.117 C 
HETATM   13  O1  UNL     1      -8.168  10.174  19.142  1.00  0.00    -0.274 OA
BRANCH   8  14
HETATM   14  C14 UNL     1      -5.182   9.121  17.417  1.00  0.00     0.064 C 
HETATM   15 BR1  UNL     1      -5.413   9.974  15.712  1.00  0.00    -0.046 Br
HETATM   16  C15 UNL     1      -5.182   7.788  17.496  1.00  0.00    -0.058 A 
HETATM   17  C16 UNL     1      -5.279   6.458  16.860  1.00  0.00     0.040 A 
HETATM   18  C17 UNL     1      -5.089   6.526  18.352  1.00  0.00     0.040 A 
ENDBRANCH   8  14
ENDBRANCH   7   8
ENDBRANCH   5   7
ENDBRANCH   1   5
BRANCH   3  19
HETATM   19  N3  UNL     1      -1.921  12.344  22.508  1.00  0.00    -0.118 NA
HETATM   20  C7  UNL     1      -1.510  13.747  22.721  1.00  0.00     0.156 C 
BRANCH  19  21
HETATM   21  S1  UNL     1      -0.575  11.371  22.966  1.00  0.00     0.260 S 
HETATM   22  O4  UNL     1      -0.148  10.393  21.946  1.00  0.00    -0.204 OA
HETATM   23  O5  UNL     1       0.629  12.237  23.313  1.00  0.00    -0.204 OA
BRANCH  21  24
HETATM   24  C8  UNL     1      -0.980  10.472  24.418  1.00  0.00     0.076 A 
HETATM   25  C9  UNL     1      -1.984  10.910  25.262  1.00  0.00     0.025 A 
HETATM   26  C10 UNL     1      -2.333  10.213  26.420  1.00  0.00     0.002 A 
HETATM   27  C11 UNL     1      -1.664   9.045  26.745  1.00  0.00     0.000 A 
HETATM   28  C12 UNL     1      -0.662   8.627  25.885  1.00  0.00     0.002 A 
HETATM   29  C13 UNL     1      -0.318   9.309  24.750  1.00  0.00     0.025 A 
ENDBRANCH  21  24
ENDBRANCH  19  21
ENDBRANCH   3  19
TORSDOF 7
ENDMDL
MODEL 4
REMARK VINA RESULT: -7.996900810      2.119      2.753
REMARK  7 active torsions:
REMARK  status: ('A' for Active; 'I' for Inactive)
REMARK       I    between atoms: C2_2  and  N1_4 
REMARK    1  A    between atoms: C3_6  and  O2_7 
REMARK    2  A    between atoms: C3_6  and  C14_25 
REMARK    3  A    between atoms: O2_7  and  C4_8 
REMARK    4  A    between atoms: C4_8  and  C6_10 
REMARK       I    between atoms: C6_10  and  N2_12 
REMARK    5  A    between atoms: N2_12  and  N3_14 
REMARK    6  A    between atoms: N3_14  and  S1_16 
REMARK    7  A    between atoms: S1_16  and  C8_19 
ROOT
HETATM    1  C6  UNL     1      -3.450  10.955  21.380  1.00  0.00     0.262 C 
HETATM    2  O3  UNL     1      -3.769  10.224  22.336  1.00  0.00    -0.269 OA
HETATM    3  N2  UNL     1      -2.545  12.016  21.591  1.00  0.00    -0.274 N 
ATOM      4  H2  UNL     1      -2.316  12.591  20.779  1.00  0.00     0.185 HD
ENDROOT
BRANCH   1   5
HETATM    5  C4  UNL     1      -4.036  10.681  20.047  1.00  0.00     0.219 C 
HETATM    6  C5  UNL     1      -3.321  11.452  18.960  1.00  0.00     0.050 C 
BRANCH   5   7
HETATM    7  O2  UNL     1      -3.855   9.287  19.753  1.00  0.00    -0.320 OA
BRANCH   7   8
HETATM    8  C3  UNL     1      -4.911   8.628  19.075  1.00  0.00     0.163 C 
HETATM    9  N1  UNL     1      -4.671   7.459  18.654  1.00  0.00    -0.307 N 
HETATM   10  C2  UNL     1      -5.465   6.557  17.970  1.00  0.00     0.219 C 
ATOM     11  H1  UNL     1      -3.730   7.124  18.854  1.00  0.00     0.171 HD
HETATM   12  C1  UNL     1      -5.419   6.478  16.489  1.00  0.00     0.117 C 
HETATM   13  O1  UNL     1      -6.261   5.759  18.562  1.00  0.00    -0.274 OA
BRANCH   8  14
HETATM   14  C14 UNL     1      -6.171   9.345  18.919  1.00  0.00     0.064 C 
HETATM   15 BR1  UNL     1      -6.541  10.439  17.384  1.00  0.00    -0.046 Br
HETATM   16  C15 UNL     1      -7.086   9.230  19.885  1.00  0.00    -0.058 A 
HETATM   17  C16 UNL     1      -8.412   9.553  20.452  1.00  0.00     0.040 A 
HETATM   18  C17 UNL     1      -7.496   8.654  21.240  1.00  0.00     0.040 A 
ENDBRANCH   8  14
ENDBRANCH   7   8
ENDBRANCH   5   7
ENDBRANCH   1   5
BRANCH   3  19
HETATM   19  N3  UNL     1      -1.935  12.359  22.784  1.00  0.00    -0.118 NA
HETATM   20  C7  UNL     1      -1.395  13.725  22.635  1.00  0.00     0.156 C 
BRANCH  19  21
HETATM   21  S1  UNL     1      -0.592  11.346  23.158  1.00  0.00     0.260 S 
HETATM   22  O4  UNL     1      -0.202  10.419  22.078  1.00  0.00    -0.204 OA
HETATM   23  O5  UNL     1       0.631  12.177  23.522  1.00  0.00    -0.204 OA
BRANCH  21  24
HETATM   24  C8  UNL     1      -0.976  10.377  24.570  1.00  0.00     0.076 A 
HETATM   25  C9  UNL     1      -1.971  10.770  25.446  1.00  0.00     0.025 A 
HETATM   26  C10 UNL     1      -2.303  10.016  26.573  1.00  0.00     0.002 A 
HETATM   27  C11 UNL     1      -1.625   8.838  26.834  1.00  0.00     0.000 A 
HETATM   28  C12 UNL     1      -0.633   8.465  25.944  1.00  0.00     0.002 A 
HETATM   29  C13 UNL     1      -0.306   9.203  24.838  1.00  0.00     0.025 A 
ENDBRANCH  21  24
ENDBRANCH  19  21
ENDBRANCH   3  19
TORSDOF 7
ENDMDL
MODEL 5
REMARK VINA RESULT: -7.975689972      1.630      1.973
REMARK  7 active torsions:
REMARK  status: ('A' for Active; 'I' for Inactive)
REMARK       I    between atoms: C2_2  and  N1_4 
REMARK    1  A    between atoms: C3_6  and  O2_7 
REMARK    2  A    between atoms: C3_6  and  C14_25 
REMARK    3  A    between atoms: O2_7  and  C4_8 
REMARK    4  A    between atoms: C4_8  and  C6_10 
REMARK       I    between atoms: C6_10  and  N2_12 
REMARK    5  A    between atoms: N2_12  and  N3_14 
REMARK    6  A    between atoms: N3_14  and  S1_16 
REMARK    7  A    between atoms: S1_16  and  C8_19 
ROOT
HETATM    1  C6  UNL     1      -3.411  11.023  21.443  1.00  0.00     0.262 C 
HETATM    2  O3  UNL     1      -2.989   9.908  21.801  1.00  0.00    -0.269 OA
HETATM    3  N2  UNL     1      -3.943  11.906  22.406  1.00  0.00    -0.274 N 
ATOM      4  H2  UNL     1      -4.279  12.806  22.065  1.00  0.00     0.185 HD
ENDROOT
BRANCH   1   5
HETATM    5  C4  UNL     1      -3.337  11.385  20.008  1.00  0.00     0.219 C 
HETATM    6  C5  UNL     1      -1.994  11.987  19.659  1.00  0.00     0.050 C 
BRANCH   5   7
HETATM    7  O2  UNL     1      -3.464  10.182  19.233  1.00  0.00    -0.320 OA
BRANCH   7   8
HETATM    8  C3  UNL     1      -4.779   9.739  18.943  1.00  0.00     0.163 C 
HETATM    9  N1  UNL     1      -5.653   9.935  19.837  1.00  0.00    -0.307 N 
HETATM   10  C2  UNL     1      -7.002   9.634  19.874  1.00  0.00     0.219 C 
ATOM     11  H1  UNL     1      -5.300  10.394  20.676  1.00  0.00     0.171 HD
HETATM   12  C1  UNL     1      -7.481   8.375  20.494  1.00  0.00     0.117 C 
HETATM   13  O1  UNL     1      -7.889  10.408  19.389  1.00  0.00    -0.274 OA
BRANCH   8  14
HETATM   14  C14 UNL     1      -5.013   9.099  17.653  1.00  0.00     0.064 C 
HETATM   15 BR1  UNL     1      -5.153  10.107  16.025  1.00  0.00    -0.046 Br
HETATM   16  C15 UNL     1      -5.133   7.769  17.621  1.00  0.00    -0.058 A 
HETATM   17  C16 UNL     1      -5.345   6.510  16.877  1.00  0.00     0.040 A 
HETATM   18  C17 UNL     1      -5.161   6.438  18.370  1.00  0.00     0.040 A 
ENDBRANCH   8  14
ENDBRANCH   7   8
ENDBRANCH   5   7
ENDBRANCH   1   5
BRANCH   3  19
HETATM   19  N3  UNL     1      -4.055  11.676  23.766  1.00  0.00    -0.118 NA
HETATM   20  C7  UNL     1      -5.111  12.569  24.284  1.00  0.00     0.156 C 
BRANCH  19  21
HETATM   21  S1  UNL     1      -2.618  12.076  24.627  1.00  0.00     0.260 S 
HETATM   22  O4  UNL     1      -1.563  12.704  23.808  1.00  0.00    -0.204 OA
HETATM   23  O5  UNL     1      -2.923  13.013  25.789  1.00  0.00    -0.204 OA
BRANCH  21  24
HETATM   24  C8  UNL     1      -1.940  10.617  25.328  1.00  0.00     0.076 A 
HETATM   25  C9  UNL     1      -2.452  10.094  26.501  1.00  0.00     0.025 A 
HETATM   26  C10 UNL     1      -1.938   8.930  27.077  1.00  0.00     0.002 A 
HETATM   27  C11 UNL     1      -0.886   8.269  26.467  1.00  0.00     0.000 A 
HETATM   28  C12 UNL     1      -0.391   8.812  25.293  1.00  0.00     0.002 A 
HETATM   29  C13 UNL     1      -0.893   9.952  24.726  1.00  0.00     0.025 A 
ENDBRANCH  21  24
ENDBRANCH  19  21
ENDBRANCH   3  19
TORSDOF 7
ENDMDL
