MODEL 1
REMARK VINA RESULT: -8.954552817      0.000      0.000
REMARK  9 active torsions:
REMARK  status: ('A' for Active; 'I' for Inactive)
REMARK    1  A    between atoms: N1_2  and  S1_4 
REMARK    2  A    between atoms: S1_4  and  C3_7 
REMARK    3  A    between atoms: C6_10  and  C7_11 
REMARK    4  A    between atoms: C7_11  and  O3_12 
REMARK    5  A    between atoms: C7_11  and  N2_14 
REMARK    6  A    between atoms: N2_14  and  N3_15 
REMARK    7  A    between atoms: N2_14  and  S2_23 
REMARK    8  A    between atoms: N3_15  and  C8_17 
REMARK    9  A    between atoms: S2_23  and  C14_26 
ROOT
HETATM    1  N2  UNL     1      -4.810  10.369  18.718  1.00  0.00    -0.152 N 
ENDROOT
BRANCH   1   2
HETATM    2  C7  UNL     1      -3.659  10.901  19.277  1.00  0.00     0.183 C 
BRANCH   2   3
HETATM    3  C6  UNL     1      -3.124  10.838  20.614  1.00  0.00     0.017 A 
HETATM    4  C5  UNL     1      -2.019  10.133  21.024  1.00  0.00     0.017 A 
HETATM    5  C4  UNL     1      -1.537  10.132  22.334  1.00  0.00     0.026 A 
HETATM    6  C3  UNL     1      -2.201  10.874  23.271  1.00  0.00     0.074 A 
HETATM    7  C21 UNL     1      -3.310  11.601  22.934  1.00  0.00     0.026 A 
HETATM    8  C20 UNL     1      -3.754  11.578  21.634  1.00  0.00     0.017 A 
BRANCH   6   9
HETATM    9  S1  UNL     1      -1.635  10.900  24.933  1.00  0.00     0.242 S 
HETATM   10  O1  UNL     1      -2.312  11.959  25.719  1.00  0.00    -0.206 OA
HETATM   11  O2  UNL     1      -0.152  11.232  24.930  1.00  0.00    -0.206 OA
BRANCH   9  12
HETATM   12  N1  UNL     1      -1.794   9.344  25.622  1.00  0.00    -0.215 NA
HETATM   13  C1  UNL     1      -2.412   9.355  26.911  1.00  0.00     0.129 C 
HETATM   14  C2  UNL     1      -0.570   8.603  25.577  1.00  0.00     0.129 C 
ENDBRANCH   9  12
ENDBRANCH   6   9
ENDBRANCH   2   3
BRANCH   2  15
HETATM   15  O3  UNL     1      -2.927  11.582  18.441  1.00  0.00    -0.344 OA
ATOM     16  H3  UNL     1      -2.931  12.520  18.594  1.00  0.00     0.219 HD
ENDBRANCH   2  15
ENDBRANCH   1   2
BRANCH   1  17
HETATM   17  N3  UNL     1      -5.641   9.478  19.382  1.00  0.00    -0.282 N 
ATOM     18  H3  UNL     1      -6.163   9.805  20.195  1.00  0.00     0.188 HD
BRANCH  17  19
HETATM   19  C8  UNL     1      -5.791   8.115  18.964  1.00  0.00     0.049 A 
HETATM   20  C9  UNL     1      -4.772   7.360  18.444  1.00  0.00     0.031 A 
HETATM   21  C10 UNL     1      -4.961   6.047  18.039  1.00  0.00     0.002 A 
HETATM   22  C11 UNL     1      -6.190   5.475  18.157  1.00  0.00     0.000 A 
HETATM   23  C12 UNL     1      -7.237   6.217  18.681  1.00  0.00     0.002 A 
HETATM   24  C13 UNL     1      -7.032   7.527  19.080  1.00  0.00     0.031 A 
ENDBRANCH  17  19
ENDBRANCH   1  17
BRANCH   1  25
HETATM   25  S2  UNL     1      -5.256  10.852  17.093  1.00  0.00     0.284 S 
HETATM   26  O4  UNL     1      -4.184  10.498  16.111  1.00  0.00    -0.198 OA
HETATM   27  O5  UNL     1      -5.441  12.337  17.095  1.00  0.00    -0.198 OA
BRANCH  25  28
HETATM   28  C14 UNL     1      -6.771  10.113  16.635  1.00  0.00     0.084 A 
HETATM   29  C15 UNL     1      -6.834   9.059  15.750  1.00  0.00     0.025 A 
HETATM   30  C16 UNL     1      -8.051   8.495  15.406  1.00  0.00     0.005 A 
HETATM   31  C17 UNL     1      -9.220   8.972  15.939  1.00  0.00     0.042 A 
HETATM   32  C18 UNL     1      -9.185  10.013  16.816  1.00  0.00     0.117 A 
HETATM   33  F1  UNL     1     -10.348  10.478  17.337  1.00  0.00    -0.206 F 
HETATM   34  C19 UNL     1      -7.962  10.579  17.160  1.00  0.00     0.067 A 
ENDBRANCH  25  28
ENDBRANCH   1  25
TORSDOF 9
ENDMDL
MODEL 2
REMARK VINA RESULT: -8.848969225      0.744      1.172
REMARK  9 active torsions:
REMARK  status: ('A' for Active; 'I' for Inactive)
REMARK    1  A    between atoms: N1_2  and  S1_4 
REMARK    2  A    between atoms: S1_4  and  C3_7 
REMARK    3  A    between atoms: C6_10  and  C7_11 
REMARK    4  A    between atoms: C7_11  and  O3_12 
REMARK    5  A    between atoms: C7_11  and  N2_14 
REMARK    6  A    between atoms: N2_14  and  N3_15 
REMARK    7  A    between atoms: N2_14  and  S2_23 
REMARK    8  A    between atoms: N3_15  and  C8_17 
REMARK    9  A    between atoms: S2_23  and  C14_26 
ROOT
HETATM    1  N2  UNL     1      -4.714  10.409  18.815  1.00  0.00    -0.152 N 
ENDROOT
BRANCH   1   2
HETATM    2  C7  UNL     1      -3.533  10.862  19.384  1.00  0.00     0.183 C 
BRANCH   2   3
HETATM    3  C6  UNL     1      -2.952  10.651  20.686  1.00  0.00     0.017 A 
HETATM    4  C5  UNL     1      -3.608  10.677  21.892  1.00  0.00     0.017 A 
HETATM    5  C4  UNL     1      -2.989  10.441  23.121  1.00  0.00     0.026 A 
HETATM    6  C3  UNL     1      -1.649  10.168  23.131  1.00  0.00     0.074 A 
HETATM    7  C21 UNL     1      -0.932  10.126  21.968  1.00  0.00     0.026 A 
HETATM    8  C20 UNL     1      -1.576  10.363  20.777  1.00  0.00     0.017 A 
BRANCH   6   9
HETATM    9  S1  UNL     1      -0.826   9.869  24.654  1.00  0.00     0.242 S 
HETATM   10  O1  UNL     1       0.073  10.991  25.013  1.00  0.00    -0.206 OA
HETATM   11  O2  UNL     1       0.047   8.636  24.493  1.00  0.00    -0.206 OA
BRANCH   9  12
HETATM   12  N1  UNL     1      -1.973   9.509  25.869  1.00  0.00    -0.215 NA
HETATM   13  C1  UNL     1      -2.553  10.672  26.463  1.00  0.00     0.129 C 
HETATM   14  C2  UNL     1      -1.476   8.563  26.822  1.00  0.00     0.129 C 
ENDBRANCH   9  12
ENDBRANCH   6   9
ENDBRANCH   2   3
BRANCH   2  15
HETATM   15  O3  UNL     1      -2.818  11.614  18.595  1.00  0.00    -0.344 OA
ATOM     16  H3  UNL     1      -3.306  12.315  18.178  1.00  0.00     0.219 HD
ENDBRANCH   2  15
ENDBRANCH   1   2
BRANCH   1  17
HETATM   17  N3  UNL     1      -5.583   9.537  19.454  1.00  0.00    -0.282 N 
ATOM     18  H3  UNL     1      -6.115   9.871  20.258  1.00  0.00     0.188 HD
BRANCH  17  19
HETATM   19  C8  UNL     1      -5.760   8.182  19.021  1.00  0.00     0.049 A 
HETATM   20  C9  UNL     1      -4.760   7.416  18.482  1.00  0.00     0.031 A 
HETATM   21  C10 UNL     1      -4.974   6.112  18.063  1.00  0.00     0.002 A 
HETATM   22  C11 UNL     1      -6.211   5.558  18.187  1.00  0.00     0.000 A 
HETATM   23  C12 UNL     1      -7.240   6.311  18.732  1.00  0.00     0.002 A 
HETATM   24  C13 UNL     1      -7.009   7.612  19.144  1.00  0.00     0.031 A 
ENDBRANCH  17  19
ENDBRANCH   1  17
BRANCH   1  25
HETATM   25  S2  UNL     1      -5.148  10.977  17.215  1.00  0.00     0.284 S 
HETATM   26  O4  UNL     1      -4.045  10.726  16.236  1.00  0.00    -0.198 OA
HETATM   27  O5  UNL     1      -5.391  12.451  17.305  1.00  0.00    -0.198 OA
BRANCH  25  28
HETATM   28  C14 UNL     1      -6.624  10.211  16.681  1.00  0.00     0.084 A 
HETATM   29  C15 UNL     1      -6.625   9.177  15.769  1.00  0.00     0.025 A 
HETATM   30  C16 UNL     1      -7.813   8.591  15.364  1.00  0.00     0.005 A 
HETATM   31  C17 UNL     1      -9.013   9.026  15.861  1.00  0.00     0.042 A 
HETATM   32  C18 UNL     1      -9.041  10.046  16.763  1.00  0.00     0.117 A 
HETATM   33  F1  UNL     1     -10.234  10.470  17.248  1.00  0.00    -0.206 F 
HETATM   34  C19 UNL     1      -7.846  10.634  17.168  1.00  0.00     0.067 A 
ENDBRANCH  25  28
ENDBRANCH   1  25
TORSDOF 9
ENDMDL
MODEL 3
REMARK VINA RESULT: -8.820828620      0.751      1.120
REMARK  9 active torsions:
REMARK  status: ('A' for Active; 'I' for Inactive)
REMARK    1  A    between atoms: N1_2  and  S1_4 
REMARK    2  A    between atoms: S1_4  and  C3_7 
REMARK    3  A    between atoms: C6_10  and  C7_11 
REMARK    4  A    between atoms: C7_11  and  O3_12 
REMARK    5  A    between atoms: C7_11  and  N2_14 
REMARK    6  A    between atoms: N2_14  and  N3_15 
REMARK    7  A    between atoms: N2_14  and  S2_23 
REMARK    8  A    between atoms: N3_15  and  C8_17 
REMARK    9  A    between atoms: S2_23  and  C14_26 
ROOT
HETATM    1  N2  UNL     1      -4.795  10.332  18.771  1.00  0.00    -0.152 N 
ENDROOT
BRANCH   1   2
HETATM    2  C7  UNL     1      -3.636  10.854  19.325  1.00  0.00     0.183 C 
BRANCH   2   3
HETATM    3  C6  UNL     1      -3.098  10.791  20.661  1.00  0.00     0.017 A 
HETATM    4  C5  UNL     1      -1.947  10.153  21.054  1.00  0.00     0.017 A 
HETATM    5  C4  UNL     1      -1.467  10.148  22.365  1.00  0.00     0.026 A 
HETATM    6  C3  UNL     1      -2.181  10.817  23.320  1.00  0.00     0.074 A 
HETATM    7  C21 UNL     1      -3.337  11.475  23.001  1.00  0.00     0.026 A 
HETATM    8  C20 UNL     1      -3.778  11.457  21.699  1.00  0.00     0.017 A 
BRANCH   6   9
HETATM    9  S1  UNL     1      -1.619  10.836  24.984  1.00  0.00     0.242 S 
HETATM   10  O1  UNL     1      -2.285  11.903  25.768  1.00  0.00    -0.206 OA
HETATM   11  O2  UNL     1      -0.133  11.150  24.984  1.00  0.00    -0.206 OA
BRANCH   9  12
HETATM   12  N1  UNL     1      -1.798   9.282  25.672  1.00  0.00    -0.215 NA
HETATM   13  C1  UNL     1      -2.419   9.300  26.959  1.00  0.00     0.129 C 
HETATM   14  C2  UNL     1      -0.582   8.527  25.630  1.00  0.00     0.129 C 
ENDBRANCH   9  12
ENDBRANCH   6   9
ENDBRANCH   2   3
BRANCH   2  15
HETATM   15  O3  UNL     1      -2.899  11.522  18.484  1.00  0.00    -0.344 OA
ATOM     16  H3  UNL     1      -3.079  11.331  17.571  1.00  0.00     0.219 HD
ENDBRANCH   2  15
ENDBRANCH   1   2
BRANCH   1  17
HETATM   17  N3  UNL     1      -5.620   9.434  19.432  1.00  0.00    -0.282 N 
ATOM     18  H3  UNL     1      -6.125   9.747  20.261  1.00  0.00     0.188 HD
BRANCH  17  19
HETATM   19  C8  UNL     1      -5.788   8.081  18.989  1.00  0.00     0.049 A 
HETATM   20  C9  UNL     1      -4.777   7.320  18.462  1.00  0.00     0.031 A 
HETATM   21  C10 UNL     1      -4.982   6.018  18.033  1.00  0.00     0.002 A 
HETATM   22  C11 UNL     1      -6.220   5.461  18.132  1.00  0.00     0.000 A 
HETATM   23  C12 UNL     1      -7.260   6.210  18.662  1.00  0.00     0.002 A 
HETATM   24  C13 UNL     1      -7.038   7.509  19.086  1.00  0.00     0.031 A 
ENDBRANCH  17  19
ENDBRANCH   1  17
BRANCH   1  25
HETATM   25  S2  UNL     1      -5.258  10.840  17.159  1.00  0.00     0.284 S 
HETATM   26  O4  UNL     1      -4.327  10.282  16.129  1.00  0.00    -0.198 OA
HETATM   27  O5  UNL     1      -5.189  12.334  17.115  1.00  0.00    -0.198 OA
BRANCH  25  28
HETATM   28  C14 UNL     1      -6.902  10.358  16.821  1.00  0.00     0.084 A 
HETATM   29  C15 UNL     1      -7.982  10.968  17.420  1.00  0.00     0.025 A 
HETATM   30  C16 UNL     1      -9.275  10.562  17.132  1.00  0.00     0.005 A 
HETATM   31  C17 UNL     1      -9.508   9.545  16.244  1.00  0.00     0.042 A 
HETATM   32  C18 UNL     1      -8.458   8.925  15.638  1.00  0.00     0.117 A 
HETATM   33  F1  UNL     1      -8.699   7.919  14.760  1.00  0.00    -0.206 F 
HETATM   34  C19 UNL     1      -7.160   9.334  15.929  1.00  0.00     0.067 A 
ENDBRANCH  25  28
ENDBRANCH   1  25
TORSDOF 9
ENDMDL
MODEL 4
REMARK VINA RESULT: -8.627007853      1.540      1.864
REMARK  9 active torsions:
REMARK  status: ('A' for Active; 'I' for Inactive)
REMARK    1  A    between atoms: N1_2  and  S1_4 
REMARK    2  A    between atoms: S1_4  and  C3_7 
REMARK    3  A    between atoms: C6_10  and  C7_11 
REMARK    4  A    between atoms: C7_11  and  O3_12 
REMARK    5  A    between atoms: C7_11  and  N2_14 
REMARK    6  A    between atoms: N2_14  and  N3_15 
REMARK    7  A    between atoms: N2_14  and  S2_23 
REMARK    8  A    between atoms: N3_15  and  C8_17 
REMARK    9  A    between atoms: S2_23  and  C14_26 
ROOT
HETATM    1  N2  UNL     1      -5.542  10.375  19.108  1.00  0.00    -0.152 N 
ENDROOT
BRANCH   1   2
HETATM    2  C7  UNL     1      -4.242  10.693  19.469  1.00  0.00     0.183 C 
BRANCH   2   3
HETATM    3  C6  UNL     1      -3.574  10.692  20.746  1.00  0.00     0.017 A 
HETATM    4  C5  UNL     1      -2.340  10.158  21.027  1.00  0.00     0.017 A 
HETATM    5  C4  UNL     1      -1.736  10.210  22.285  1.00  0.00     0.026 A 
HETATM    6  C3  UNL     1      -2.407  10.829  23.302  1.00  0.00     0.074 A 
HETATM    7  C21 UNL     1      -3.640  11.384  23.095  1.00  0.00     0.026 A 
HETATM    8  C20 UNL     1      -4.203  11.313  21.843  1.00  0.00     0.017 A 
BRANCH   6   9
HETATM    9  S1  UNL     1      -1.689  10.917  24.902  1.00  0.00     0.242 S 
HETATM   10  O1  UNL     1      -2.326  11.973  25.725  1.00  0.00    -0.206 OA
HETATM   11  O2  UNL     1      -0.226  11.296  24.751  1.00  0.00    -0.206 OA
BRANCH   9  12
HETATM   12  N1  UNL     1      -1.728   9.374  25.638  1.00  0.00    -0.215 NA
HETATM   13  C1  UNL     1      -2.259   9.393  26.965  1.00  0.00     0.129 C 
HETATM   14  C2  UNL     1      -0.477   8.688  25.528  1.00  0.00     0.129 C 
ENDBRANCH   9  12
ENDBRANCH   6   9
ENDBRANCH   2   3
BRANCH   2  15
HETATM   15  O3  UNL     1      -3.487  11.058  18.471  1.00  0.00    -0.344 OA
ATOM     16  H3  UNL     1      -3.806  10.781  17.620  1.00  0.00     0.219 HD
ENDBRANCH   2  15
ENDBRANCH   1   2
BRANCH   1  17
HETATM   17  N3  UNL     1      -6.234   9.288  19.623  1.00  0.00    -0.282 N 
ATOM     18  H3  UNL     1      -6.839   9.428  20.432  1.00  0.00     0.188 HD
BRANCH  17  19
HETATM   19  C8  UNL     1      -6.128   7.976  19.056  1.00  0.00     0.049 A 
HETATM   20  C9  UNL     1      -4.956   7.438  18.592  1.00  0.00     0.031 A 
HETATM   21  C10 UNL     1      -4.897   6.168  18.038  1.00  0.00     0.002 A 
HETATM   22  C11 UNL     1      -6.030   5.418  17.947  1.00  0.00     0.000 A 
HETATM   23  C12 UNL     1      -7.228   5.939  18.410  1.00  0.00     0.002 A 
HETATM   24  C13 UNL     1      -7.269   7.210  18.960  1.00  0.00     0.031 A 
ENDBRANCH  17  19
ENDBRANCH   1  17
BRANCH   1  25
HETATM   25  S2  UNL     1      -6.369  11.402  17.953  1.00  0.00     0.284 S 
HETATM   26  O4  UNL     1      -5.656  12.706  17.783  1.00  0.00    -0.198 OA
HETATM   27  O5  UNL     1      -7.744  11.666  18.481  1.00  0.00    -0.198 OA
BRANCH  25  28
HETATM   28  C14 UNL     1      -6.521  10.585  16.416  1.00  0.00     0.084 A 
HETATM   29  C15 UNL     1      -7.505   9.650  16.178  1.00  0.00     0.025 A 
HETATM   30  C16 UNL     1      -7.600   9.019  14.949  1.00  0.00     0.005 A 
HETATM   31  C17 UNL     1      -6.717   9.310  13.942  1.00  0.00     0.042 A 
HETATM   32  C18 UNL     1      -5.734  10.230  14.152  1.00  0.00     0.117 A 
HETATM   33  F1  UNL     1      -4.865  10.510  13.149  1.00  0.00    -0.206 F 
HETATM   34  C19 UNL     1      -5.641  10.863  15.387  1.00  0.00     0.067 A 
ENDBRANCH  25  28
ENDBRANCH   1  25
TORSDOF 9
ENDMDL
MODEL 5
REMARK VINA RESULT: -8.370275683      3.820      5.566
REMARK  9 active torsions:
REMARK  status: ('A' for Active; 'I' for Inactive)
REMARK    1  A    between atoms: N1_2  and  S1_4 
REMARK    2  A    between atoms: S1_4  and  C3_7 
REMARK    3  A    between atoms: C6_10  and  C7_11 
REMARK    4  A    between atoms: C7_11  and  O3_12 
REMARK    5  A    between atoms: C7_11  and  N2_14 
REMARK    6  A    between atoms: N2_14  and  N3_15 
REMARK    7  A    between atoms: N2_14  and  S2_23 
REMARK    8  A    between atoms: N3_15  and  C8_17 
REMARK    9  A    between atoms: S2_23  and  C14_26 
ROOT
HETATM    1  N2  UNL     1      -5.179  10.772  20.395  1.00  0.00    -0.152 N 
ENDROOT
BRANCH   1   2
HETATM    2  C7  UNL     1      -4.061  10.549  21.184  1.00  0.00     0.183 C 
BRANCH   2   3
HETATM    3  C6  UNL     1      -2.776  11.200  21.235  1.00  0.00     0.017 A 
HETATM    4  C5  UNL     1      -1.837  11.240  20.234  1.00  0.00     0.017 A 
HETATM    5  C4  UNL     1      -0.616  11.910  20.338  1.00  0.00     0.026 A 
HETATM    6  C3  UNL     1      -0.332  12.565  21.504  1.00  0.00     0.074 A 
HETATM    7  C21 UNL     1      -1.221  12.567  22.543  1.00  0.00     0.026 A 
HETATM    8  C20 UNL     1      -2.413  11.897  22.403  1.00  0.00     0.017 A 
BRANCH   6   9
HETATM    9  S1  UNL     1       1.193  13.418  21.683  1.00  0.00     0.242 S 
HETATM   10  O1  UNL     1       2.203  12.930  20.715  1.00  0.00    -0.206 OA
HETATM   11  O2  UNL     1       1.740  13.136  23.072  1.00  0.00    -0.206 OA
BRANCH   9  12
HETATM   12  N1  UNL     1       0.927  15.104  21.588  1.00  0.00    -0.215 NA
HETATM   13  C1  UNL     1       0.012  15.475  20.554  1.00  0.00     0.129 C 
HETATM   14  C2  UNL     1       2.150  15.846  21.568  1.00  0.00     0.129 C 
ENDBRANCH   9  12
ENDBRANCH   6   9
ENDBRANCH   2   3
BRANCH   2  15
HETATM   15  O3  UNL     1      -4.199   9.572  22.037  1.00  0.00    -0.344 OA
ATOM     16  H3  UNL     1      -4.933   8.997  21.855  1.00  0.00     0.219 HD
ENDBRANCH   2  15
ENDBRANCH   1   2
BRANCH   1  17
HETATM   17  N3  UNL     1      -5.335  10.238  19.124  1.00  0.00    -0.282 N 
ATOM     18  H3  UNL     1      -5.239  10.853  18.316  1.00  0.00     0.188 HD
BRANCH  17  19
HETATM   19  C8  UNL     1      -5.628   8.851  18.909  1.00  0.00     0.049 A 
HETATM   20  C9  UNL     1      -4.697   7.928  18.509  1.00  0.00     0.031 A 
HETATM   21  C10 UNL     1      -5.022   6.597  18.299  1.00  0.00     0.002 A 
HETATM   22  C11 UNL     1      -6.302   6.176  18.492  1.00  0.00     0.000 A 
HETATM   23  C12 UNL     1      -7.263   7.090  18.897  1.00  0.00     0.002 A 
HETATM   24  C13 UNL     1      -6.921   8.416  19.103  1.00  0.00     0.031 A 
ENDBRANCH  17  19
ENDBRANCH   1  17
BRANCH   1  25
HETATM   25  S2  UNL     1      -6.474  11.765  21.033  1.00  0.00     0.284 S 
HETATM   26  O4  UNL     1      -7.495  10.932  21.741  1.00  0.00    -0.198 OA
HETATM   27  O5  UNL     1      -7.129  12.457  19.878  1.00  0.00    -0.198 OA
BRANCH  25  28
HETATM   28  C14 UNL     1      -5.831  12.984  22.106  1.00  0.00     0.084 A 
HETATM   29  C15 UNL     1      -5.321  14.176  21.639  1.00  0.00     0.025 A 
HETATM   30  C16 UNL     1      -4.816  15.122  22.516  1.00  0.00     0.005 A 
HETATM   31  C17 UNL     1      -4.814  14.894  23.867  1.00  0.00     0.042 A 
HETATM   32  C18 UNL     1      -5.311  13.724  24.355  1.00  0.00     0.117 A 
HETATM   33  F1  UNL     1      -5.303  13.508  25.694  1.00  0.00    -0.206 F 
HETATM   34  C19 UNL     1      -5.817  12.775  23.473  1.00  0.00     0.067 A 
ENDBRANCH  25  28
ENDBRANCH   1  25
TORSDOF 9
ENDMDL
