MODEL 1
REMARK VINA RESULT: -8.836258200      0.000      0.000
REMARK  6 active torsions:
REMARK  status: ('A' for Active; 'I' for Inactive)
REMARK    1  A    between atoms: C1_2  and  C2_3 
REMARK       I    between atoms: C1_2  and  N3_25 
REMARK    2  A    between atoms: C2_3  and  C3_4 
REMARK    3  A    between atoms: N1_6  and  C5_7 
REMARK    4  A    between atoms: C5_7  and  C6_8 
REMARK       I    between atoms: C6_8  and  N2_10 
REMARK    5  A    between atoms: C11_19  and  C12_20 
REMARK    6  A    between atoms: N3_25  and  C17_27 
ROOT
HETATM    1  C3  UNL     1      -3.466  11.868  20.967  1.00  0.00     0.029 C 
HETATM    2  C4  UNL     1      -4.074  11.932  22.332  1.00  0.00     0.114 C 
HETATM    3  N1  UNL     1      -3.184  12.552  23.272  1.00  0.00    -0.201 NA
HETATM    4  S1  UNL     1      -2.377  13.733  22.315  1.00  0.00     0.217 S 
HETATM    5  O4  UNL     1      -0.967  13.959  22.761  1.00  0.00    -0.211 OA
HETATM    6  O5  UNL     1      -3.184  14.968  22.263  1.00  0.00    -0.211 OA
HETATM    7  C11 UNL     1      -2.366  12.800  20.805  1.00  0.00     0.134 C 
ENDROOT
BRANCH   1   8
HETATM    8  C2  UNL     1      -3.176  10.407  20.692  1.00  0.00     0.110 C 
BRANCH   8   9
HETATM    9  C1  UNL     1      -4.272   9.865  19.808  1.00  0.00     0.218 C 
HETATM   10  O1  UNL     1      -4.982  10.615  19.092  1.00  0.00    -0.274 OA
HETATM   11  N3  UNL     1      -4.531   8.484  19.761  1.00  0.00    -0.356 N 
ATOM     12  H3  UNL     1      -3.972   7.847  20.329  1.00  0.00     0.162 HD
BRANCH  11  13
HETATM   13  C17 UNL     1      -5.570   7.959  18.926  1.00  0.00     0.084 C 
HETATM   14  C18 UNL     1      -6.897   7.828  19.603  1.00  0.00     0.025 C 
HETATM   15  C19 UNL     1      -7.697   6.782  18.856  1.00  0.00     0.002 C 
HETATM   16  C20 UNL     1      -7.352   6.762  17.373  1.00  0.00     0.000 C 
HETATM   17  C21 UNL     1      -5.918   6.351  17.134  1.00  0.00     0.002 C 
HETATM   18  C22 UNL     1      -5.177   6.557  18.442  1.00  0.00     0.025 C 
ENDBRANCH  11  13
ENDBRANCH   8   9
ENDBRANCH   1   8
BRANCH   7  19
HETATM   19  C12 UNL     1      -2.308  13.733  19.659  1.00  0.00     0.006 C 
HETATM   20  C13 UNL     1      -0.924  14.192  19.297  1.00  0.00     0.006 C 
HETATM   21  C14 UNL     1      -0.716  13.697  17.854  1.00  0.00     0.000 C 
HETATM   22  C15 UNL     1      -2.128  13.952  17.320  1.00  0.00     0.000 C 
HETATM   23  C16 UNL     1      -2.956  13.299  18.406  1.00  0.00     0.006 C 
ENDBRANCH   7  19
BRANCH   3  24
HETATM   24  C5  UNL     1      -2.230  11.645  23.852  1.00  0.00     0.210 C 
BRANCH  24  25
HETATM   25  C6  UNL     1      -2.761  11.129  25.126  1.00  0.00     0.234 C 
HETATM   26  O2  UNL     1      -3.946  11.469  25.453  1.00  0.00    -0.272 OA
HETATM   27  N2  UNL     1      -2.034  10.286  25.994  1.00  0.00    -0.347 N 
HETATM   28  C7  UNL     1      -0.699   9.890  25.648  1.00  0.00     0.152 C 
HETATM   29  C10 UNL     1      -2.612   9.821  27.218  1.00  0.00     0.152 C 
HETATM   30  C8  UNL     1      -0.571   8.409  25.941  1.00  0.00     0.187 C 
HETATM   31  O3  UNL     1      -0.872   8.237  27.291  1.00  0.00    -0.388 OA
HETATM   32  C9  UNL     1      -2.245   8.385  27.476  1.00  0.00     0.187 C 
ENDBRANCH  24  25
ENDBRANCH   3  24
TORSDOF 6
ENDMDL
MODEL 2
REMARK VINA RESULT: -8.496705246      2.509      6.382
REMARK  6 active torsions:
REMARK  status: ('A' for Active; 'I' for Inactive)
REMARK    1  A    between atoms: C1_2  and  C2_3 
REMARK       I    between atoms: C1_2  and  N3_25 
REMARK    2  A    between atoms: C2_3  and  C3_4 
REMARK    3  A    between atoms: N1_6  and  C5_7 
REMARK    4  A    between atoms: C5_7  and  C6_8 
REMARK       I    between atoms: C6_8  and  N2_10 
REMARK    5  A    between atoms: C11_19  and  C12_20 
REMARK    6  A    between atoms: N3_25  and  C17_27 
ROOT
HETATM    1  C3  UNL     1      -2.771  11.715  21.404  1.00  0.00     0.029 C 
HETATM    2  C4  UNL     1      -1.677  11.606  20.390  1.00  0.00     0.114 C 
HETATM    3  N1  UNL     1      -0.869  12.793  20.363  1.00  0.00    -0.201 NA
HETATM    4  S1  UNL     1      -0.868  13.293  22.011  1.00  0.00     0.217 S 
HETATM    5  O4  UNL     1      -0.803  14.781  22.152  1.00  0.00    -0.211 OA
HETATM    6  O5  UNL     1       0.197  12.584  22.745  1.00  0.00    -0.211 OA
HETATM    7  C11 UNL     1      -2.513  12.744  22.392  1.00  0.00     0.134 C 
ENDROOT
BRANCH   1   8
HETATM    8  C2  UNL     1      -4.069  11.815  20.628  1.00  0.00     0.110 C 
BRANCH   8   9
HETATM    9  C1  UNL     1      -4.679  10.438  20.545  1.00  0.00     0.218 C 
HETATM   10  O1  UNL     1      -4.710   9.663  21.534  1.00  0.00    -0.274 OA
HETATM   11  N3  UNL     1      -5.239   9.979  19.340  1.00  0.00    -0.356 N 
ATOM     12  H3  UNL     1      -5.230  10.584  18.518  1.00  0.00     0.162 HD
BRANCH  11  13
HETATM   13  C17 UNL     1      -5.820   8.673  19.250  1.00  0.00     0.084 C 
HETATM   14  C18 UNL     1      -4.847   7.588  18.912  1.00  0.00     0.025 C 
HETATM   15  C19 UNL     1      -5.625   6.442  18.300  1.00  0.00     0.002 C 
HETATM   16  C20 UNL     1      -7.031   6.346  18.874  1.00  0.00     0.000 C 
HETATM   17  C21 UNL     1      -7.862   7.562  18.534  1.00  0.00     0.002 C 
HETATM   18  C22 UNL     1      -6.892   8.665  18.153  1.00  0.00     0.025 C 
ENDBRANCH  11  13
ENDBRANCH   8   9
ENDBRANCH   1   8
BRANCH   7  19
HETATM   19  C12 UNL     1      -2.606  12.463  23.842  1.00  0.00     0.006 C 
HETATM   20  C13 UNL     1      -3.664  13.249  24.563  1.00  0.00     0.006 C 
HETATM   21  C14 UNL     1      -4.622  12.183  25.126  1.00  0.00     0.000 C 
HETATM   22  C15 UNL     1      -3.584  11.128  25.518  1.00  0.00     0.000 C 
HETATM   23  C16 UNL     1      -2.771  11.053  24.243  1.00  0.00     0.006 C 
ENDBRANCH   7  19
BRANCH   3  24
HETATM   24  C5  UNL     1      -1.401  13.836  19.527  1.00  0.00     0.210 C 
BRANCH  24  25
HETATM   25  C6  UNL     1      -1.258  13.446  18.113  1.00  0.00     0.234 C 
HETATM   26  O2  UNL     1      -0.113  13.042  17.724  1.00  0.00    -0.272 OA
HETATM   27  N2  UNL     1      -2.314  13.495  17.177  1.00  0.00    -0.347 N 
HETATM   28  C7  UNL     1      -3.611  13.946  17.591  1.00  0.00     0.152 C 
HETATM   29  C10 UNL     1      -2.106  13.100  15.817  1.00  0.00     0.152 C 
HETATM   30  C8  UNL     1      -4.636  13.003  16.992  1.00  0.00     0.187 C 
HETATM   31  O3  UNL     1      -4.450  13.030  15.611  1.00  0.00    -0.388 OA
HETATM   32  C9  UNL     1      -3.288  12.332  15.292  1.00  0.00     0.187 C 
ENDBRANCH  24  25
ENDBRANCH   3  24
TORSDOF 6
ENDMDL
MODEL 3
REMARK VINA RESULT: -8.475647629      2.300      6.574
REMARK  6 active torsions:
REMARK  status: ('A' for Active; 'I' for Inactive)
REMARK    1  A    between atoms: C1_2  and  C2_3 
REMARK       I    between atoms: C1_2  and  N3_25 
REMARK    2  A    between atoms: C2_3  and  C3_4 
REMARK    3  A    between atoms: N1_6  and  C5_7 
REMARK    4  A    between atoms: C5_7  and  C6_8 
REMARK       I    between atoms: C6_8  and  N2_10 
REMARK    5  A    between atoms: C11_19  and  C12_20 
REMARK    6  A    between atoms: N3_25  and  C17_27 
ROOT
HETATM    1  C3  UNL     1      -3.187  11.120  22.176  1.00  0.00     0.029 C 
HETATM    2  C4  UNL     1      -2.683  10.840  20.796  1.00  0.00     0.114 C 
HETATM    3  N1  UNL     1      -1.667  11.778  20.410  1.00  0.00    -0.201 NA
HETATM    4  S1  UNL     1      -0.851  12.092  21.892  1.00  0.00     0.217 S 
HETATM    5  O4  UNL     1      -0.329  13.491  21.968  1.00  0.00    -0.211 OA
HETATM    6  O5  UNL     1       0.184  11.064  22.117  1.00  0.00    -0.211 OA
HETATM    7  C11 UNL     1      -2.273  11.944  22.944  1.00  0.00     0.134 C 
ENDROOT
BRANCH   1   8
HETATM    8  C2  UNL     1      -4.606  11.626  22.023  1.00  0.00     0.110 C 
BRANCH   8   9
HETATM    9  C1  UNL     1      -5.244  10.902  20.863  1.00  0.00     0.218 C 
HETATM   10  O1  UNL     1      -5.536  11.488  19.791  1.00  0.00    -0.274 OA
HETATM   11  N3  UNL     1      -5.532   9.528  20.953  1.00  0.00    -0.356 N 
ATOM     12  H3  UNL     1      -5.308   9.022  21.810  1.00  0.00     0.162 HD
BRANCH  11  13
HETATM   13  C17 UNL     1      -6.138   8.831  19.859  1.00  0.00     0.084 C 
HETATM   14  C18 UNL     1      -7.310   7.982  20.242  1.00  0.00     0.025 C 
HETATM   15  C19 UNL     1      -7.473   6.913  19.183  1.00  0.00     0.002 C 
HETATM   16  C20 UNL     1      -7.033   7.405  17.812  1.00  0.00     0.000 C 
HETATM   17  C21 UNL     1      -5.555   7.720  17.774  1.00  0.00     0.002 C 
HETATM   18  C22 UNL     1      -5.106   7.898  19.213  1.00  0.00     0.025 C 
ENDBRANCH  11  13
ENDBRANCH   8   9
ENDBRANCH   1   8
BRANCH   7  19
HETATM   19  C12 UNL     1      -1.833  11.550  24.301  1.00  0.00     0.006 C 
HETATM   20  C13 UNL     1      -2.802  11.896  25.395  1.00  0.00     0.006 C 
HETATM   21  C14 UNL     1      -3.188  10.540  26.015  1.00  0.00     0.000 C 
HETATM   22  C15 UNL     1      -1.819   9.859  25.940  1.00  0.00     0.000 C 
HETATM   23  C16 UNL     1      -1.449  10.139  24.499  1.00  0.00     0.006 C 
ENDBRANCH   7  19
BRANCH   3  24
HETATM   24  C5  UNL     1      -2.188  13.002  19.860  1.00  0.00     0.210 C 
BRANCH  24  25
HETATM   25  C6  UNL     1      -1.480  13.311  18.606  1.00  0.00     0.234 C 
HETATM   26  O2  UNL     1      -0.269  12.926  18.500  1.00  0.00    -0.272 OA
HETATM   27  N2  UNL     1      -2.067  14.005  17.525  1.00  0.00    -0.347 N 
HETATM   28  C7  UNL     1      -3.428  14.448  17.620  1.00  0.00     0.152 C 
HETATM   29  C10 UNL     1      -1.320  14.273  16.333  1.00  0.00     0.152 C 
HETATM   30  C8  UNL     1      -4.108  14.125  16.305  1.00  0.00     0.187 C 
HETATM   31  O3  UNL     1      -3.379  14.769  15.306  1.00  0.00    -0.388 OA
HETATM   32  C9  UNL     1      -2.176  14.094  15.110  1.00  0.00     0.187 C 
ENDBRANCH  24  25
ENDBRANCH   3  24
TORSDOF 6
ENDMDL
MODEL 4
REMARK VINA RESULT: -8.390069252      1.727      2.327
REMARK  6 active torsions:
REMARK  status: ('A' for Active; 'I' for Inactive)
REMARK    1  A    between atoms: C1_2  and  C2_3 
REMARK       I    between atoms: C1_2  and  N3_25 
REMARK    2  A    between atoms: C2_3  and  C3_4 
REMARK    3  A    between atoms: N1_6  and  C5_7 
REMARK    4  A    between atoms: C5_7  and  C6_8 
REMARK       I    between atoms: C6_8  and  N2_10 
REMARK    5  A    between atoms: C11_19  and  C12_20 
REMARK    6  A    between atoms: N3_25  and  C17_27 
ROOT
HETATM    1  C3  UNL     1      -3.138  12.811  22.698  1.00  0.00     0.029 C 
HETATM    2  C4  UNL     1      -2.575  12.645  24.073  1.00  0.00     0.114 C 
HETATM    3  N1  UNL     1      -1.469  11.731  24.079  1.00  0.00    -0.201 NA
HETATM    4  S1  UNL     1      -0.721  12.025  22.556  1.00  0.00     0.217 S 
HETATM    5  O4  UNL     1      -0.097  10.793  21.982  1.00  0.00    -0.211 OA
HETATM    6  O5  UNL     1       0.215  13.160  22.673  1.00  0.00    -0.211 OA
HETATM    7  C11 UNL     1      -2.211  12.392  21.664  1.00  0.00     0.134 C 
ENDROOT
BRANCH   1   8
HETATM    8  C2  UNL     1      -4.502  12.153  22.707  1.00  0.00     0.110 C 
BRANCH   8   9
HETATM    9  C1  UNL     1      -4.456  10.957  21.788  1.00  0.00     0.218 C 
HETATM   10  O1  UNL     1      -3.816   9.916  22.082  1.00  0.00    -0.274 OA
HETATM   11  N3  UNL     1      -5.140  10.976  20.560  1.00  0.00    -0.356 N 
ATOM     12  H3  UNL     1      -5.669  11.806  20.291  1.00  0.00     0.162 HD
BRANCH  11  13
HETATM   13  C17 UNL     1      -5.102   9.846  19.679  1.00  0.00     0.084 C 
HETATM   14  C18 UNL     1      -5.002  10.199  18.229  1.00  0.00     0.025 C 
HETATM   15  C19 UNL     1      -5.537   9.030  17.430  1.00  0.00     0.002 C 
HETATM   16  C20 UNL     1      -5.280   7.704  18.131  1.00  0.00     0.000 C 
HETATM   17  C21 UNL     1      -6.023   7.607  19.443  1.00  0.00     0.002 C 
HETATM   18  C22 UNL     1      -6.386   9.024  19.849  1.00  0.00     0.025 C 
ENDBRANCH  11  13
ENDBRANCH   8   9
ENDBRANCH   1   8
BRANCH   7  19
HETATM   19  C12 UNL     1      -1.886  13.268  20.517  1.00  0.00     0.006 C 
HETATM   20  C13 UNL     1      -2.508  12.849  19.216  1.00  0.00     0.006 C 
HETATM   21  C14 UNL     1      -3.406  14.035  18.816  1.00  0.00     0.000 C 
HETATM   22  C15 UNL     1      -2.495  15.176  19.277  1.00  0.00     0.000 C 
HETATM   23  C16 UNL     1      -2.156  14.710  20.676  1.00  0.00     0.006 C 
ENDBRANCH   7  19
BRANCH   3  24
HETATM   24  C5  UNL     1      -1.859  10.350  24.182  1.00  0.00     0.210 C 
BRANCH  24  25
HETATM   25  C6  UNL     1      -2.573  10.141  25.454  1.00  0.00     0.234 C 
HETATM   26  O2  UNL     1      -3.724  10.675  25.579  1.00  0.00    -0.272 OA
HETATM   27  N2  UNL     1      -2.055   9.387  26.529  1.00  0.00    -0.347 N 
HETATM   28  C7  UNL     1      -0.763   8.776  26.411  1.00  0.00     0.152 C 
HETATM   29  C10 UNL     1      -2.804   9.223  27.738  1.00  0.00     0.152 C 
HETATM   30  C8  UNL     1      -0.870   7.367  26.960  1.00  0.00     0.187 C 
HETATM   31  O3  UNL     1      -1.317   7.479  28.275  1.00  0.00    -0.388 OA
HETATM   32  C9  UNL     1      -2.667   7.824  28.272  1.00  0.00     0.187 C 
ENDBRANCH  24  25
ENDBRANCH   3  24
TORSDOF 6
ENDMDL
MODEL 5
REMARK VINA RESULT: -8.371053223      2.708      6.811
REMARK  6 active torsions:
REMARK  status: ('A' for Active; 'I' for Inactive)
REMARK    1  A    between atoms: C1_2  and  C2_3 
REMARK       I    between atoms: C1_2  and  N3_25 
REMARK    2  A    between atoms: C2_3  and  C3_4 
REMARK    3  A    between atoms: N1_6  and  C5_7 
REMARK    4  A    between atoms: C5_7  and  C6_8 
REMARK       I    between atoms: C6_8  and  N2_10 
REMARK    5  A    between atoms: C11_19  and  C12_20 
REMARK    6  A    between atoms: N3_25  and  C17_27 
ROOT
HETATM    1  C3  UNL     1      -2.077  11.841  20.848  1.00  0.00     0.029 C 
HETATM    2  C4  UNL     1      -1.337  12.126  19.580  1.00  0.00     0.114 C 
HETATM    3  N1  UNL     1      -0.570  13.335  19.683  1.00  0.00    -0.201 NA
HETATM    4  S1  UNL     1      -0.074  13.336  21.331  1.00  0.00     0.217 S 
HETATM    5  O4  UNL     1       0.037  14.719  21.890  1.00  0.00    -0.211 OA
HETATM    6  O5  UNL     1       1.160  12.540  21.479  1.00  0.00    -0.211 OA
HETATM    7  C11 UNL     1      -1.530  12.559  21.984  1.00  0.00     0.134 C 
ENDROOT
BRANCH   1   8
HETATM    8  C2  UNL     1      -3.547  12.049  20.546  1.00  0.00     0.110 C 
BRANCH   8   9
HETATM    9  C1  UNL     1      -4.226  10.702  20.550  1.00  0.00     0.218 C 
HETATM   10  O1  UNL     1      -4.158   9.925  21.535  1.00  0.00    -0.274 OA
HETATM   11  N3  UNL     1      -4.965  10.273  19.433  1.00  0.00    -0.356 N 
ATOM     12  H3  UNL     1      -5.040  10.881  18.617  1.00  0.00     0.162 HD
BRANCH  11  13
HETATM   13  C17 UNL     1      -5.613   8.996  19.426  1.00  0.00     0.084 C 
HETATM   14  C18 UNL     1      -4.776   7.884  18.876  1.00  0.00     0.025 C 
HETATM   15  C19 UNL     1      -5.711   6.793  18.401  1.00  0.00     0.002 C 
HETATM   16  C20 UNL     1      -6.982   6.735  19.237  1.00  0.00     0.000 C 
HETATM   17  C21 UNL     1      -7.805   7.994  19.097  1.00  0.00     0.002 C 
HETATM   18  C22 UNL     1      -6.878   9.069  18.561  1.00  0.00     0.025 C 
ENDBRANCH  11  13
ENDBRANCH   8   9
ENDBRANCH   1   8
BRANCH   7  19
HETATM   19  C12 UNL     1      -1.186  11.865  23.243  1.00  0.00     0.006 C 
HETATM   20  C13 UNL     1      -2.197  12.027  24.342  1.00  0.00     0.006 C 
HETATM   21  C14 UNL     1      -2.679  10.595  24.641  1.00  0.00     0.000 C 
HETATM   22  C15 UNL     1      -1.341   9.868  24.483  1.00  0.00     0.000 C 
HETATM   23  C16 UNL     1      -0.879  10.424  23.153  1.00  0.00     0.006 C 
ENDBRANCH   7  19
BRANCH   3  24
HETATM   24  C5  UNL     1      -1.323  14.526  19.389  1.00  0.00     0.210 C 
BRANCH  24  25
HETATM   25  C6  UNL     1      -0.630  15.293  18.340  1.00  0.00     0.234 C 
HETATM   26  O2  UNL     1       0.159  16.223  18.712  1.00  0.00    -0.272 OA
HETATM   27  N2  UNL     1      -0.793  15.054  16.958  1.00  0.00    -0.347 N 
HETATM   28  C7  UNL     1      -1.676  14.013  16.516  1.00  0.00     0.152 C 
HETATM   29  C10 UNL     1      -0.088  15.839  15.990  1.00  0.00     0.152 C 
HETATM   30  C8  UNL     1      -0.971  13.255  15.408  1.00  0.00     0.187 C 
HETATM   31  O3  UNL     1      -0.662  14.185  14.417  1.00  0.00    -0.388 OA
HETATM   32  C9  UNL     1       0.394  14.983  14.851  1.00  0.00     0.187 C 
ENDBRANCH  24  25
ENDBRANCH   3  24
TORSDOF 6
ENDMDL
