MODEL 1
REMARK VINA RESULT: -8.478844631      0.000      0.000
REMARK  6 active torsions:
REMARK  status: ('A' for Active; 'I' for Inactive)
REMARK    1  A    between atoms: C3_3  and  C4_4 
REMARK       I    between atoms: C4_4  and  N1_6 
REMARK    2  A    between atoms: N1_6  and  S1_8 
REMARK    3  A    between atoms: S1_8  and  C5_11 
REMARK    4  A    between atoms: C8_14  and  S2_15 
REMARK    5  A    between atoms: S2_15  and  N2_18 
REMARK    6  A    between atoms: N2_18  and  C10_20 
ROOT
HETATM    1  C1  UNL     1      -2.836   8.698  27.912  1.00  0.00     0.012 C 
HETATM    2  C2  UNL     1      -1.915   8.752  27.141  1.00  0.00    -0.108 C 
HETATM    3  C3  UNL     1      -0.806   8.803  26.204  1.00  0.00     0.196 C 
ENDROOT
BRANCH   3   4
HETATM    4  C4  UNL     1      -1.062   9.913  25.227  1.00  0.00     0.242 C 
HETATM    5  O1  UNL     1      -1.703  10.935  25.581  1.00  0.00    -0.272 OA
HETATM    6  N1  UNL     1      -0.583   9.816  23.901  1.00  0.00    -0.249 N 
ATOM      7  H1  UNL     1      -0.062   8.989  23.610  1.00  0.00     0.182 HD
BRANCH   6   8
HETATM    8  S1  UNL     1      -0.870  11.073  22.784  1.00  0.00     0.265 S 
HETATM    9  O2  UNL     1      -0.703  12.446  23.373  1.00  0.00    -0.200 OA
HETATM   10  O3  UNL     1       0.141  10.968  21.651  1.00  0.00    -0.200 OA
BRANCH   8  11
HETATM   11  C5  UNL     1      -2.493  10.980  22.129  1.00  0.00     0.080 A 
HETATM   12  C6  UNL     1      -2.772  10.186  21.026  1.00  0.00     0.027 A 
HETATM   13  C7  UNL     1      -4.054  10.101  20.494  1.00  0.00     0.027 A 
HETATM   14  C8  UNL     1      -5.096  10.810  21.048  1.00  0.00     0.080 A 
HETATM   15  C16 UNL     1      -4.808  11.594  22.142  1.00  0.00     0.027 A 
HETATM   16  C17 UNL     1      -3.539  11.685  22.679  1.00  0.00     0.027 A 
BRANCH  14  17
HETATM   17  S2  UNL     1      -6.744  10.757  20.408  1.00  0.00     0.264 S 
HETATM   18  O4  UNL     1      -6.687  11.320  19.017  1.00  0.00    -0.200 OA
HETATM   19  O5  UNL     1      -7.596  11.629  21.320  1.00  0.00    -0.200 OA
BRANCH  17  20
HETATM   20  N2  UNL     1      -7.349   9.163  20.397  1.00  0.00    -0.276 N 
HETATM   21  C9  UNL     1      -8.106   8.728  21.575  1.00  0.00     0.170 C 
BRANCH  20  22
HETATM   22  C10 UNL     1      -7.149   8.268  19.323  1.00  0.00     0.046 A 
HETATM   23  C11 UNL     1      -6.133   7.337  19.322  1.00  0.00     0.030 A 
HETATM   24  C12 UNL     1      -5.924   6.452  18.298  1.00  0.00     0.004 A 
HETATM   25  C13 UNL     1      -6.769   6.477  17.196  1.00  0.00     0.019 A 
HETATM   26  C14 UNL     1      -7.784   7.396  17.182  1.00  0.00     0.013 A 
HETATM   27 BR1  UNL     1      -8.952   7.440  15.671  1.00  0.00    -0.051 Br
HETATM   28  C15 UNL     1      -7.984   8.273  18.206  1.00  0.00     0.049 A 
ENDBRANCH  20  22
ENDBRANCH  17  20
ENDBRANCH  14  17
ENDBRANCH   8  11
ENDBRANCH   6   8
ENDBRANCH   3   4
TORSDOF 6
ENDMDL
MODEL 2
REMARK VINA RESULT: -8.369871839      0.991      1.343
REMARK  6 active torsions:
REMARK  status: ('A' for Active; 'I' for Inactive)
REMARK    1  A    between atoms: C3_3  and  C4_4 
REMARK       I    between atoms: C4_4  and  N1_6 
REMARK    2  A    between atoms: N1_6  and  S1_8 
REMARK    3  A    between atoms: S1_8  and  C5_11 
REMARK    4  A    between atoms: C8_14  and  S2_15 
REMARK    5  A    between atoms: S2_15  and  N2_18 
REMARK    6  A    between atoms: N2_18  and  C10_20 
ROOT
HETATM    1  C1  UNL     1      -2.841   8.772  27.945  1.00  0.00     0.012 C 
HETATM    2  C2  UNL     1      -1.962   8.762  27.125  1.00  0.00    -0.108 C 
HETATM    3  C3  UNL     1      -0.905   8.737  26.128  1.00  0.00     0.196 C 
ENDROOT
BRANCH   3   4
HETATM    4  C4  UNL     1      -1.121   9.879  25.178  1.00  0.00     0.242 C 
HETATM    5  O1  UNL     1      -1.676  10.936  25.573  1.00  0.00    -0.272 OA
HETATM    6  N1  UNL     1      -0.703   9.773  23.833  1.00  0.00    -0.249 N 
ATOM      7  H1  UNL     1      -0.253   8.916  23.509  1.00  0.00     0.182 HD
BRANCH   6   8
HETATM    8  S1  UNL     1      -0.946  11.065  22.747  1.00  0.00     0.265 S 
HETATM    9  O2  UNL     1      -0.668  12.414  23.351  1.00  0.00    -0.200 OA
HETATM   10  O3  UNL     1       0.014  10.915  21.576  1.00  0.00    -0.200 OA
BRANCH   8  11
HETATM   11  C5  UNL     1      -2.595  11.091  22.151  1.00  0.00     0.080 A 
HETATM   12  C6  UNL     1      -3.009  10.208  21.164  1.00  0.00     0.027 A 
HETATM   13  C7  UNL     1      -4.313  10.215  20.680  1.00  0.00     0.027 A 
HETATM   14  C8  UNL     1      -5.241  11.106  21.167  1.00  0.00     0.080 A 
HETATM   15  C16 UNL     1      -4.819  11.978  22.146  1.00  0.00     0.027 A 
HETATM   16  C17 UNL     1      -3.527  11.979  22.634  1.00  0.00     0.027 A 
BRANCH  14  17
HETATM   17  S2  UNL     1      -6.908  11.177  20.581  1.00  0.00     0.264 S 
HETATM   18  O4  UNL     1      -6.856  11.741  19.191  1.00  0.00    -0.200 OA
HETATM   19  O5  UNL     1      -7.665  12.103  21.523  1.00  0.00    -0.200 OA
BRANCH  17  20
HETATM   20  N2  UNL     1      -7.627   9.630  20.586  1.00  0.00    -0.276 N 
HETATM   21  C9  UNL     1      -8.115   9.125  21.873  1.00  0.00     0.170 C 
BRANCH  20  22
HETATM   22  C10 UNL     1      -7.763   8.838  19.425  1.00  0.00     0.046 A 
HETATM   23  C11 UNL     1      -8.363   9.312  18.279  1.00  0.00     0.030 A 
HETATM   24  C12 UNL     1      -8.499   8.567  17.137  1.00  0.00     0.004 A 
HETATM   25  C13 UNL     1      -8.014   7.266  17.113  1.00  0.00     0.019 A 
HETATM   26  C14 UNL     1      -7.414   6.780  18.244  1.00  0.00     0.013 A 
HETATM   27 BR1  UNL     1      -6.743   4.992  18.223  1.00  0.00    -0.051 Br
HETATM   28  C15 UNL     1      -7.284   7.529  19.376  1.00  0.00     0.049 A 
ENDBRANCH  20  22
ENDBRANCH  17  20
ENDBRANCH  14  17
ENDBRANCH   8  11
ENDBRANCH   6   8
ENDBRANCH   3   4
TORSDOF 6
ENDMDL
MODEL 3
REMARK VINA RESULT: -8.357645862      3.282      8.236
REMARK  6 active torsions:
REMARK  status: ('A' for Active; 'I' for Inactive)
REMARK    1  A    between atoms: C3_3  and  C4_4 
REMARK       I    between atoms: C4_4  and  N1_6 
REMARK    2  A    between atoms: N1_6  and  S1_8 
REMARK    3  A    between atoms: S1_8  and  C5_11 
REMARK    4  A    between atoms: C8_14  and  S2_15 
REMARK    5  A    between atoms: S2_15  and  N2_18 
REMARK    6  A    between atoms: N2_18  and  C10_20 
ROOT
HETATM    1  C1  UNL     1      -6.720   5.328  18.508  1.00  0.00     0.012 C 
HETATM    2  C2  UNL     1      -7.285   6.241  17.968  1.00  0.00    -0.108 C 
HETATM    3  C3  UNL     1      -7.982   7.338  17.318  1.00  0.00     0.196 C 
ENDROOT
BRANCH   3   4
HETATM    4  C4  UNL     1      -7.803   8.574  18.152  1.00  0.00     0.242 C 
HETATM    5  O1  UNL     1      -7.415   9.645  17.622  1.00  0.00    -0.272 OA
HETATM    6  N1  UNL     1      -8.070   8.539  19.538  1.00  0.00    -0.249 N 
ATOM      7  H1  UNL     1      -8.385   7.671  19.972  1.00  0.00     0.182 HD
BRANCH   6   8
HETATM    8  S1  UNL     1      -7.869   9.938  20.493  1.00  0.00     0.265 S 
HETATM    9  O2  UNL     1      -8.612  11.134  19.965  1.00  0.00    -0.200 OA
HETATM   10  O3  UNL     1      -8.422   9.671  21.885  1.00  0.00    -0.200 OA
BRANCH   8  11
HETATM   11  C5  UNL     1      -6.178  10.386  20.612  1.00  0.00     0.080 A 
HETATM   12  C6  UNL     1      -5.800  11.717  20.716  1.00  0.00     0.027 A 
HETATM   13  C7  UNL     1      -4.463  12.091  20.811  1.00  0.00     0.027 A 
HETATM   14  C8  UNL     1      -3.465  11.143  20.805  1.00  0.00     0.080 A 
HETATM   15  C16 UNL     1      -3.852   9.826  20.702  1.00  0.00     0.027 A 
HETATM   16  C17 UNL     1      -5.175   9.445  20.607  1.00  0.00     0.027 A 
BRANCH  14  17
HETATM   17  S2  UNL     1      -1.748  11.555  20.906  1.00  0.00     0.264 S 
HETATM   18  O4  UNL     1      -1.457  12.488  19.767  1.00  0.00    -0.200 OA
HETATM   19  O5  UNL     1      -0.975  10.250  20.759  1.00  0.00    -0.200 OA
BRANCH  17  20
HETATM   20  N2  UNL     1      -1.378  12.284  22.403  1.00  0.00    -0.276 N 
HETATM   21  C9  UNL     1      -0.486  13.448  22.375  1.00  0.00     0.170 C 
BRANCH  20  22
HETATM   22  C10 UNL     1      -1.884  11.818  23.635  1.00  0.00     0.046 A 
HETATM   23  C11 UNL     1      -3.005  12.364  24.222  1.00  0.00     0.030 A 
HETATM   24  C12 UNL     1      -3.522  11.925  25.412  1.00  0.00     0.004 A 
HETATM   25  C13 UNL     1      -2.900  10.877  26.077  1.00  0.00     0.019 A 
HETATM   26  C14 UNL     1      -1.784  10.323  25.507  1.00  0.00     0.013 A 
HETATM   27 BR1  UNL     1      -0.919   8.880  26.412  1.00  0.00    -0.051 Br
HETATM   28  C15 UNL     1      -1.277  10.767  24.322  1.00  0.00     0.049 A 
ENDBRANCH  20  22
ENDBRANCH  17  20
ENDBRANCH  14  17
ENDBRANCH   8  11
ENDBRANCH   6   8
ENDBRANCH   3   4
TORSDOF 6
ENDMDL
MODEL 4
REMARK VINA RESULT: -8.218801874      0.615      1.079
REMARK  6 active torsions:
REMARK  status: ('A' for Active; 'I' for Inactive)
REMARK    1  A    between atoms: C3_3  and  C4_4 
REMARK       I    between atoms: C4_4  and  N1_6 
REMARK    2  A    between atoms: N1_6  and  S1_8 
REMARK    3  A    between atoms: S1_8  and  C5_11 
REMARK    4  A    between atoms: C8_14  and  S2_15 
REMARK    5  A    between atoms: S2_15  and  N2_18 
REMARK    6  A    between atoms: N2_18  and  C10_20 
ROOT
HETATM    1  C1  UNL     1      -2.479   9.050  27.584  1.00  0.00     0.012 C 
HETATM    2  C2  UNL     1      -1.660   9.089  26.705  1.00  0.00    -0.108 C 
HETATM    3  C3  UNL     1      -0.676   9.122  25.637  1.00  0.00     0.196 C 
ENDROOT
BRANCH   3   4
HETATM    4  C4  UNL     1      -1.029  10.241  24.701  1.00  0.00     0.242 C 
HETATM    5  O1  UNL     1      -1.587  11.280  25.136  1.00  0.00    -0.272 OA
HETATM    6  N1  UNL     1      -0.736  10.134  23.323  1.00  0.00    -0.249 N 
ATOM      7  H1  UNL     1      -0.283   9.292  22.966  1.00  0.00     0.182 HD
BRANCH   6   8
HETATM    8  S1  UNL     1      -1.134  11.400  22.252  1.00  0.00     0.265 S 
HETATM    9  O2  UNL     1      -1.009  12.766  22.869  1.00  0.00    -0.200 OA
HETATM   10  O3  UNL     1      -0.172  11.373  21.074  1.00  0.00    -0.200 OA
BRANCH   8  11
HETATM   11  C5  UNL     1      -2.779  11.242  21.667  1.00  0.00     0.080 A 
HETATM   12  C6  UNL     1      -3.752  12.166  22.019  1.00  0.00     0.027 A 
HETATM   13  C7  UNL     1      -5.062  12.056  21.564  1.00  0.00     0.027 A 
HETATM   14  C8  UNL     1      -5.438  11.016  20.744  1.00  0.00     0.080 A 
HETATM   15  C16 UNL     1      -4.464  10.105  20.401  1.00  0.00     0.027 A 
HETATM   16  C17 UNL     1      -3.161  10.206  20.847  1.00  0.00     0.027 A 
BRANCH  14  17
HETATM   17  S2  UNL     1      -7.090  10.811  20.145  1.00  0.00     0.264 S 
HETATM   18  O4  UNL     1      -7.080  11.211  18.699  1.00  0.00    -0.200 OA
HETATM   19  O5  UNL     1      -7.972  11.740  20.968  1.00  0.00    -0.200 OA
BRANCH  17  20
HETATM   20  N2  UNL     1      -7.614   9.198  20.329  1.00  0.00    -0.276 N 
HETATM   21  C9  UNL     1      -8.108   8.804  21.653  1.00  0.00     0.170 C 
BRANCH  20  22
HETATM   22  C10 UNL     1      -7.587   8.253  19.282  1.00  0.00     0.046 A 
HETATM   23  C11 UNL     1      -6.917   7.054  19.391  1.00  0.00     0.030 A 
HETATM   24  C12 UNL     1      -6.883   6.116  18.393  1.00  0.00     0.004 A 
HETATM   25  C13 UNL     1      -7.554   6.367  17.203  1.00  0.00     0.019 A 
HETATM   26  C14 UNL     1      -8.226   7.553  17.079  1.00  0.00     0.013 A 
HETATM   27 BR1  UNL     1      -9.152   7.909  15.446  1.00  0.00    -0.051 Br
HETATM   28  C15 UNL     1      -8.253   8.481  18.077  1.00  0.00     0.049 A 
ENDBRANCH  20  22
ENDBRANCH  17  20
ENDBRANCH  14  17
ENDBRANCH   8  11
ENDBRANCH   6   8
ENDBRANCH   3   4
TORSDOF 6
ENDMDL
MODEL 5
REMARK VINA RESULT: -8.069963274      1.564      1.845
REMARK  6 active torsions:
REMARK  status: ('A' for Active; 'I' for Inactive)
REMARK    1  A    between atoms: C3_3  and  C4_4 
REMARK       I    between atoms: C4_4  and  N1_6 
REMARK    2  A    between atoms: N1_6  and  S1_8 
REMARK    3  A    between atoms: S1_8  and  C5_11 
REMARK    4  A    between atoms: C8_14  and  S2_15 
REMARK    5  A    between atoms: S2_15  and  N2_18 
REMARK    6  A    between atoms: N2_18  and  C10_20 
ROOT
HETATM    1  C1  UNL     1      -2.084   8.983  27.231  1.00  0.00     0.012 C 
HETATM    2  C2  UNL     1      -1.334   9.141  26.305  1.00  0.00    -0.108 C 
HETATM    3  C3  UNL     1      -0.430   9.318  25.181  1.00  0.00     0.196 C 
ENDROOT
BRANCH   3   4
HETATM    4  C4  UNL     1      -1.029  10.327  24.245  1.00  0.00     0.242 C 
HETATM    5  O1  UNL     1      -1.662  11.315  24.698  1.00  0.00    -0.272 OA
HETATM    6  N1  UNL     1      -0.886  10.173  22.848  1.00  0.00    -0.249 N 
ATOM      7  H1  UNL     1      -0.373   9.372  22.478  1.00  0.00     0.182 HD
BRANCH   6   8
HETATM    8  S1  UNL     1      -1.564  11.314  21.778  1.00  0.00     0.265 S 
HETATM    9  O2  UNL     1      -1.417  12.735  22.248  1.00  0.00    -0.200 OA
HETATM   10  O3  UNL     1      -0.841  11.229  20.441  1.00  0.00    -0.200 OA
BRANCH   8  11
HETATM   11  C5  UNL     1      -3.275  11.019  21.537  1.00  0.00     0.080 A 
HETATM   12  C6  UNL     1      -3.722   9.821  21.000  1.00  0.00     0.027 A 
HETATM   13  C7  UNL     1      -5.076   9.570  20.802  1.00  0.00     0.027 A 
HETATM   14  C8  UNL     1      -6.023  10.512  21.134  1.00  0.00     0.080 A 
HETATM   15  C16 UNL     1      -5.568  11.697  21.666  1.00  0.00     0.027 A 
HETATM   16  C17 UNL     1      -4.227  11.956  21.867  1.00  0.00     0.027 A 
BRANCH  14  17
HETATM   17  S2  UNL     1      -7.757  10.261  20.891  1.00  0.00     0.264 S 
HETATM   18  O4  UNL     1      -8.448  11.496  21.390  1.00  0.00    -0.200 OA
HETATM   19  O5  UNL     1      -8.143   9.041  21.718  1.00  0.00    -0.200 OA
BRANCH  17  20
HETATM   20  N2  UNL     1      -8.113   9.984  19.246  1.00  0.00    -0.276 N 
HETATM   21  C9  UNL     1      -9.233  10.736  18.671  1.00  0.00     0.170 C 
BRANCH  20  22
HETATM   22  C10 UNL     1      -7.390   9.079  18.441  1.00  0.00     0.046 A 
HETATM   23  C11 UNL     1      -6.575   9.500  17.412  1.00  0.00     0.030 A 
HETATM   24  C12 UNL     1      -5.855   8.644  16.621  1.00  0.00     0.004 A 
HETATM   25  C13 UNL     1      -5.936   7.277  16.853  1.00  0.00     0.019 A 
HETATM   26  C14 UNL     1      -6.740   6.842  17.872  1.00  0.00     0.013 A 
HETATM   27 BR1  UNL     1      -6.859   4.963  18.200  1.00  0.00    -0.051 Br
HETATM   28  C15 UNL     1      -7.453   7.702  18.653  1.00  0.00     0.049 A 
ENDBRANCH  20  22
ENDBRANCH  17  20
ENDBRANCH  14  17
ENDBRANCH   8  11
ENDBRANCH   6   8
ENDBRANCH   3   4
TORSDOF 6
ENDMDL
