MODEL 1
REMARK VINA RESULT: -6.135287532      0.000      0.000
REMARK  6 active torsions:
REMARK  status: ('A' for Active; 'I' for Inactive)
REMARK    1  A    between atoms: C7_9  and  C8_11 
REMARK    2  A    between atoms: C8_11  and  C9_12 
REMARK    3  A    between atoms: C12_16  and  N2_17 
REMARK       I    between atoms: N2_17  and  C13_19 
REMARK    4  A    between atoms: C16_23  and  C17_24 
REMARK    5  A    between atoms: C17_24  and  C18_25 
REMARK    6  A    between atoms: C18_25  and  O3_26 
ROOT
HETATM    1  C1  UNL     1       7.419   7.000  24.229  1.00  0.00     0.017 C 
HETATM    2  C2  UNL     1       7.384   7.547  23.026  1.00  0.00    -0.053 C 
HETATM    3  C3  UNL     1       7.239   6.652  21.791  1.00  0.00     0.272 C 
HETATM    4  N1  UNL     1       6.973   7.493  20.699  1.00  0.00    -0.053 N 
HETATM    5  C4  UNL     1       7.490   6.791  19.531  1.00  0.00     0.274 C 
HETATM    6  C5  UNL     1       7.773   8.671  21.032  1.00  0.00     0.219 C 
HETATM    7  C6  UNL     1       7.323   9.615  19.983  1.00  0.00     0.112 C 
HETATM    8 BR1  UNL     1       7.499  11.488  20.388  1.00  0.00    -0.087 Br
HETATM    9  C7  UNL     1       5.942   9.267  19.579  1.00  0.00     0.070 C 
HETATM   10 BR2  UNL     1       4.839  10.821  20.004  1.00  0.00    -0.081 Br
HETATM   11  C11 UNL     1       5.693   8.081  20.526  1.00  0.00     0.234 C 
HETATM   12  C12 UNL     1       5.028   8.569  21.767  1.00  0.00     0.118 C 
HETATM   13  C15 UNL     1       5.976   9.364  22.633  1.00  0.00     0.043 C 
HETATM   14  C16 UNL     1       7.428   8.899  22.462  1.00  0.00     0.018 C 
ENDROOT
BRANCH   9  15
HETATM   15  C8  UNL     1       5.635   8.950  18.173  1.00  0.00     0.102 C 
BRANCH  15  16
HETATM   16  C9  UNL     1       6.310   9.768  17.140  1.00  0.00     0.124 C 
HETATM   17  C10 UNL     1       5.601  10.936  16.557  1.00  0.00     0.091 C 
HETATM   18  O1  UNL     1       7.420   9.515  16.755  1.00  0.00    -0.298 OA
ENDBRANCH  15  16
ENDBRANCH   9  15
BRANCH  12  19
HETATM   19  N2  UNL     1       4.270   7.567  22.484  1.00  0.00    -0.355 N 
HETATM   20  C13 UNL     1       2.920   7.907  22.870  1.00  0.00     0.213 C 
HETATM   21  C14 UNL     1       2.068   6.943  23.608  1.00  0.00     0.117 C 
HETATM   22  O2  UNL     1       2.419   9.026  22.597  1.00  0.00    -0.274 OA
ATOM     23  H2  UNL     1       4.673   6.657  22.708  1.00  0.00     0.162 HD
ENDBRANCH  12  19
BRANCH  14  24
HETATM   24  C17 UNL     1       8.340   9.813  23.164  1.00  0.00     0.042 C 
BRANCH  24  25
HETATM   25  C18 UNL     1       9.703   9.351  23.573  1.00  0.00     0.165 C 
BRANCH  25  26
HETATM   26  O3  UNL     1      10.409  10.588  23.861  1.00  0.00    -0.401 OA
ATOM     27  H3  UNL     1      11.064  10.636  23.174  1.00  0.00     0.209 HD
ENDBRANCH  25  26
ENDBRANCH  24  25
ENDBRANCH  14  24
TORSDOF 6
ENDMDL
MODEL 2
REMARK VINA RESULT: -6.115832687      2.308      5.310
REMARK  6 active torsions:
REMARK  status: ('A' for Active; 'I' for Inactive)
REMARK    1  A    between atoms: C7_9  and  C8_11 
REMARK    2  A    between atoms: C8_11  and  C9_12 
REMARK    3  A    between atoms: C12_16  and  N2_17 
REMARK       I    between atoms: N2_17  and  C13_19 
REMARK    4  A    between atoms: C16_23  and  C17_24 
REMARK    5  A    between atoms: C17_24  and  C18_25 
REMARK    6  A    between atoms: C18_25  and  O3_26 
ROOT
HETATM    1  C1  UNL     1       3.435   6.497  22.863  1.00  0.00     0.017 C 
HETATM    2  C2  UNL     1       4.580   7.149  22.974  1.00  0.00    -0.053 C 
HETATM    3  C3  UNL     1       5.608   6.704  24.018  1.00  0.00     0.272 C 
HETATM    4  N1  UNL     1       6.801   7.390  23.744  1.00  0.00    -0.053 N 
HETATM    5  C4  UNL     1       7.491   7.501  25.023  1.00  0.00     0.274 C 
HETATM    6  C5  UNL     1       6.299   8.681  23.275  1.00  0.00     0.219 C 
HETATM    7  C6  UNL     1       7.553   9.310  22.803  1.00  0.00     0.112 C 
HETATM    8 BR1  UNL     1       7.371  10.673  21.458  1.00  0.00    -0.087 Br
HETATM    9  C7  UNL     1       8.499   8.250  22.386  1.00  0.00     0.070 C 
HETATM   10 BR2  UNL     1       8.848   8.541  20.488  1.00  0.00    -0.081 Br
HETATM   11  C11 UNL     1       7.624   7.012  22.651  1.00  0.00     0.234 C 
HETATM   12  C12 UNL     1       6.911   6.634  21.399  1.00  0.00     0.118 C 
HETATM   13  C15 UNL     1       5.821   7.622  21.057  1.00  0.00     0.043 C 
HETATM   14  C16 UNL     1       5.236   8.281  22.313  1.00  0.00     0.018 C 
ENDROOT
BRANCH   9  15
HETATM   15  C8  UNL     1       9.831   8.152  23.012  1.00  0.00     0.102 C 
BRANCH  15  16
HETATM   16  C9  UNL     1      10.200   9.220  23.969  1.00  0.00     0.124 C 
HETATM   17  C10 UNL     1      10.515   8.860  25.376  1.00  0.00     0.091 C 
HETATM   18  O1  UNL     1      10.253  10.375  23.643  1.00  0.00    -0.298 OA
ENDBRANCH  15  16
ENDBRANCH   9  15
BRANCH  12  19
HETATM   19  N2  UNL     1       6.498   5.250  21.331  1.00  0.00    -0.355 N 
HETATM   20  C13 UNL     1       6.934   4.483  20.187  1.00  0.00     0.213 C 
HETATM   21  C14 UNL     1       6.559   3.056  20.032  1.00  0.00     0.117 C 
HETATM   22  O2  UNL     1       7.644   4.993  19.284  1.00  0.00    -0.274 OA
ATOM     23  H2  UNL     1       5.922   4.831  22.062  1.00  0.00     0.162 HD
ENDBRANCH  12  19
BRANCH  14  24
HETATM   24  C17 UNL     1       4.323   9.369  21.937  1.00  0.00     0.042 C 
BRANCH  24  25
HETATM   25  C18 UNL     1       3.802   9.468  20.538  1.00  0.00     0.165 C 
BRANCH  25  26
HETATM   26  O3  UNL     1       2.522  10.139  20.698  1.00  0.00    -0.401 OA
ATOM     27  H3  UNL     1       2.710  11.037  20.454  1.00  0.00     0.209 HD
ENDBRANCH  25  26
ENDBRANCH  24  25
ENDBRANCH  14  24
TORSDOF 6
ENDMDL
MODEL 3
REMARK VINA RESULT: -6.079298399      2.597      5.354
REMARK  6 active torsions:
REMARK  status: ('A' for Active; 'I' for Inactive)
REMARK    1  A    between atoms: C7_9  and  C8_11 
REMARK    2  A    between atoms: C8_11  and  C9_12 
REMARK    3  A    between atoms: C12_16  and  N2_17 
REMARK       I    between atoms: N2_17  and  C13_19 
REMARK    4  A    between atoms: C16_23  and  C17_24 
REMARK    5  A    between atoms: C17_24  and  C18_25 
REMARK    6  A    between atoms: C18_25  and  O3_26 
ROOT
HETATM    1  C1  UNL     1       6.525  10.148  16.968  1.00  0.00     0.017 C 
HETATM    2  C2  UNL     1       6.239   9.824  18.217  1.00  0.00    -0.053 C 
HETATM    3  C3  UNL     1       4.859   9.253  18.555  1.00  0.00     0.272 C 
HETATM    4  N1  UNL     1       4.921   8.767  19.871  1.00  0.00    -0.053 N 
HETATM    5  C4  UNL     1       3.563   8.866  20.389  1.00  0.00     0.274 C 
HETATM    6  C5  UNL     1       5.822   9.733  20.499  1.00  0.00     0.219 C 
HETATM    7  C6  UNL     1       6.035   9.093  21.818  1.00  0.00     0.112 C 
HETATM    8 BR1  UNL     1       7.665   9.548  22.733  1.00  0.00    -0.087 Br
HETATM    9  C7  UNL     1       5.874   7.628  21.676  1.00  0.00     0.070 C 
HETATM   10 BR2  UNL     1       7.590   6.838  22.166  1.00  0.00    -0.081 Br
HETATM   11  C11 UNL     1       5.588   7.550  20.167  1.00  0.00     0.234 C 
HETATM   12  C12 UNL     1       6.864   7.311  19.434  1.00  0.00     0.118 C 
HETATM   13  C15 UNL     1       7.749   8.535  19.441  1.00  0.00     0.043 C 
HETATM   14  C16 UNL     1       6.930   9.830  19.510  1.00  0.00     0.018 C 
ENDROOT
BRANCH   9  15
HETATM   15  C8  UNL     1       4.873   6.907  22.485  1.00  0.00     0.102 C 
BRANCH  15  16
HETATM   16  C9  UNL     1       4.607   7.434  23.843  1.00  0.00     0.124 C 
HETATM   17  C10 UNL     1       3.362   8.205  24.094  1.00  0.00     0.091 C 
HETATM   18  O1  UNL     1       5.369   7.256  24.755  1.00  0.00    -0.298 OA
ENDBRANCH  15  16
ENDBRANCH   9  15
BRANCH  12  19
HETATM   19  N2  UNL     1       6.710   6.699  18.133  1.00  0.00    -0.355 N 
HETATM   20  C13 UNL     1       6.805   5.259  18.062  1.00  0.00     0.213 C 
HETATM   21  C14 UNL     1       6.660   4.545  16.770  1.00  0.00     0.117 C 
HETATM   22  O2  UNL     1       7.012   4.562  19.086  1.00  0.00    -0.274 OA
ATOM     23  H2  UNL     1       6.542   7.262  17.298  1.00  0.00     0.162 HD
ENDBRANCH  12  19
BRANCH  14  24
HETATM   24  C17 UNL     1       7.818  10.984  19.711  1.00  0.00     0.042 C 
BRANCH  24  25
HETATM   25  C18 UNL     1       7.261  12.293  20.173  1.00  0.00     0.165 C 
BRANCH  25  26
HETATM   26  O3  UNL     1       8.325  13.238  19.879  1.00  0.00    -0.401 OA
ATOM     27  H3  UNL     1       8.817  13.280  20.691  1.00  0.00     0.209 HD
ENDBRANCH  25  26
ENDBRANCH  24  25
ENDBRANCH  14  24
TORSDOF 6
ENDMDL
MODEL 4
REMARK VINA RESULT: -5.965981617      2.370      4.551
REMARK  6 active torsions:
REMARK  status: ('A' for Active; 'I' for Inactive)
REMARK    1  A    between atoms: C7_9  and  C8_11 
REMARK    2  A    between atoms: C8_11  and  C9_12 
REMARK    3  A    between atoms: C12_16  and  N2_17 
REMARK       I    between atoms: N2_17  and  C13_19 
REMARK    4  A    between atoms: C16_23  and  C17_24 
REMARK    5  A    between atoms: C17_24  and  C18_25 
REMARK    6  A    between atoms: C18_25  and  O3_26 
ROOT
HETATM    1  C1  UNL     1       4.611   7.157  24.533  1.00  0.00     0.017 C 
HETATM    2  C2  UNL     1       4.907   7.545  23.304  1.00  0.00    -0.053 C 
HETATM    3  C3  UNL     1       5.141   9.030  23.013  1.00  0.00     0.272 C 
HETATM    4  N1  UNL     1       5.679   9.120  21.720  1.00  0.00    -0.053 N 
HETATM    5  C4  UNL     1       5.277  10.429  21.219  1.00  0.00     0.274 C 
HETATM    6  C5  UNL     1       4.984   8.031  21.034  1.00  0.00     0.219 C 
HETATM    7  C6  UNL     1       5.708   8.012  19.743  1.00  0.00     0.112 C 
HETATM    8 BR1  UNL     1       5.696   6.345  18.782  1.00  0.00    -0.087 Br
HETATM    9  C7  UNL     1       7.084   8.516  19.952  1.00  0.00     0.070 C 
HETATM   10 BR2  UNL     1       8.283   7.053  19.471  1.00  0.00    -0.081 Br
HETATM   11  C11 UNL     1       7.032   8.773  21.468  1.00  0.00     0.234 C 
HETATM   12  C12 UNL     1       7.541   7.573  22.190  1.00  0.00     0.118 C 
HETATM   13  C15 UNL     1       6.568   6.421  22.115  1.00  0.00     0.043 C 
HETATM   14  C16 UNL     1       5.118   6.907  22.001  1.00  0.00     0.018 C 
ENDROOT
BRANCH   9  15
HETATM   15  C8  UNL     1       7.574   9.681  19.192  1.00  0.00     0.102 C 
BRANCH  15  16
HETATM   16  C9  UNL     1       6.930   9.947  17.886  1.00  0.00     0.124 C 
HETATM   17  C10 UNL     1       5.913  11.025  17.781  1.00  0.00     0.091 C 
HETATM   18  O1  UNL     1       7.204   9.314  16.901  1.00  0.00    -0.298 OA
ENDBRANCH  15  16
ENDBRANCH   9  15
BRANCH  12  19
HETATM   19  N2  UNL     1       8.046   7.835  23.520  1.00  0.00    -0.355 N 
HETATM   20  C13 UNL     1       9.367   8.411  23.626  1.00  0.00     0.213 C 
HETATM   21  C14 UNL     1       9.967   8.714  24.948  1.00  0.00     0.117 C 
HETATM   22  O2  UNL     1      10.053   8.676  22.607  1.00  0.00    -0.274 OA
ATOM     23  H2  UNL     1       7.492   7.621  24.350  1.00  0.00     0.162 HD
ENDBRANCH  12  19
BRANCH  14  24
HETATM   24  C17 UNL     1       4.221   5.773  21.734  1.00  0.00     0.042 C 
BRANCH  24  25
HETATM   25  C18 UNL     1       4.738   4.371  21.799  1.00  0.00     0.165 C 
BRANCH  25  26
HETATM   26  O3  UNL     1       4.291   3.903  23.100  1.00  0.00    -0.401 OA
ATOM     27  H3  UNL     1       5.031   4.082  23.668  1.00  0.00     0.209 HD
ENDBRANCH  25  26
ENDBRANCH  24  25
ENDBRANCH  14  24
TORSDOF 6
ENDMDL
MODEL 5
REMARK VINA RESULT: -5.909838443      2.868      5.017
REMARK  6 active torsions:
REMARK  status: ('A' for Active; 'I' for Inactive)
REMARK    1  A    between atoms: C7_9  and  C8_11 
REMARK    2  A    between atoms: C8_11  and  C9_12 
REMARK    3  A    between atoms: C12_16  and  N2_17 
REMARK       I    between atoms: N2_17  and  C13_19 
REMARK    4  A    between atoms: C16_23  and  C17_24 
REMARK    5  A    between atoms: C17_24  and  C18_25 
REMARK    6  A    between atoms: C18_25  and  O3_26 
ROOT
HETATM    1  C1  UNL     1       7.490  11.778  20.999  1.00  0.00     0.017 C 
HETATM    2  C2  UNL     1       7.103  10.537  20.761  1.00  0.00    -0.053 C 
HETATM    3  C3  UNL     1       8.105   9.528  20.191  1.00  0.00     0.272 C 
HETATM    4  N1  UNL     1       7.513   8.259  20.283  1.00  0.00    -0.053 N 
HETATM    5  C4  UNL     1       8.101   7.474  19.204  1.00  0.00     0.274 C 
HETATM    6  C5  UNL     1       6.106   8.570  20.033  1.00  0.00     0.219 C 
HETATM    7  C6  UNL     1       5.477   7.264  20.333  1.00  0.00     0.112 C 
HETATM    8 BR1  UNL     1       3.628   7.309  20.864  1.00  0.00    -0.087 Br
HETATM    9  C7  UNL     1       6.313   6.538  21.316  1.00  0.00     0.070 C 
HETATM   10 BR2  UNL     1       5.200   6.277  22.897  1.00  0.00    -0.081 Br
HETATM   11  C11 UNL     1       7.419   7.586  21.529  1.00  0.00     0.234 C 
HETATM   12  C12 UNL     1       7.074   8.436  22.703  1.00  0.00     0.118 C 
HETATM   13  C15 UNL     1       5.925   9.369  22.399  1.00  0.00     0.043 C 
HETATM   14  C16 UNL     1       5.877   9.748  20.914  1.00  0.00     0.018 C 
ENDROOT
BRANCH   9  15
HETATM   15  C8  UNL     1       6.848   5.201  20.996  1.00  0.00     0.102 C 
BRANCH  15  16
HETATM   16  C9  UNL     1       6.072   4.384  20.035  1.00  0.00     0.124 C 
HETATM   17  C10 UNL     1       6.596   4.186  18.659  1.00  0.00     0.091 C 
HETATM   18  O1  UNL     1       5.027   3.873  20.335  1.00  0.00    -0.298 OA
ENDBRANCH  15  16
ENDBRANCH   9  15
BRANCH  12  19
HETATM   19  N2  UNL     1       8.203   9.078  23.340  1.00  0.00    -0.355 N 
HETATM   20  C13 UNL     1       8.949   8.303  24.305  1.00  0.00     0.213 C 
HETATM   21  C14 UNL     1      10.122   8.877  25.008  1.00  0.00     0.117 C 
HETATM   22  O2  UNL     1       8.633   7.119  24.583  1.00  0.00    -0.274 OA
ATOM     23  H2  UNL     1       8.463  10.039  23.117  1.00  0.00     0.162 HD
ENDBRANCH  12  19
BRANCH  14  24
HETATM   24  C17 UNL     1       4.644  10.491  20.619  1.00  0.00     0.042 C 
BRANCH  24  25
HETATM   25  C18 UNL     1       4.408  11.046  19.250  1.00  0.00     0.165 C 
BRANCH  25  26
HETATM   26  O3  UNL     1       4.146  12.454  19.494  1.00  0.00    -0.401 OA
ATOM     27  H3  UNL     1       5.010  12.849  19.473  1.00  0.00     0.209 HD
ENDBRANCH  25  26
ENDBRANCH  24  25
ENDBRANCH  14  24
TORSDOF 6
ENDMDL
