MODEL 1
REMARK VINA RESULT: -6.489293807      0.000      0.000
REMARK  6 active torsions:
REMARK  status: ('A' for Active; 'I' for Inactive)
REMARK    1  A    between atoms: O1_1  and  C1_3 
REMARK    2  A    between atoms: C1_3  and  C2_4 
REMARK    3  A    between atoms: C2_4  and  N1_5 
REMARK    4  A    between atoms: C8_11  and  N2_12 
REMARK    5  A    between atoms: C9_14  and  C10_15 
REMARK    6  A    between atoms: C9_14  and  N5_25 
ROOT
HETATM    1  N2  UNL     1       7.514   5.743  20.686  1.00  0.00    -0.372 N 
ATOM      2  H2  UNL     1       8.528   5.707  20.571  1.00  0.00     0.161 HD
HETATM    3  C9  UNL     1       6.855   4.648  20.612  1.00  0.00     0.127 C 
ENDROOT
BRANCH   1   4
HETATM    4  C8  UNL     1       6.894   7.033  20.925  1.00  0.00     0.088 C 
HETATM    5  C5  UNL     1       7.155   7.382  22.359  1.00  0.00     0.011 C 
HETATM    6  C4  UNL     1       6.065   8.331  22.810  1.00  0.00     0.034 C 
HETATM    7  C6  UNL     1       8.480   7.992  22.635  1.00  0.00     0.034 C 
HETATM    8  C3  UNL     1       6.048   9.472  21.827  1.00  0.00     0.238 C 
HETATM    9  N1  UNL     1       7.421   9.858  21.567  1.00  0.00    -0.065 N 
HETATM   10  C7  UNL     1       8.308   9.504  22.667  1.00  0.00     0.238 C 
HETATM   11  C17 UNL     1       7.956   9.268  20.379  1.00  0.00     0.239 C 
HETATM   12  C16 UNL     1       7.331   8.015  19.923  1.00  0.00     0.053 C 
BRANCH   9  13
HETATM   13  C2  UNL     1       7.407  11.305  21.426  1.00  0.00     0.263 C 
BRANCH  13  14
HETATM   14  C1  UNL     1       7.515  11.760  19.994  1.00  0.00     0.192 C 
BRANCH  14  15
HETATM   15  O1  UNL     1       8.530  12.719  19.952  1.00  0.00    -0.399 OA
ATOM     16  H1  UNL     1       8.863  12.725  19.063  1.00  0.00     0.209 HD
ENDBRANCH  14  15
ENDBRANCH  13  14
ENDBRANCH   9  13
ENDBRANCH   1   4
BRANCH   3  17
HETATM   17  C10 UNL     1       7.506   3.345  20.369  1.00  0.00     0.354 C 
HETATM   18  N3  UNL     1       6.916   2.348  21.228  1.00  0.00    -0.365 N 
HETATM   19  C11 UNL     1       6.602   1.309  20.588  1.00  0.00     0.120 C 
ATOM     20  H3  UNL     1       6.771   2.469  22.230  1.00  0.00     0.161 HD
HETATM   21  C12 UNL     1       6.966   1.508  19.161  1.00  0.00     0.273 C 
HETATM   22 BR1  UNL     1       8.406   0.283  18.759  1.00  0.00    -0.035 Br
HETATM   23 BR2  UNL     1       5.421   1.123  18.084  1.00  0.00    -0.035 Br
HETATM   24  N4  UNL     1       7.354   2.884  19.020  1.00  0.00    -0.014 N 
ATOM     25  H42 UNL     1       6.715   3.444  18.456  1.00  0.00     0.283 HD
ATOM     26  H41 UNL     1       8.176   3.029  18.435  1.00  0.00     0.283 HD
ENDBRANCH   3  17
BRANCH   3  27
HETATM   27  N5  UNL     1       5.451   4.694  20.772  1.00  0.00    -0.368 N 
HETATM   28  C13 UNL     1       4.353   4.665  19.816  1.00  0.00     0.126 C 
HETATM   29  C14 UNL     1       3.561   5.499  20.823  1.00  0.00     0.040 C 
HETATM   30  C15 UNL     1       4.466   4.786  21.833  1.00  0.00     0.126 C 
ENDBRANCH   3  27
TORSDOF 6
ENDMDL
MODEL 2
REMARK VINA RESULT: -6.394644176      4.464      7.736
REMARK  6 active torsions:
REMARK  status: ('A' for Active; 'I' for Inactive)
REMARK    1  A    between atoms: O1_1  and  C1_3 
REMARK    2  A    between atoms: C1_3  and  C2_4 
REMARK    3  A    between atoms: C2_4  and  N1_5 
REMARK    4  A    between atoms: C8_11  and  N2_12 
REMARK    5  A    between atoms: C9_14  and  C10_15 
REMARK    6  A    between atoms: C9_14  and  N5_25 
ROOT
HETATM    1  N2  UNL     1       6.886   3.771  19.784  1.00  0.00    -0.372 N 
ATOM      2  H2  UNL     1       7.664   3.878  20.436  1.00  0.00     0.161 HD
HETATM    3  C9  UNL     1       5.908   4.594  19.865  1.00  0.00     0.127 C 
ENDROOT
BRANCH   1   4
HETATM    4  C8  UNL     1       6.944   2.693  18.814  1.00  0.00     0.088 C 
HETATM    5  C5  UNL     1       7.871   3.141  17.724  1.00  0.00     0.011 C 
HETATM    6  C4  UNL     1       7.495   2.393  16.461  1.00  0.00     0.034 C 
HETATM    7  C6  UNL     1       9.317   2.943  17.997  1.00  0.00     0.034 C 
HETATM    8  C3  UNL     1       7.508   0.927  16.804  1.00  0.00     0.238 C 
HETATM    9  N1  UNL     1       8.695   0.664  17.595  1.00  0.00    -0.065 N 
HETATM   10  C7  UNL     1       9.749   1.638  17.344  1.00  0.00     0.238 C 
HETATM   11  C17 UNL     1       8.443   0.659  19.003  1.00  0.00     0.239 C 
HETATM   12  C16 UNL     1       7.270   1.419  19.468  1.00  0.00     0.053 C 
BRANCH   9  13
HETATM   13  C2  UNL     1       9.165  -0.648  17.183  1.00  0.00     0.263 C 
BRANCH  13  14
HETATM   14  C1  UNL     1      10.571  -0.943  17.636  1.00  0.00     0.192 C 
BRANCH  14  15
HETATM   15  O1  UNL     1      10.981  -2.090  16.952  1.00  0.00    -0.399 OA
ATOM     16  H1  UNL     1      10.328  -2.258  16.284  1.00  0.00     0.209 HD
ENDBRANCH  14  15
ENDBRANCH  13  14
ENDBRANCH   9  13
ENDBRANCH   1   4
BRANCH   3  17
HETATM   17  C10 UNL     1       5.869   5.684  20.861  1.00  0.00     0.354 C 
HETATM   18  N3  UNL     1       7.056   5.627  21.678  1.00  0.00    -0.365 N 
HETATM   19  C11 UNL     1       7.609   6.755  21.776  1.00  0.00     0.120 C 
ATOM     20  H3  UNL     1       7.404   4.777  22.123  1.00  0.00     0.161 HD
HETATM   21  C12 UNL     1       6.813   7.737  20.995  1.00  0.00     0.273 C 
HETATM   22 BR1  UNL     1       6.025   8.971  22.258  1.00  0.00    -0.035 Br
HETATM   23 BR2  UNL     1       7.999   8.655  19.792  1.00  0.00    -0.035 Br
HETATM   24  N4  UNL     1       5.829   6.987  20.266  1.00  0.00    -0.014 N 
ATOM     25  H42 UNL     1       5.964   6.990  19.255  1.00  0.00     0.283 HD
ATOM     26  H41 UNL     1       4.902   7.413  20.255  1.00  0.00     0.283 HD
ENDBRANCH   3  17
BRANCH   3  27
HETATM   27  N5  UNL     1       4.830   4.449  18.963  1.00  0.00    -0.368 N 
HETATM   28  C13 UNL     1       3.568   3.729  19.050  1.00  0.00     0.126 C 
HETATM   29  C14 UNL     1       3.643   3.577  17.530  1.00  0.00     0.040 C 
HETATM   30  C15 UNL     1       4.440   4.881  17.633  1.00  0.00     0.126 C 
ENDBRANCH   3  27
TORSDOF 6
ENDMDL
MODEL 3
REMARK VINA RESULT: -6.322240970      1.186      1.419
REMARK  6 active torsions:
REMARK  status: ('A' for Active; 'I' for Inactive)
REMARK    1  A    between atoms: O1_1  and  C1_3 
REMARK    2  A    between atoms: C1_3  and  C2_4 
REMARK    3  A    between atoms: C2_4  and  N1_5 
REMARK    4  A    between atoms: C8_11  and  N2_12 
REMARK    5  A    between atoms: C9_14  and  C10_15 
REMARK    6  A    between atoms: C9_14  and  N5_25 
ROOT
HETATM    1  N2  UNL     1       6.398   5.654  20.665  1.00  0.00    -0.372 N 
ATOM      2  H2  UNL     1       7.291   5.471  20.205  1.00  0.00     0.161 HD
HETATM    3  C9  UNL     1       5.607   4.667  20.869  1.00  0.00     0.127 C 
ENDROOT
BRANCH   1   4
HETATM    4  C8  UNL     1       6.091   7.017  21.055  1.00  0.00     0.088 C 
HETATM    5  C5  UNL     1       6.805   7.271  22.348  1.00  0.00     0.011 C 
HETATM    6  C4  UNL     1       6.060   8.366  23.082  1.00  0.00     0.034 C 
HETATM    7  C6  UNL     1       8.235   7.653  22.221  1.00  0.00     0.034 C 
HETATM    8  C3  UNL     1       5.946   9.527  22.131  1.00  0.00     0.238 C 
HETATM    9  N1  UNL     1       7.231   9.699  21.480  1.00  0.00    -0.065 N 
HETATM   10  C7  UNL     1       8.327   9.171  22.282  1.00  0.00     0.238 C 
HETATM   11  C17 UNL     1       7.299   9.072  20.196  1.00  0.00     0.239 C 
HETATM   12  C16 UNL     1       6.375   7.951  19.957  1.00  0.00     0.053 C 
BRANCH   9  13
HETATM   13  C2  UNL     1       7.412  11.133  21.329  1.00  0.00     0.263 C 
BRANCH  13  14
HETATM   14  C1  UNL     1       7.385  11.585  19.892  1.00  0.00     0.192 C 
BRANCH  14  15
HETATM   15  O1  UNL     1       8.662  12.070  19.600  1.00  0.00    -0.399 OA
ATOM     16  H1  UNL     1       8.576  13.007  19.476  1.00  0.00     0.209 HD
ENDBRANCH  14  15
ENDBRANCH  13  14
ENDBRANCH   9  13
ENDBRANCH   1   4
BRANCH   3  17
HETATM   17  C10 UNL     1       5.940   3.287  20.464  1.00  0.00     0.354 C 
HETATM   18  N3  UNL     1       5.259   2.972  19.233  1.00  0.00    -0.365 N 
HETATM   19  C11 UNL     1       6.039   2.464  18.384  1.00  0.00     0.120 C 
ATOM     20  H3  UNL     1       4.266   3.141  19.068  1.00  0.00     0.161 HD
HETATM   21  C12 UNL     1       7.396   2.380  18.986  1.00  0.00     0.273 C 
HETATM   22 BR1  UNL     1       7.807   0.505  19.216  1.00  0.00    -0.035 Br
HETATM   23 BR2  UNL     1       8.644   3.210  17.782  1.00  0.00    -0.035 Br
HETATM   24  N4  UNL     1       7.341   3.092  20.233  1.00  0.00    -0.014 N 
ATOM     25  H42 UNL     1       7.892   3.950  20.249  1.00  0.00     0.283 HD
ATOM     26  H41 UNL     1       7.830   2.631  20.999  1.00  0.00     0.283 HD
ENDBRANCH   3  17
BRANCH   3  27
HETATM   27  N5  UNL     1       4.371   4.916  21.507  1.00  0.00    -0.368 N 
HETATM   28  C13 UNL     1       3.056   5.273  20.994  1.00  0.00     0.126 C 
HETATM   29  C14 UNL     1       2.825   6.000  22.320  1.00  0.00     0.040 C 
HETATM   30  C15 UNL     1       3.809   4.949  22.845  1.00  0.00     0.126 C 
ENDBRANCH   3  27
TORSDOF 6
ENDMDL
MODEL 4
REMARK VINA RESULT: -6.302642631      1.555      1.950
REMARK  6 active torsions:
REMARK  status: ('A' for Active; 'I' for Inactive)
REMARK    1  A    between atoms: O1_1  and  C1_3 
REMARK    2  A    between atoms: C1_3  and  C2_4 
REMARK    3  A    between atoms: C2_4  and  N1_5 
REMARK    4  A    between atoms: C8_11  and  N2_12 
REMARK    5  A    between atoms: C9_14  and  C10_15 
REMARK    6  A    between atoms: C9_14  and  N5_25 
ROOT
HETATM    1  N2  UNL     1       7.755   5.076  19.920  1.00  0.00    -0.372 N 
ATOM      2  H2  UNL     1       8.546   4.917  20.545  1.00  0.00     0.161 HD
HETATM    3  C9  UNL     1       7.433   4.147  19.099  1.00  0.00     0.127 C 
ENDROOT
BRANCH   1   4
HETATM    4  C8  UNL     1       7.053   6.343  20.007  1.00  0.00     0.088 C 
HETATM    5  C5  UNL     1       6.734   6.564  21.455  1.00  0.00     0.011 C 
HETATM    6  C4  UNL     1       5.527   7.475  21.530  1.00  0.00     0.034 C 
HETATM    7  C6  UNL     1       7.835   7.144  22.267  1.00  0.00     0.034 C 
HETATM    8  C3  UNL     1       5.853   8.697  20.712  1.00  0.00     0.238 C 
HETATM    9  N1  UNL     1       7.210   9.099  21.031  1.00  0.00    -0.065 N 
HETATM   10  C7  UNL     1       7.619   8.648  22.354  1.00  0.00     0.238 C 
HETATM   11  C17 UNL     1       8.175   8.613  20.095  1.00  0.00     0.239 C 
HETATM   12  C16 UNL     1       7.810   7.406  19.333  1.00  0.00     0.053 C 
BRANCH   9  13
HETATM   13  C2  UNL     1       7.208  10.552  21.014  1.00  0.00     0.263 C 
BRANCH  13  14
HETATM   14  C1  UNL     1       7.353  11.128  19.629  1.00  0.00     0.192 C 
BRANCH  14  15
HETATM   15  O1  UNL     1       8.521  11.895  19.633  1.00  0.00    -0.399 OA
ATOM     16  H1  UNL     1       8.498  12.431  18.850  1.00  0.00     0.209 HD
ENDBRANCH  14  15
ENDBRANCH  13  14
ENDBRANCH   9  13
ENDBRANCH   1   4
BRANCH   3  17
HETATM   17  C10 UNL     1       8.161   2.864  19.028  1.00  0.00     0.354 C 
HETATM   18  N3  UNL     1       7.495   1.889  19.855  1.00  0.00    -0.365 N 
HETATM   19  C11 UNL     1       7.313   0.803  19.243  1.00  0.00     0.120 C 
ATOM     20  H3  UNL     1       7.205   2.058  20.819  1.00  0.00     0.161 HD
HETATM   21  C12 UNL     1       7.866   0.941  17.870  1.00  0.00     0.273 C 
HETATM   22 BR1  UNL     1       9.394  -0.236  17.745  1.00  0.00    -0.035 Br
HETATM   23 BR2  UNL     1       6.504   0.427  16.615  1.00  0.00    -0.035 Br
HETATM   24  N4  UNL     1       8.218   2.324  17.702  1.00  0.00    -0.014 N 
ATOM     25  H42 UNL     1       7.643   2.822  17.022  1.00  0.00     0.283 HD
ATOM     26  H41 UNL     1       9.107   2.474  17.227  1.00  0.00     0.283 HD
ENDBRANCH   3  17
BRANCH   3  27
HETATM   27  N5  UNL     1       6.336   4.363  18.234  1.00  0.00    -0.368 N 
HETATM   28  C13 UNL     1       4.934   3.980  18.311  1.00  0.00     0.126 C 
HETATM   29  C14 UNL     1       4.940   3.955  16.782  1.00  0.00     0.040 C 
HETATM   30  C15 UNL     1       6.046   5.000  16.962  1.00  0.00     0.126 C 
ENDBRANCH   3  27
TORSDOF 6
ENDMDL
MODEL 5
REMARK VINA RESULT: -6.298741293      4.445      7.577
REMARK  6 active torsions:
REMARK  status: ('A' for Active; 'I' for Inactive)
REMARK    1  A    between atoms: O1_1  and  C1_3 
REMARK    2  A    between atoms: C1_3  and  C2_4 
REMARK    3  A    between atoms: C2_4  and  N1_5 
REMARK    4  A    between atoms: C8_11  and  N2_12 
REMARK    5  A    between atoms: C9_14  and  C10_15 
REMARK    6  A    between atoms: C9_14  and  N5_25 
ROOT
HETATM    1  N2  UNL     1       7.482   4.414  20.239  1.00  0.00    -0.372 N 
ATOM      2  H2  UNL     1       8.173   3.968  20.843  1.00  0.00     0.161 HD
HETATM    3  C9  UNL     1       7.118   5.611  20.513  1.00  0.00     0.127 C 
ENDROOT
BRANCH   1   4
HETATM    4  C8  UNL     1       6.963   3.659  19.113  1.00  0.00     0.088 C 
HETATM    5  C5  UNL     1       7.966   3.783  18.007  1.00  0.00     0.011 C 
HETATM    6  C4  UNL     1       7.238   3.580  16.695  1.00  0.00     0.034 C 
HETATM    7  C6  UNL     1       9.113   2.842  18.081  1.00  0.00     0.034 C 
HETATM    8  C3  UNL     1       6.506   2.269  16.804  1.00  0.00     0.238 C 
HETATM    9  N1  UNL     1       7.405   1.303  17.404  1.00  0.00    -0.065 N 
HETATM   10  C7  UNL     1       8.804   1.648  17.188  1.00  0.00     0.238 C 
HETATM   11  C17 UNL     1       7.213   1.156  18.814  1.00  0.00     0.239 C 
HETATM   12  C16 UNL     1       6.603   2.295  19.521  1.00  0.00     0.053 C 
BRANCH   9  13
HETATM   13  C2  UNL     1       7.129   0.038  16.743  1.00  0.00     0.263 C 
BRANCH  13  14
HETATM   14  C1  UNL     1       5.980   0.116  15.772  1.00  0.00     0.192 C 
BRANCH  14  15
HETATM   15  O1  UNL     1       6.412  -0.490  14.590  1.00  0.00    -0.399 OA
ATOM     16  H1  UNL     1       5.859  -1.250  14.456  1.00  0.00     0.209 HD
ENDBRANCH  14  15
ENDBRANCH  13  14
ENDBRANCH   9  13
ENDBRANCH   1   4
BRANCH   3  17
HETATM   17  C10 UNL     1       7.660   6.361  21.664  1.00  0.00     0.354 C 
HETATM   18  N3  UNL     1       8.192   7.620  21.206  1.00  0.00    -0.365 N 
HETATM   19  C11 UNL     1       7.780   8.583  21.907  1.00  0.00     0.120 C 
ATOM     20  H3  UNL     1       8.825   7.720  20.412  1.00  0.00     0.161 HD
HETATM   21  C12 UNL     1       6.882   8.044  22.962  1.00  0.00     0.273 C 
HETATM   22 BR1  UNL     1       7.768   8.308  24.659  1.00  0.00    -0.035 Br
HETATM   23 BR2  UNL     1       5.224   9.015  22.898  1.00  0.00    -0.035 Br
HETATM   24  N4  UNL     1       6.671   6.656  22.658  1.00  0.00    -0.014 N 
ATOM     25  H42 UNL     1       5.716   6.429  22.379  1.00  0.00     0.283 HD
ATOM     26  H41 UNL     1       6.698   6.041  23.470  1.00  0.00     0.283 HD
ENDBRANCH   3  17
BRANCH   3  27
HETATM   27  N5  UNL     1       6.162   6.232  19.677  1.00  0.00    -0.368 N 
HETATM   28  C13 UNL     1       4.713   6.345  19.759  1.00  0.00     0.126 C 
HETATM   29  C14 UNL     1       4.712   6.400  18.230  1.00  0.00     0.040 C 
HETATM   30  C15 UNL     1       6.108   6.995  18.444  1.00  0.00     0.126 C 
ENDBRANCH   3  27
TORSDOF 6
ENDMDL
