MODEL 1
REMARK VINA RESULT: -8.462097898      0.000      0.000
REMARK  4 active torsions:
REMARK  status: ('A' for Active; 'I' for Inactive)
REMARK    1  A    between atoms: C5_5  and  C6_6 
REMARK       I    between atoms: C6_6  and  N1_8 
REMARK    2  A    between atoms: N1_8  and  C7_10 
REMARK    3  A    between atoms: C10_14  and  N3_15 
REMARK    4  A    between atoms: C16_27  and  N5_28 
ROOT
HETATM    1  C7  UNL     1       7.062   7.268  22.718  1.00  0.00     0.146 A 
HETATM    2  C8  UNL     1       5.719   7.830  22.900  1.00  0.00     0.093 C 
HETATM    3  N2  UNL     1       4.648   8.276  23.027  1.00  0.00    -0.194 NA
HETATM    4  C9  UNL     1       8.095   7.506  23.777  1.00  0.00     0.079 A 
HETATM    5  C10 UNL     1       8.142   8.280  22.512  1.00  0.00     0.145 A 
ENDROOT
BRANCH   1   6
HETATM    6  N1  UNL     1       7.144   5.996  22.029  1.00  0.00    -0.337 N 
HETATM    7  C6  UNL     1       6.875   5.865  20.645  1.00  0.00     0.228 C 
HETATM    8  O1  UNL     1       6.554   6.902  20.010  1.00  0.00    -0.273 OA
ATOM      9  H1  UNL     1       7.406   5.164  22.560  1.00  0.00     0.164 HD
BRANCH   7  10
HETATM   10  C5  UNL     1       6.964   4.571  19.967  1.00  0.00     0.042 C 
HETATM   11  C4  UNL     1       8.036   4.478  18.929  1.00  0.00     0.020 C 
HETATM   12  C3  UNL     1       7.412   4.441  17.607  1.00  0.00     0.008 C 
HETATM   13  C2  UNL     1       7.050   3.112  17.002  1.00  0.00     0.025 C 
HETATM   14  C1  UNL     1       8.350   2.544  16.511  1.00  0.00     0.012 C 
HETATM   15  C16 UNL     1       6.044   2.234  17.671  1.00  0.00     0.208 C 
HETATM   16  C15 UNL     1       6.556   0.865  18.036  1.00  0.00     0.278 C 
HETATM   17  C21 UNL     1       5.647   2.739  19.046  1.00  0.00     0.035 C 
HETATM   18  C14 UNL     1       7.735   0.790  18.929  1.00  0.00     0.082 C 
HETATM   19  F1  UNL     1       6.709  -0.043  17.056  1.00  0.00    -0.203 F 
HETATM   20  F2  UNL     1       5.598   0.269  18.905  1.00  0.00    -0.203 F 
HETATM   21  C13 UNL     1       7.234   1.125  20.321  1.00  0.00     0.011 C 
HETATM   22  C12 UNL     1       6.335   2.265  20.251  1.00  0.00    -0.006 C 
HETATM   23  C11 UNL     1       7.108   3.427  20.902  1.00  0.00     0.024 C 
HETATM   24  C22 UNL     1       5.610   4.169  19.350  1.00  0.00     0.027 C 
BRANCH  15  25
HETATM   25  N5  UNL     1       4.896   2.091  16.774  1.00  0.00    -0.009 N 
HETATM   26  C17 UNL     1       4.379   3.398  16.366  1.00  0.00     0.282 C 
HETATM   27  C18 UNL     1       3.783   1.565  17.612  1.00  0.00     0.257 C 
HETATM   28  C19 UNL     1       2.566   1.428  16.709  1.00  0.00     0.110 C 
HETATM   29  S1  UNL     1       3.430   0.201  15.611  1.00  0.00    -0.091 SA
HETATM   30  C20 UNL     1       4.880   1.367  15.607  1.00  0.00     0.241 C 
HETATM   31  S2  UNL     1       5.472   1.149  14.349  1.00  0.00    -0.045 SA
ENDBRANCH  15  25
ENDBRANCH   7  10
ENDBRANCH   1   6
BRANCH   5  32
HETATM   32  N3  UNL     1       9.182   8.037  21.557  1.00  0.00    -0.335 N 
HETATM   33  N4  UNL     1       9.130   8.645  20.475  1.00  0.00    -0.349 N 
ATOM     34  H42 UNL     1       8.365   9.292  20.288  1.00  0.00     0.176 HD
ATOM     35  H41 UNL     1       9.871   8.472  19.795  1.00  0.00     0.176 HD
ATOM     36  H3  UNL     1       9.941   7.386  21.759  1.00  0.00     0.180 HD
ENDBRANCH   5  32
TORSDOF 4
ENDMDL
MODEL 2
REMARK VINA RESULT: -8.244708306      0.809      1.251
REMARK  4 active torsions:
REMARK  status: ('A' for Active; 'I' for Inactive)
REMARK    1  A    between atoms: C5_5  and  C6_6 
REMARK       I    between atoms: C6_6  and  N1_8 
REMARK    2  A    between atoms: N1_8  and  C7_10 
REMARK    3  A    between atoms: C10_14  and  N3_15 
REMARK    4  A    between atoms: C16_27  and  N5_28 
ROOT
HETATM    1  C7  UNL     1       7.002   7.276  22.715  1.00  0.00     0.146 A 
HETATM    2  C8  UNL     1       5.652   7.838  22.821  1.00  0.00     0.093 C 
HETATM    3  N2  UNL     1       4.576   8.285  22.888  1.00  0.00    -0.194 NA
HETATM    4  C9  UNL     1       7.982   7.531  23.820  1.00  0.00     0.079 A 
HETATM    5  C10 UNL     1       8.091   8.286  22.546  1.00  0.00     0.145 A 
ENDROOT
BRANCH   1   6
HETATM    6  N1  UNL     1       7.119   5.993  22.051  1.00  0.00    -0.337 N 
HETATM    7  C6  UNL     1       6.883   5.833  20.665  1.00  0.00     0.228 C 
HETATM    8  O1  UNL     1       6.561   6.853  20.004  1.00  0.00    -0.273 OA
ATOM      9  H1  UNL     1       7.382   5.175  22.603  1.00  0.00     0.164 HD
BRANCH   7  10
HETATM   10  C5  UNL     1       7.007   4.529  20.012  1.00  0.00     0.042 C 
HETATM   11  C4  UNL     1       8.191   4.388  19.109  1.00  0.00     0.020 C 
HETATM   12  C3  UNL     1       7.727   4.355  17.723  1.00  0.00     0.008 C 
HETATM   13  C2  UNL     1       7.393   3.033  17.090  1.00  0.00     0.025 C 
HETATM   14  C1  UNL     1       8.721   2.415  16.762  1.00  0.00     0.012 C 
HETATM   15  C16 UNL     1       6.285   2.197  17.641  1.00  0.00     0.208 C 
HETATM   16  C15 UNL     1       6.702   0.816  18.075  1.00  0.00     0.278 C 
HETATM   17  C21 UNL     1       5.745   2.732  18.955  1.00  0.00     0.035 C 
HETATM   18  C14 UNL     1       7.764   0.712  19.103  1.00  0.00     0.082 C 
HETATM   19  F1  UNL     1       6.939  -0.108  17.128  1.00  0.00    -0.203 F 
HETATM   20  F2  UNL     1       5.628   0.263  18.828  1.00  0.00    -0.203 F 
HETATM   21  C13 UNL     1       7.113   1.080  20.422  1.00  0.00     0.011 C 
HETATM   22  C12 UNL     1       6.269   2.249  20.237  1.00  0.00    -0.006 C 
HETATM   23  C11 UNL     1       6.999   3.392  20.967  1.00  0.00     0.024 C 
HETATM   24  C22 UNL     1       5.723   4.165  19.242  1.00  0.00     0.027 C 
BRANCH  15  25
HETATM   25  N5  UNL     1       5.247   2.082  16.614  1.00  0.00    -0.009 N 
HETATM   26  C17 UNL     1       4.029   1.483  17.162  1.00  0.00     0.282 C 
HETATM   27  C18 UNL     1       5.716   1.026  15.674  1.00  0.00     0.257 C 
HETATM   28  C19 UNL     1       4.644   0.867  14.607  1.00  0.00     0.110 C 
HETATM   29  S1  UNL     1       4.842   2.628  14.043  1.00  0.00    -0.091 SA
HETATM   30  C20 UNL     1       4.774   3.111  15.840  1.00  0.00     0.241 C 
HETATM   31  S2  UNL     1       4.195   4.394  15.811  1.00  0.00    -0.045 SA
ENDBRANCH  15  25
ENDBRANCH   7  10
ENDBRANCH   1   6
BRANCH   5  32
HETATM   32  N3  UNL     1       9.176   8.029  21.648  1.00  0.00    -0.335 N 
HETATM   33  N4  UNL     1       9.165   8.600  20.545  1.00  0.00    -0.349 N 
ATOM     34  H42 UNL     1       8.399   9.228  20.302  1.00  0.00     0.176 HD
ATOM     35  H41 UNL     1       9.938   8.418  19.905  1.00  0.00     0.176 HD
ATOM     36  H3  UNL     1       9.935   7.398  21.906  1.00  0.00     0.180 HD
ENDBRANCH   5  32
TORSDOF 4
ENDMDL
MODEL 3
REMARK VINA RESULT: -8.223170794      0.855      1.320
REMARK  4 active torsions:
REMARK  status: ('A' for Active; 'I' for Inactive)
REMARK    1  A    between atoms: C5_5  and  C6_6 
REMARK       I    between atoms: C6_6  and  N1_8 
REMARK    2  A    between atoms: N1_8  and  C7_10 
REMARK    3  A    between atoms: C10_14  and  N3_15 
REMARK    4  A    between atoms: C16_27  and  N5_28 
ROOT
HETATM    1  C7  UNL     1       6.999   7.299  22.700  1.00  0.00     0.146 A 
HETATM    2  C8  UNL     1       5.649   7.864  22.803  1.00  0.00     0.093 C 
HETATM    3  N2  UNL     1       4.573   8.312  22.867  1.00  0.00    -0.194 NA
HETATM    4  C9  UNL     1       7.977   7.557  23.806  1.00  0.00     0.079 A 
HETATM    5  C10 UNL     1       8.089   8.307  22.530  1.00  0.00     0.145 A 
ENDROOT
BRANCH   1   6
HETATM    6  N1  UNL     1       7.115   6.014  22.040  1.00  0.00    -0.337 N 
HETATM    7  C6  UNL     1       6.880   5.851  20.653  1.00  0.00     0.228 C 
HETATM    8  O1  UNL     1       6.560   6.870  19.989  1.00  0.00    -0.273 OA
ATOM      9  H1  UNL     1       7.376   5.198  22.594  1.00  0.00     0.164 HD
BRANCH   7  10
HETATM   10  C5  UNL     1       7.004   4.545  20.005  1.00  0.00     0.042 C 
HETATM   11  C4  UNL     1       8.177   4.406  19.089  1.00  0.00     0.020 C 
HETATM   12  C3  UNL     1       7.697   4.365  17.708  1.00  0.00     0.008 C 
HETATM   13  C2  UNL     1       7.363   3.038  17.085  1.00  0.00     0.025 C 
HETATM   14  C1  UNL     1       8.691   2.426  16.743  1.00  0.00     0.012 C 
HETATM   15  C16 UNL     1       6.266   2.199  17.652  1.00  0.00     0.208 C 
HETATM   16  C15 UNL     1       6.695   0.822  18.087  1.00  0.00     0.278 C 
HETATM   17  C21 UNL     1       5.739   2.737  18.970  1.00  0.00     0.035 C 
HETATM   18  C14 UNL     1       7.769   0.728  19.102  1.00  0.00     0.082 C 
HETATM   19  F1  UNL     1       6.926  -0.105  17.141  1.00  0.00    -0.203 F 
HETATM   20  F2  UNL     1       5.633   0.267  18.855  1.00  0.00    -0.203 F 
HETATM   21  C13 UNL     1       7.132   1.098  20.428  1.00  0.00     0.011 C 
HETATM   22  C12 UNL     1       6.280   2.262  20.248  1.00  0.00    -0.006 C 
HETATM   23  C11 UNL     1       7.013   3.411  20.964  1.00  0.00     0.024 C 
HETATM   24  C22 UNL     1       5.712   4.171  19.251  1.00  0.00     0.027 C 
BRANCH  15  25
HETATM   25  N5  UNL     1       5.217   2.074  16.638  1.00  0.00    -0.009 N 
HETATM   26  C17 UNL     1       5.533   1.012  15.681  1.00  0.00     0.282 C 
HETATM   27  C18 UNL     1       5.318   3.295  15.791  1.00  0.00     0.257 C 
HETATM   28  C19 UNL     1       4.252   3.182  14.711  1.00  0.00     0.110 C 
HETATM   29  S1  UNL     1       2.881   3.153  15.966  1.00  0.00    -0.091 SA
HETATM   30  C20 UNL     1       3.881   1.885  16.891  1.00  0.00     0.241 C 
HETATM   31  S2  UNL     1       2.903   1.096  17.526  1.00  0.00    -0.045 SA
ENDBRANCH  15  25
ENDBRANCH   7  10
ENDBRANCH   1   6
BRANCH   5  32
HETATM   32  N3  UNL     1       9.175   8.047  21.634  1.00  0.00    -0.335 N 
HETATM   33  N4  UNL     1       9.170   8.621  20.532  1.00  0.00    -0.349 N 
ATOM     34  H42 UNL     1       8.409   9.255  20.289  1.00  0.00     0.176 HD
ATOM     35  H41 UNL     1       9.944   8.436  19.894  1.00  0.00     0.176 HD
ATOM     36  H3  UNL     1       9.929   7.410  21.891  1.00  0.00     0.180 HD
ENDBRANCH   5  32
TORSDOF 4
ENDMDL
MODEL 4
REMARK VINA RESULT: -8.106067959      1.082      1.825
REMARK  4 active torsions:
REMARK  status: ('A' for Active; 'I' for Inactive)
REMARK    1  A    between atoms: C5_5  and  C6_6 
REMARK       I    between atoms: C6_6  and  N1_8 
REMARK    2  A    between atoms: N1_8  and  C7_10 
REMARK    3  A    between atoms: C10_14  and  N3_15 
REMARK    4  A    between atoms: C16_27  and  N5_28 
ROOT
HETATM    1  C7  UNL     1       5.952   7.955  21.359  1.00  0.00     0.146 A 
HETATM    2  C8  UNL     1       6.891   8.996  20.926  1.00  0.00     0.093 C 
HETATM    3  N2  UNL     1       7.651   9.812  20.584  1.00  0.00    -0.194 NA
HETATM    4  C9  UNL     1       4.606   8.365  21.874  1.00  0.00     0.079 A 
HETATM    5  C10 UNL     1       5.664   7.942  22.825  1.00  0.00     0.145 A 
ENDROOT
BRANCH   1   6
HETATM    6  N1  UNL     1       5.997   6.700  20.636  1.00  0.00    -0.337 N 
HETATM    7  C6  UNL     1       7.033   5.754  20.825  1.00  0.00     0.228 C 
HETATM    8  O1  UNL     1       7.937   6.032  21.654  1.00  0.00    -0.273 OA
ATOM      9  H1  UNL     1       5.256   6.490  19.967  1.00  0.00     0.164 HD
BRANCH   7  10
HETATM   10  C5  UNL     1       7.061   4.491  20.086  1.00  0.00     0.042 C 
HETATM   11  C4  UNL     1       8.092   4.417  19.006  1.00  0.00     0.020 C 
HETATM   12  C3  UNL     1       7.422   4.458  17.708  1.00  0.00     0.008 C 
HETATM   13  C2  UNL     1       6.999   3.170  17.056  1.00  0.00     0.025 C 
HETATM   14  C1  UNL     1       8.264   2.588  16.493  1.00  0.00     0.012 C 
HETATM   15  C16 UNL     1       5.992   2.290  17.720  1.00  0.00     0.208 C 
HETATM   16  C15 UNL     1       6.475   0.892  18.004  1.00  0.00     0.278 C 
HETATM   17  C21 UNL     1       5.658   2.742  19.130  1.00  0.00     0.035 C 
HETATM   18  C14 UNL     1       7.682   0.742  18.849  1.00  0.00     0.082 C 
HETATM   19  F1  UNL     1       6.567   0.027  16.979  1.00  0.00    -0.203 F 
HETATM   20  F2  UNL     1       5.531   0.284  18.879  1.00  0.00    -0.203 F 
HETATM   21  C13 UNL     1       7.239   1.026  20.272  1.00  0.00     0.011 C 
HETATM   22  C12 UNL     1       6.373   2.193  20.287  1.00  0.00    -0.006 C 
HETATM   23  C11 UNL     1       7.203   3.301  20.962  1.00  0.00     0.024 C 
HETATM   24  C22 UNL     1       5.675   4.157  19.500  1.00  0.00     0.027 C 
BRANCH  15  25
HETATM   25  N5  UNL     1       4.809   2.222  16.859  1.00  0.00    -0.009 N 
HETATM   26  C17 UNL     1       4.322   3.561  16.525  1.00  0.00     0.282 C 
HETATM   27  C18 UNL     1       3.709   1.697  17.715  1.00  0.00     0.257 C 
HETATM   28  C19 UNL     1       2.458   1.636  16.851  1.00  0.00     0.110 C 
HETATM   29  S1  UNL     1       3.242   0.430  15.673  1.00  0.00    -0.091 SA
HETATM   30  C20 UNL     1       4.730   1.549  15.666  1.00  0.00     0.241 C 
HETATM   31  S2  UNL     1       5.270   1.365  14.379  1.00  0.00    -0.045 SA
ENDBRANCH  15  25
ENDBRANCH   7  10
ENDBRANCH   1   6
BRANCH   5  32
HETATM   32  N3  UNL     1       5.549   6.697  23.524  1.00  0.00    -0.335 N 
HETATM   33  N4  UNL     1       6.420   6.420  24.364  1.00  0.00    -0.349 N 
ATOM     34  H42 UNL     1       7.187   7.069  24.540  1.00  0.00     0.176 HD
ATOM     35  H41 UNL     1       6.339   5.533  24.862  1.00  0.00     0.176 HD
ATOM     36  H3  UNL     1       4.776   6.058  23.338  1.00  0.00     0.180 HD
ENDBRANCH   5  32
TORSDOF 4
ENDMDL
MODEL 5
REMARK VINA RESULT: -8.054233361      1.242      2.122
REMARK  4 active torsions:
REMARK  status: ('A' for Active; 'I' for Inactive)
REMARK    1  A    between atoms: C5_5  and  C6_6 
REMARK       I    between atoms: C6_6  and  N1_8 
REMARK    2  A    between atoms: N1_8  and  C7_10 
REMARK    3  A    between atoms: C10_14  and  N3_15 
REMARK    4  A    between atoms: C16_27  and  N5_28 
ROOT
HETATM    1  C7  UNL     1       7.377   7.808  21.646  1.00  0.00     0.146 A 
HETATM    2  C8  UNL     1       8.038   8.839  20.839  1.00  0.00     0.093 C 
HETATM    3  N2  UNL     1       8.580   9.650  20.200  1.00  0.00    -0.194 NA
HETATM    4  C9  UNL     1       6.084   8.141  22.328  1.00  0.00     0.079 A 
HETATM    5  C10 UNL     1       7.342   8.087  23.114  1.00  0.00     0.145 A 
ENDROOT
BRANCH   1   6
HETATM    6  N1  UNL     1       7.516   6.439  21.190  1.00  0.00    -0.337 N 
HETATM    7  C6  UNL     1       6.863   5.958  20.029  1.00  0.00     0.228 C 
HETATM    8  O1  UNL     1       6.143   6.763  19.386  1.00  0.00    -0.273 OA
ATOM      9  H1  UNL     1       8.105   5.800  21.724  1.00  0.00     0.164 HD
BRANCH   7  10
HETATM   10  C5  UNL     1       7.017   4.572  19.584  1.00  0.00     0.042 C 
HETATM   11  C4  UNL     1       8.325   4.264  18.928  1.00  0.00     0.020 C 
HETATM   12  C3  UNL     1       8.100   4.057  17.498  1.00  0.00     0.008 C 
HETATM   13  C2  UNL     1       7.798   2.673  16.994  1.00  0.00     0.025 C 
HETATM   14  C1  UNL     1       9.123   1.967  16.986  1.00  0.00     0.012 C 
HETATM   15  C16 UNL     1       6.565   1.962  17.448  1.00  0.00     0.208 C 
HETATM   16  C15 UNL     1       6.820   0.640  18.124  1.00  0.00     0.278 C 
HETATM   17  C21 UNL     1       5.846   2.694  18.566  1.00  0.00     0.035 C 
HETATM   18  C14 UNL     1       7.686   0.641  19.325  1.00  0.00     0.082 C 
HETATM   19  F1  UNL     1       7.157  -0.414  17.361  1.00  0.00    -0.203 F 
HETATM   20  F2  UNL     1       5.603   0.237  18.743  1.00  0.00    -0.203 F 
HETATM   21  C13 UNL     1       6.845   1.212  20.452  1.00  0.00     0.011 C 
HETATM   22  C12 UNL     1       6.117   2.374  19.972  1.00  0.00    -0.006 C 
HETATM   23  C11 UNL     1       6.781   3.579  20.662  1.00  0.00     0.024 C 
HETATM   24  C22 UNL     1       5.861   4.153  18.655  1.00  0.00     0.027 C 
BRANCH  15  25
HETATM   25  N5  UNL     1       5.710   1.744  16.279  1.00  0.00    -0.009 N 
HETATM   26  C17 UNL     1       4.362   1.340  16.682  1.00  0.00     0.282 C 
HETATM   27  C18 UNL     1       6.220   0.509  15.622  1.00  0.00     0.257 C 
HETATM   28  C19 UNL     1       5.334   0.243  14.415  1.00  0.00     0.110 C 
HETATM   29  S1  UNL     1       5.802   1.859  13.624  1.00  0.00    -0.091 SA
HETATM   30  C20 UNL     1       5.482   2.653  15.277  1.00  0.00     0.241 C 
HETATM   31  S2  UNL     1       5.050   3.950  14.938  1.00  0.00    -0.045 SA
ENDBRANCH  15  25
ENDBRANCH   7  10
ENDBRANCH   1   6
BRANCH   5  32
HETATM   32  N3  UNL     1       7.559   7.027  24.053  1.00  0.00    -0.335 N 
HETATM   33  N4  UNL     1       6.571   6.562  24.643  1.00  0.00    -0.349 N 
ATOM     34  H42 UNL     1       5.640   6.934  24.455  1.00  0.00     0.176 HD
ATOM     35  H41 UNL     1       6.725   5.807  25.312  1.00  0.00     0.176 HD
ATOM     36  H3  UNL     1       8.496   6.665  24.230  1.00  0.00     0.180 HD
ENDBRANCH   5  32
TORSDOF 4
ENDMDL
