MODEL 1
REMARK VINA RESULT: -7.679001386      0.000      0.000
REMARK  7 active torsions:
REMARK  status: ('A' for Active; 'I' for Inactive)
REMARK    1  A    between atoms: C2_2  and  C3_4 
REMARK       I    between atoms: N3_11  and  C6_13 
REMARK    2  A    between atoms: C6_13  and  O2_15 
REMARK    3  A    between atoms: O2_15  and  C7_16 
REMARK    4  A    between atoms: C7_16  and  C8_17 
REMARK    5  A    between atoms: C9_18  and  C10_19 
REMARK    6  A    between atoms: C10_19  and  O3_20 
REMARK    7  A    between atoms: O3_20  and  C11_21 
ROOT
HETATM    1  C3  UNL     1       7.291   2.644  20.109  1.00  0.00     0.022 C 
HETATM    2  C4  UNL     1       7.229   4.123  20.258  1.00  0.00     0.068 A 
HETATM    3  N1  UNL     1       6.918   4.879  21.314  1.00  0.00    -0.298 N 
ATOM      4  H1  UNL     1       6.658   4.523  22.234  1.00  0.00     0.187 HD
HETATM    5  N2  UNL     1       7.000   6.160  20.990  1.00  0.00    -0.284 N 
ATOM      6  H2  UNL     1       6.809   6.935  21.625  1.00  0.00     0.188 HD
HETATM    7  C5  UNL     1       7.367   6.294  19.708  1.00  0.00     0.133 A 
HETATM    8  N3  UNL     1       7.562   7.354  18.995  1.00  0.00    -0.287 N 
ATOM      9  H3  UNL     1       7.842   7.246  18.020  1.00  0.00     0.172 HD
HETATM   10  C6  UNL     1       7.400   8.656  19.518  1.00  0.00     0.367 C 
HETATM   11  O1  UNL     1       8.255   9.527  19.169  1.00  0.00    -0.238 OA
HETATM   12  C12 UNL     1       7.514   4.989  19.235  1.00  0.00     0.020 A 
HETATM   13  C13 UNL     1       7.895   4.465  17.904  1.00  0.00     0.029 C 
HETATM   14  C14 UNL     1       6.620   4.441  17.086  1.00  0.00     0.037 C 
HETATM   15  C15 UNL     1       5.697   3.332  17.507  1.00  0.00     0.238 C 
HETATM   16  N4  UNL     1       6.380   2.094  17.826  1.00  0.00    -0.066 N 
HETATM   17  C16 UNL     1       5.384   1.097  18.058  1.00  0.00     0.272 C 
HETATM   18  C17 UNL     1       7.022   1.719  16.533  1.00  0.00     0.272 C 
HETATM   19  C18 UNL     1       7.448   2.183  18.730  1.00  0.00     0.227 C 
HETATM   20  C19 UNL     1       8.497   3.112  18.079  1.00  0.00     0.048 C 
ENDROOT
BRANCH  10  21
HETATM   21  O2  UNL     1       6.401   9.055  20.366  1.00  0.00    -0.292 OA
BRANCH  21  22
HETATM   22  C7  UNL     1       6.665  10.002  21.397  1.00  0.00     0.274 C 
BRANCH  22  23
HETATM   23  C8  UNL     1       7.173   9.366  22.601  1.00  0.00    -0.078 C 
HETATM   24  C9  UNL     1       7.591   8.812  23.612  1.00  0.00    -0.078 C 
BRANCH  24  25
HETATM   25  C10 UNL     1       8.041   8.132  24.811  1.00  0.00     0.262 C 
BRANCH  25  26
HETATM   26  O3  UNL     1       9.184   7.451  24.764  1.00  0.00    -0.369 OA
BRANCH  26  27
HETATM   27  C11 UNL     1      10.252   7.914  25.433  1.00  0.00     0.253 C 
HETATM   28 BR1  UNL     1      10.872   6.696  26.773  1.00  0.00    -0.068 Br
ENDBRANCH  26  27
ENDBRANCH  25  26
ENDBRANCH  24  25
ENDBRANCH  22  23
ENDBRANCH  21  22
ENDBRANCH  10  21
BRANCH   1  29
HETATM   29  C2  UNL     1       6.370   1.934  20.999  1.00  0.00     0.035 C 
HETATM   30  C1  UNL     1       6.722   0.840  21.660  1.00  0.00     0.037 C 
HETATM   31 CL1  UNL     1       4.730   2.511  21.233  1.00  0.00    -0.085 Cl
ENDBRANCH   1  29
TORSDOF 7
ENDMDL
MODEL 2
REMARK VINA RESULT: -7.454085469      4.955      8.062
REMARK  7 active torsions:
REMARK  status: ('A' for Active; 'I' for Inactive)
REMARK    1  A    between atoms: C2_2  and  C3_4 
REMARK       I    between atoms: N3_11  and  C6_13 
REMARK    2  A    between atoms: C6_13  and  O2_15 
REMARK    3  A    between atoms: O2_15  and  C7_16 
REMARK    4  A    between atoms: C7_16  and  C8_17 
REMARK    5  A    between atoms: C9_18  and  C10_19 
REMARK    6  A    between atoms: C10_19  and  O3_20 
REMARK    7  A    between atoms: O3_20  and  C11_21 
ROOT
HETATM    1  C3  UNL     1       5.827   7.345  21.778  1.00  0.00     0.022 C 
HETATM    2  C4  UNL     1       6.334   6.146  21.058  1.00  0.00     0.068 A 
HETATM    3  N1  UNL     1       6.339   4.857  21.407  1.00  0.00    -0.298 N 
ATOM      4  H1  UNL     1       5.972   4.486  22.283  1.00  0.00     0.187 HD
HETATM    5  N2  UNL     1       6.891   4.132  20.447  1.00  0.00    -0.284 N 
ATOM      6  H2  UNL     1       7.012   3.120  20.477  1.00  0.00     0.188 HD
HETATM    7  C5  UNL     1       7.270   4.918  19.429  1.00  0.00     0.133 A 
HETATM    8  N3  UNL     1       7.841   4.625  18.308  1.00  0.00    -0.287 N 
ATOM      9  H3  UNL     1       8.053   5.377  17.652  1.00  0.00     0.172 HD
HETATM   10  C6  UNL     1       8.183   3.300  17.957  1.00  0.00     0.367 C 
HETATM   11  O1  UNL     1       7.983   2.954  16.753  1.00  0.00    -0.238 OA
HETATM   12  C12 UNL     1       6.914   6.210  19.818  1.00  0.00     0.020 A 
HETATM   13  C13 UNL     1       7.070   7.517  19.139  1.00  0.00     0.029 C 
HETATM   14  C14 UNL     1       8.475   7.986  19.456  1.00  0.00     0.037 C 
HETATM   15  C15 UNL     1       8.609   8.455  20.878  1.00  0.00     0.238 C 
HETATM   16  N4  UNL     1       7.466   9.209  21.353  1.00  0.00    -0.066 N 
HETATM   17  C16 UNL     1       7.789   9.717  22.648  1.00  0.00     0.272 C 
HETATM   18  C17 UNL     1       7.448  10.399  20.454  1.00  0.00     0.272 C 
HETATM   19  C18 UNL     1       6.207   8.619  21.171  1.00  0.00     0.227 C 
HETATM   20  C19 UNL     1       6.020   8.446  19.647  1.00  0.00     0.048 C 
ENDROOT
BRANCH  10  21
HETATM   21  O2  UNL     1       8.710   2.363  18.807  1.00  0.00    -0.292 OA
BRANCH  21  22
HETATM   22  C7  UNL     1       8.279   1.006  18.740  1.00  0.00     0.274 C 
BRANCH  22  23
HETATM   23  C8  UNL     1       9.350   0.117  18.322  1.00  0.00    -0.078 C 
HETATM   24  C9  UNL     1      10.267  -0.618  17.970  1.00  0.00    -0.078 C 
BRANCH  24  25
HETATM   25  C10 UNL     1      11.374  -1.446  17.531  1.00  0.00     0.262 C 
BRANCH  25  26
HETATM   26  O3  UNL     1      11.106  -2.642  17.014  1.00  0.00    -0.369 OA
BRANCH  26  27
HETATM   27  C11 UNL     1      10.073  -2.776  16.167  1.00  0.00     0.253 C 
HETATM   28 BR1  UNL     1       9.599  -4.605  15.859  1.00  0.00    -0.068 Br
ENDBRANCH  26  27
ENDBRANCH  25  26
ENDBRANCH  24  25
ENDBRANCH  22  23
ENDBRANCH  21  22
ENDBRANCH  10  21
BRANCH   1  29
HETATM   29  C2  UNL     1       5.874   7.206  23.236  1.00  0.00     0.035 C 
HETATM   30  C1  UNL     1       4.789   7.295  23.993  1.00  0.00     0.037 C 
HETATM   31 CL1  UNL     1       7.395   6.909  24.057  1.00  0.00    -0.085 Cl
ENDBRANCH   1  29
TORSDOF 7
ENDMDL
MODEL 3
REMARK VINA RESULT: -7.121140093      2.199      2.638
REMARK  7 active torsions:
REMARK  status: ('A' for Active; 'I' for Inactive)
REMARK    1  A    between atoms: C2_2  and  C3_4 
REMARK       I    between atoms: N3_11  and  C6_13 
REMARK    2  A    between atoms: C6_13  and  O2_15 
REMARK    3  A    between atoms: O2_15  and  C7_16 
REMARK    4  A    between atoms: C7_16  and  C8_17 
REMARK    5  A    between atoms: C9_18  and  C10_19 
REMARK    6  A    between atoms: C10_19  and  O3_20 
REMARK    7  A    between atoms: O3_20  and  C11_21 
ROOT
HETATM    1  C3  UNL     1       8.158   2.584  17.871  1.00  0.00     0.022 C 
HETATM    2  C4  UNL     1       7.571   3.443  18.935  1.00  0.00     0.068 A 
HETATM    3  N1  UNL     1       7.869   3.548  20.233  1.00  0.00    -0.298 N 
ATOM      4  H1  UNL     1       8.593   3.014  20.713  1.00  0.00     0.187 HD
HETATM    5  N2  UNL     1       7.087   4.451  20.802  1.00  0.00    -0.284 N 
ATOM      6  H2  UNL     1       7.120   4.712  21.788  1.00  0.00     0.188 HD
HETATM    7  C5  UNL     1       6.244   4.974  19.901  1.00  0.00     0.133 A 
HETATM    8  N3  UNL     1       5.326   5.873  20.031  1.00  0.00    -0.287 N 
ATOM      9  H3  UNL     1       4.780   6.140  19.211  1.00  0.00     0.172 HD
HETATM   10  C6  UNL     1       5.050   6.499  21.266  1.00  0.00     0.367 C 
HETATM   11  O1  UNL     1       4.809   7.745  21.239  1.00  0.00    -0.238 OA
HETATM   12  C12 UNL     1       6.552   4.329  18.702  1.00  0.00     0.020 A 
HETATM   13  C13 UNL     1       5.976   4.456  17.344  1.00  0.00     0.029 C 
HETATM   14  C14 UNL     1       4.756   3.558  17.322  1.00  0.00     0.037 C 
HETATM   15  C15 UNL     1       5.126   2.102  17.273  1.00  0.00     0.238 C 
HETATM   16  N4  UNL     1       6.255   1.815  16.411  1.00  0.00    -0.066 N 
HETATM   17  C16 UNL     1       6.397   0.396  16.339  1.00  0.00     0.272 C 
HETATM   18  C17 UNL     1       5.768   2.233  15.064  1.00  0.00     0.272 C 
HETATM   19  C18 UNL     1       7.409   2.585  16.615  1.00  0.00     0.227 C 
HETATM   20  C19 UNL     1       7.011   4.053  16.348  1.00  0.00     0.048 C 
ENDROOT
BRANCH  10  21
HETATM   21  O2  UNL     1       5.021   5.875  22.486  1.00  0.00    -0.292 OA
BRANCH  21  22
HETATM   22  C7  UNL     1       4.838   6.631  23.679  1.00  0.00     0.274 C 
BRANCH  22  23
HETATM   23  C8  UNL     1       6.103   7.068  24.244  1.00  0.00    -0.078 C 
HETATM   24  C9  UNL     1       7.180   7.419  24.715  1.00  0.00    -0.078 C 
BRANCH  24  25
HETATM   25  C10 UNL     1       8.465   7.785  25.279  1.00  0.00     0.262 C 
BRANCH  25  26
HETATM   26  O3  UNL     1       9.555   7.624  24.533  1.00  0.00    -0.369 OA
BRANCH  26  27
HETATM   27  C11 UNL     1      10.764   7.792  25.093  1.00  0.00     0.253 C 
HETATM   28 BR1  UNL     1      10.952   6.848  26.747  1.00  0.00    -0.068 Br
ENDBRANCH  26  27
ENDBRANCH  25  26
ENDBRANCH  24  25
ENDBRANCH  22  23
ENDBRANCH  21  22
ENDBRANCH  10  21
BRANCH   1  29
HETATM   29  C2  UNL     1       8.699   1.322  18.380  1.00  0.00     0.035 C 
HETATM   30  C1  UNL     1       9.863   0.834  17.975  1.00  0.00     0.037 C 
HETATM   31 CL1  UNL     1       7.814   0.385  19.569  1.00  0.00    -0.085 Cl
ENDBRANCH   1  29
TORSDOF 7
ENDMDL
MODEL 4
REMARK VINA RESULT: -7.120127741      1.804      2.143
REMARK  7 active torsions:
REMARK  status: ('A' for Active; 'I' for Inactive)
REMARK    1  A    between atoms: C2_2  and  C3_4 
REMARK       I    between atoms: N3_11  and  C6_13 
REMARK    2  A    between atoms: C6_13  and  O2_15 
REMARK    3  A    between atoms: O2_15  and  C7_16 
REMARK    4  A    between atoms: C7_16  and  C8_17 
REMARK    5  A    between atoms: C9_18  and  C10_19 
REMARK    6  A    between atoms: C10_19  and  O3_20 
REMARK    7  A    between atoms: O3_20  and  C11_21 
ROOT
HETATM    1  C3  UNL     1       8.157   2.058  17.487  1.00  0.00     0.022 C 
HETATM    2  C4  UNL     1       7.840   3.373  18.108  1.00  0.00     0.068 A 
HETATM    3  N1  UNL     1       8.143   3.864  19.313  1.00  0.00    -0.298 N 
ATOM      4  H1  UNL     1       8.671   3.369  20.031  1.00  0.00     0.187 HD
HETATM    5  N2  UNL     1       7.656   5.088  19.435  1.00  0.00    -0.284 N 
ATOM      6  H2  UNL     1       7.755   5.674  20.264  1.00  0.00     0.188 HD
HETATM    7  C5  UNL     1       7.014   5.449  18.315  1.00  0.00     0.133 A 
HETATM    8  N3  UNL     1       6.401   6.546  18.014  1.00  0.00    -0.287 N 
ATOM      9  H3  UNL     1       5.967   6.630  17.095  1.00  0.00     0.172 HD
HETATM   10  C6  UNL     1       6.310   7.632  18.912  1.00  0.00     0.367 C 
HETATM   11  O1  UNL     1       6.448   8.796  18.423  1.00  0.00    -0.238 OA
HETATM   12  C12 UNL     1       7.130   4.351  17.462  1.00  0.00     0.020 A 
HETATM   13  C13 UNL     1       6.631   4.120  16.087  1.00  0.00     0.029 C 
HETATM   14  C14 UNL     1       5.201   3.644  16.237  1.00  0.00     0.037 C 
HETATM   15  C15 UNL     1       5.124   2.231  16.743  1.00  0.00     0.238 C 
HETATM   16  N4  UNL     1       6.127   1.352  16.174  1.00  0.00    -0.066 N 
HETATM   17  C16 UNL     1       5.845   0.025  16.620  1.00  0.00     0.272 C 
HETATM   18  C17 UNL     1       5.799   1.361  14.719  1.00  0.00     0.272 C 
HETATM   19  C18 UNL     1       7.455   1.799  16.231  1.00  0.00     0.227 C 
HETATM   20  C19 UNL     1       7.510   3.115  15.424  1.00  0.00     0.048 C 
ENDROOT
BRANCH  10  21
HETATM   21  O2  UNL     1       6.086   7.534  20.260  1.00  0.00    -0.292 OA
BRANCH  21  22
HETATM   22  C7  UNL     1       6.237   8.674  21.102  1.00  0.00     0.274 C 
BRANCH  22  23
HETATM   23  C8  UNL     1       7.420   8.575  21.940  1.00  0.00    -0.078 C 
HETATM   24  C9  UNL     1       8.406   8.495  22.665  1.00  0.00    -0.078 C 
BRANCH  24  25
HETATM   25  C10 UNL     1       9.550   8.433  23.554  1.00  0.00     0.262 C 
BRANCH  25  26
HETATM   26  O3  UNL     1       9.575   7.491  24.494  1.00  0.00    -0.369 OA
BRANCH  26  27
HETATM   27  C11 UNL     1       9.673   7.851  25.783  1.00  0.00     0.253 C 
HETATM   28 BR1  UNL     1      10.842   6.713  26.784  1.00  0.00    -0.068 Br
ENDBRANCH  26  27
ENDBRANCH  25  26
ENDBRANCH  24  25
ENDBRANCH  22  23
ENDBRANCH  21  22
ENDBRANCH  10  21
BRANCH   1  29
HETATM   29  C2  UNL     1       8.297   0.976  18.465  1.00  0.00     0.035 C 
HETATM   30  C1  UNL     1       9.295   0.106  18.423  1.00  0.00     0.037 C 
HETATM   31 CL1  UNL     1       7.127   0.783  19.757  1.00  0.00    -0.085 Cl
ENDBRANCH   1  29
TORSDOF 7
ENDMDL
MODEL 5
REMARK VINA RESULT: -7.000640273      4.022      7.181
REMARK  7 active torsions:
REMARK  status: ('A' for Active; 'I' for Inactive)
REMARK    1  A    between atoms: C2_2  and  C3_4 
REMARK       I    between atoms: N3_11  and  C6_13 
REMARK    2  A    between atoms: C6_13  and  O2_15 
REMARK    3  A    between atoms: O2_15  and  C7_16 
REMARK    4  A    between atoms: C7_16  and  C8_17 
REMARK    5  A    between atoms: C9_18  and  C10_19 
REMARK    6  A    between atoms: C10_19  and  O3_20 
REMARK    7  A    between atoms: O3_20  and  C11_21 
ROOT
HETATM    1  C3  UNL     1       5.427   7.777  22.226  1.00  0.00     0.022 C 
HETATM    2  C4  UNL     1       5.225   6.340  21.895  1.00  0.00     0.068 A 
HETATM    3  N1  UNL     1       4.758   5.332  22.637  1.00  0.00    -0.298 N 
ATOM      4  H1  UNL     1       4.455   5.411  23.608  1.00  0.00     0.187 HD
HETATM    5  N2  UNL     1       4.747   4.217  21.924  1.00  0.00    -0.284 N 
ATOM      6  H2  UNL     1       4.434   3.309  22.268  1.00  0.00     0.188 HD
HETATM    7  C5  UNL     1       5.205   4.449  20.687  1.00  0.00     0.133 A 
HETATM    8  N3  UNL     1       5.359   3.650  19.683  1.00  0.00    -0.287 N 
ATOM      9  H3  UNL     1       5.730   4.024  18.809  1.00  0.00     0.172 HD
HETATM   10  C6  UNL     1       5.033   2.278  19.753  1.00  0.00     0.367 C 
HETATM   11  O1  UNL     1       4.466   1.769  18.738  1.00  0.00    -0.238 OA
HETATM   12  C12 UNL     1       5.513   5.810  20.664  1.00  0.00     0.020 A 
HETATM   13  C13 UNL     1       6.063   6.674  19.595  1.00  0.00     0.029 C 
HETATM   14  C14 UNL     1       7.566   6.504  19.653  1.00  0.00     0.037 C 
HETATM   15  C15 UNL     1       8.171   7.203  20.839  1.00  0.00     0.238 C 
HETATM   16  N4  UNL     1       7.574   8.494  21.121  1.00  0.00    -0.066 N 
HETATM   17  C16 UNL     1       8.336   9.106  22.162  1.00  0.00     0.272 C 
HETATM   18  C17 UNL     1       7.875   9.283  19.892  1.00  0.00     0.272 C 
HETATM   19  C18 UNL     1       6.176   8.528  21.219  1.00  0.00     0.227 C 
HETATM   20  C19 UNL     1       5.628   8.079  19.847  1.00  0.00     0.048 C 
ENDROOT
BRANCH  10  21
HETATM   21  O2  UNL     1       5.277   1.455  20.821  1.00  0.00    -0.292 OA
BRANCH  21  22
HETATM   22  C7  UNL     1       6.615   1.158  21.212  1.00  0.00     0.274 C 
BRANCH  22  23
HETATM   23  C8  UNL     1       7.436   0.762  20.080  1.00  0.00    -0.078 C 
HETATM   24  C9  UNL     1       8.143   0.420  19.138  1.00  0.00    -0.078 C 
BRANCH  24  25
HETATM   25  C10 UNL     1       9.020   0.025  18.053  1.00  0.00     0.262 C 
BRANCH  25  26
HETATM   26  O3  UNL     1       9.457   0.962  17.215  1.00  0.00    -0.369 OA
BRANCH  26  27
HETATM   27  C11 UNL     1       9.709   2.196  17.683  1.00  0.00     0.253 C 
HETATM   28 BR1  UNL     1       8.245   3.401  17.420  1.00  0.00    -0.068 Br
ENDBRANCH  26  27
ENDBRANCH  25  26
ENDBRANCH  24  25
ENDBRANCH  22  23
ENDBRANCH  21  22
ENDBRANCH  10  21
BRANCH   1  29
HETATM   29  C2  UNL     1       5.706   8.009  23.645  1.00  0.00     0.035 C 
HETATM   30  C1  UNL     1       5.045   8.908  24.361  1.00  0.00     0.037 C 
HETATM   31 CL1  UNL     1       6.949   7.090  24.474  1.00  0.00    -0.085 Cl
ENDBRANCH   1  29
TORSDOF 7
ENDMDL
