MODEL 1
REMARK VINA RESULT: -7.685378047      0.000      0.000
REMARK  11 active torsions:
REMARK  status: ('A' for Active; 'I' for Inactive)
REMARK       I    between atoms: C1_2  and  N1_3 
REMARK       I    between atoms: C1_2  and  N2_15 
REMARK    1  A    between atoms: N1_3  and  C2_5 
REMARK    2  A    between atoms: C2_5  and  C3_6 
REMARK    3  A    between atoms: C3_6  and  C4_7 
REMARK    4  A    between atoms: C4_7  and  C5_9 
REMARK    5  A    between atoms: C6_10  and  C7_11 
REMARK    6  A    between atoms: C7_11  and  C8_12 
REMARK    7  A    between atoms: N3_18  and  C12_19 
REMARK    8  A    between atoms: C12_19  and  O2_20 
REMARK    9  A    between atoms: C12_19  and  N4_22 
REMARK   10  A    between atoms: C16_26  and  C17_27 
REMARK   11  A    between atoms: C17_27  and  O3_28 
ROOT
HETATM    1  O1  UNL     1       4.330   7.769  19.049  1.00  0.00    -0.247 OA
HETATM    2  C1  UNL     1       5.483   7.315  19.020  1.00  0.00     0.322 C 
HETATM    3  N1  UNL     1       6.100   6.679  17.947  1.00  0.00    -0.323 N 
ATOM      4  H1  UNL     1       7.061   6.395  18.135  1.00  0.00     0.169 HD
HETATM    5  N2  UNL     1       6.265   7.471  20.244  1.00  0.00    -0.328 N 
HETATM    6  C10 UNL     1       7.596   6.998  20.305  1.00  0.00     0.172 C 
HETATM    7  C11 UNL     1       8.288   7.324  21.625  1.00  0.00     0.087 C 
HETATM    8  N3  UNL     1       7.467   7.250  22.766  1.00  0.00    -0.324 N 
HETATM    9  C18 UNL     1       5.990   7.117  22.560  1.00  0.00     0.151 C 
HETATM   10  C19 UNL     1       5.691   8.104  21.421  1.00  0.00     0.148 C 
ENDROOT
BRANCH   3  11
HETATM   11  C2  UNL     1       5.653   6.349  16.645  1.00  0.00     0.067 C 
BRANCH  11  12
HETATM   12  C3  UNL     1       5.013   5.078  16.328  1.00  0.00     0.073 C 
BRANCH  12  13
HETATM   13  C4  UNL     1       5.743   4.026  15.590  1.00  0.00     0.141 C 
HETATM   14 BR1  UNL     1       6.453   4.679  13.903  1.00  0.00    -0.077 Br
BRANCH  13  15
HETATM   15  C5  UNL     1       6.959   3.672  16.419  1.00  0.00    -0.090 C 
HETATM   16  C6  UNL     1       7.912   3.391  17.095  1.00  0.00    -0.102 C 
BRANCH  16  17
HETATM   17  C7  UNL     1       9.054   3.043  17.934  1.00  0.00     0.122 C 
BRANCH  17  18
HETATM   18  C8  UNL     1       9.754   1.831  17.431  1.00  0.00    -0.003 C 
HETATM   19  C9  UNL     1       9.621   0.696  18.100  1.00  0.00     0.081 C 
HETATM   20 CL1  UNL     1      10.409  -0.784  17.583  1.00  0.00    -0.097 Cl
ENDBRANCH  17  18
ENDBRANCH  16  17
ENDBRANCH  13  15
ENDBRANCH  12  13
ENDBRANCH  11  12
ENDBRANCH   3  11
BRANCH   8  21
HETATM   21  C12 UNL     1       7.904   7.294  24.092  1.00  0.00     0.221 C 
BRANCH  21  22
HETATM   22  O2  UNL     1       7.051   6.635  24.915  1.00  0.00    -0.332 OA
ATOM     23  H2  UNL     1       7.517   6.201  25.621  1.00  0.00     0.221 HD
ENDBRANCH  21  22
BRANCH  21  24
HETATM   24  N4  UNL     1       8.953   7.816  24.795  1.00  0.00    -0.341 N 
HETATM   25  C13 UNL     1       8.977   7.624  26.324  1.00  0.00     0.127 C 
HETATM   26  C14 UNL     1      10.386   7.061  26.461  1.00  0.00     0.022 C 
HETATM   27  C15 UNL     1      11.152   7.503  25.197  1.00  0.00     0.029 C 
HETATM   28  C16 UNL     1      10.150   8.544  24.686  1.00  0.00     0.111 C 
BRANCH  28  29
HETATM   29  C17 UNL     1      10.569   9.329  23.540  1.00  0.00     0.189 C 
BRANCH  29  30
HETATM   30  O3  UNL     1      10.559  10.695  23.918  1.00  0.00    -0.399 OA
ATOM     31  H3  UNL     1      10.722  11.216  23.141  1.00  0.00     0.209 HD
ENDBRANCH  29  30
ENDBRANCH  28  29
ENDBRANCH  21  24
ENDBRANCH   8  21
TORSDOF 11
ENDMDL
MODEL 2
REMARK VINA RESULT: -7.642713785      2.474      3.399
REMARK  11 active torsions:
REMARK  status: ('A' for Active; 'I' for Inactive)
REMARK       I    between atoms: C1_2  and  N1_3 
REMARK       I    between atoms: C1_2  and  N2_15 
REMARK    1  A    between atoms: N1_3  and  C2_5 
REMARK    2  A    between atoms: C2_5  and  C3_6 
REMARK    3  A    between atoms: C3_6  and  C4_7 
REMARK    4  A    between atoms: C4_7  and  C5_9 
REMARK    5  A    between atoms: C6_10  and  C7_11 
REMARK    6  A    between atoms: C7_11  and  C8_12 
REMARK    7  A    between atoms: N3_18  and  C12_19 
REMARK    8  A    between atoms: C12_19  and  O2_20 
REMARK    9  A    between atoms: C12_19  and  N4_22 
REMARK   10  A    between atoms: C16_26  and  C17_27 
REMARK   11  A    between atoms: C17_27  and  O3_28 
ROOT
HETATM    1  O1  UNL     1       5.896   4.058  19.434  1.00  0.00    -0.247 OA
HETATM    2  C1  UNL     1       6.908   4.671  19.064  1.00  0.00     0.322 C 
HETATM    3  N1  UNL     1       7.744   4.333  18.004  1.00  0.00    -0.323 N 
ATOM      4  H1  UNL     1       8.516   4.985  17.866  1.00  0.00     0.169 HD
HETATM    5  N2  UNL     1       7.246   5.869  19.827  1.00  0.00    -0.328 N 
HETATM    6  C10 UNL     1       8.375   6.644  19.474  1.00  0.00     0.172 C 
HETATM    7  C11 UNL     1       8.526   7.904  20.322  1.00  0.00     0.087 C 
HETATM    8  N3  UNL     1       8.172   7.761  21.676  1.00  0.00    -0.324 N 
HETATM    9  C18 UNL     1       7.464   6.508  22.088  1.00  0.00     0.151 C 
HETATM   10  C19 UNL     1       6.440   6.282  20.965  1.00  0.00     0.148 C 
ENDROOT
BRANCH   3  11
HETATM   11  C2  UNL     1       7.732   3.260  17.080  1.00  0.00     0.067 C 
BRANCH  11  12
HETATM   12  C3  UNL     1       8.716   2.186  17.105  1.00  0.00     0.073 C 
BRANCH  12  13
HETATM   13  C4  UNL     1       8.989   1.436  18.349  1.00  0.00     0.141 C 
HETATM   14 BR1  UNL     1       7.368   0.689  19.119  1.00  0.00    -0.077 Br
BRANCH  13  15
HETATM   15  C5  UNL     1       9.832   0.239  17.965  1.00  0.00    -0.090 C 
HETATM   16  C6  UNL     1      10.494  -0.721  17.677  1.00  0.00    -0.102 C 
BRANCH  16  17
HETATM   17  C7  UNL     1      11.287  -1.901  17.346  1.00  0.00     0.122 C 
BRANCH  17  18
HETATM   18  C8  UNL     1      10.514  -2.863  16.514  1.00  0.00    -0.003 C 
HETATM   19  C9  UNL     1       9.456  -2.422  15.851  1.00  0.00     0.081 C 
HETATM   20 CL1  UNL     1       8.484  -3.483  14.845  1.00  0.00    -0.097 Cl
ENDBRANCH  17  18
ENDBRANCH  16  17
ENDBRANCH  13  15
ENDBRANCH  12  13
ENDBRANCH  11  12
ENDBRANCH   3  11
BRANCH   8  21
HETATM   21  C12 UNL     1       8.417   8.692  22.688  1.00  0.00     0.221 C 
BRANCH  21  22
HETATM   22  O2  UNL     1       8.217   9.961  22.252  1.00  0.00    -0.332 OA
ATOM     23  H2  UNL     1       8.828  10.566  22.657  1.00  0.00     0.221 HD
ENDBRANCH  21  22
BRANCH  21  24
HETATM   24  N4  UNL     1       8.803   8.683  23.999  1.00  0.00    -0.341 N 
HETATM   25  C13 UNL     1       7.763   8.289  25.065  1.00  0.00     0.127 C 
HETATM   26  C14 UNL     1       8.575   7.228  25.796  1.00  0.00     0.022 C 
HETATM   27  C15 UNL     1      10.055   7.519  25.473  1.00  0.00     0.029 C 
HETATM   28  C16 UNL     1       9.877   8.918  24.873  1.00  0.00     0.111 C 
BRANCH  28  29
HETATM   29  C17 UNL     1      11.095   9.638  24.554  1.00  0.00     0.189 C 
BRANCH  29  30
HETATM   30  O3  UNL     1      10.732  10.863  23.940  1.00  0.00    -0.399 OA
ATOM     31  H3  UNL     1      11.429  11.489  24.098  1.00  0.00     0.209 HD
ENDBRANCH  29  30
ENDBRANCH  28  29
ENDBRANCH  21  24
ENDBRANCH   8  21
TORSDOF 11
ENDMDL
MODEL 3
REMARK VINA RESULT: -7.637416139      1.882      2.411
REMARK  11 active torsions:
REMARK  status: ('A' for Active; 'I' for Inactive)
REMARK       I    between atoms: C1_2  and  N1_3 
REMARK       I    between atoms: C1_2  and  N2_15 
REMARK    1  A    between atoms: N1_3  and  C2_5 
REMARK    2  A    between atoms: C2_5  and  C3_6 
REMARK    3  A    between atoms: C3_6  and  C4_7 
REMARK    4  A    between atoms: C4_7  and  C5_9 
REMARK    5  A    between atoms: C6_10  and  C7_11 
REMARK    6  A    between atoms: C7_11  and  C8_12 
REMARK    7  A    between atoms: N3_18  and  C12_19 
REMARK    8  A    between atoms: C12_19  and  O2_20 
REMARK    9  A    between atoms: C12_19  and  N4_22 
REMARK   10  A    between atoms: C16_26  and  C17_27 
REMARK   11  A    between atoms: C17_27  and  O3_28 
ROOT
HETATM    1  O1  UNL     1       4.590   3.765  19.424  1.00  0.00    -0.247 OA
HETATM    2  C1  UNL     1       5.025   4.675  18.703  1.00  0.00     0.322 C 
HETATM    3  N1  UNL     1       4.889   4.778  17.322  1.00  0.00    -0.323 N 
ATOM      4  H1  UNL     1       5.313   5.618  16.929  1.00  0.00     0.169 HD
HETATM    5  N2  UNL     1       5.752   5.742  19.385  1.00  0.00    -0.328 N 
HETATM    6  C10 UNL     1       6.275   6.831  18.650  1.00  0.00     0.172 C 
HETATM    7  C11 UNL     1       6.925   7.892  19.533  1.00  0.00     0.087 C 
HETATM    8  N3  UNL     1       7.631   7.397  20.645  1.00  0.00    -0.324 N 
HETATM    9  C18 UNL     1       7.468   5.950  20.990  1.00  0.00     0.151 C 
HETATM   10  C19 UNL     1       5.961   5.702  20.824  1.00  0.00     0.148 C 
ENDROOT
BRANCH   3  11
HETATM   11  C2  UNL     1       4.276   3.944  16.356  1.00  0.00     0.067 C 
BRANCH  11  12
HETATM   12  C3  UNL     1       4.906   2.735  15.842  1.00  0.00     0.073 C 
BRANCH  12  13
HETATM   13  C4  UNL     1       6.158   2.807  15.059  1.00  0.00     0.141 C 
HETATM   14 BR1  UNL     1       6.312   4.481  14.085  1.00  0.00    -0.077 Br
BRANCH  13  15
HETATM   15  C5  UNL     1       7.298   2.823  16.055  1.00  0.00    -0.090 C 
HETATM   16  C6  UNL     1       8.192   2.821  16.857  1.00  0.00    -0.102 C 
BRANCH  16  17
HETATM   17  C7  UNL     1       9.269   2.798  17.842  1.00  0.00     0.122 C 
BRANCH  17  18
HETATM   18  C8  UNL     1      10.178   1.639  17.631  1.00  0.00    -0.003 C 
HETATM   19  C9  UNL     1       9.771   0.436  18.006  1.00  0.00     0.081 C 
HETATM   20 CL1  UNL     1      10.774  -0.989  17.798  1.00  0.00    -0.097 Cl
ENDBRANCH  17  18
ENDBRANCH  16  17
ENDBRANCH  13  15
ENDBRANCH  12  13
ENDBRANCH  11  12
ENDBRANCH   3  11
BRANCH   8  21
HETATM   21  C12 UNL     1       8.477   8.138  21.472  1.00  0.00     0.221 C 
BRANCH  21  22
HETATM   22  O2  UNL     1       9.549   8.609  20.788  1.00  0.00    -0.332 OA
ATOM     23  H2  UNL     1      10.159   9.055  21.364  1.00  0.00     0.221 HD
ENDBRANCH  21  22
BRANCH  21  24
HETATM   24  N4  UNL     1       8.529   8.523  22.783  1.00  0.00    -0.341 N 
HETATM   25  C13 UNL     1       7.307   9.247  23.381  1.00  0.00     0.127 C 
HETATM   26  C14 UNL     1       7.113   8.383  24.620  1.00  0.00     0.022 C 
HETATM   27  C15 UNL     1       8.468   7.692  24.881  1.00  0.00     0.029 C 
HETATM   28  C16 UNL     1       9.330   8.537  23.936  1.00  0.00     0.111 C 
BRANCH  28  29
HETATM   29  C17 UNL     1      10.760   8.296  23.985  1.00  0.00     0.189 C 
BRANCH  29  30
HETATM   30  O3  UNL     1      11.356   8.976  22.894  1.00  0.00    -0.399 OA
ATOM     31  H3  UNL     1      11.628   8.327  22.256  1.00  0.00     0.209 HD
ENDBRANCH  29  30
ENDBRANCH  28  29
ENDBRANCH  21  24
ENDBRANCH   8  21
TORSDOF 11
ENDMDL
MODEL 4
REMARK VINA RESULT: -7.551054158      1.135      1.248
REMARK  11 active torsions:
REMARK  status: ('A' for Active; 'I' for Inactive)
REMARK       I    between atoms: C1_2  and  N1_3 
REMARK       I    between atoms: C1_2  and  N2_15 
REMARK    1  A    between atoms: N1_3  and  C2_5 
REMARK    2  A    between atoms: C2_5  and  C3_6 
REMARK    3  A    between atoms: C3_6  and  C4_7 
REMARK    4  A    between atoms: C4_7  and  C5_9 
REMARK    5  A    between atoms: C6_10  and  C7_11 
REMARK    6  A    between atoms: C7_11  and  C8_12 
REMARK    7  A    between atoms: N3_18  and  C12_19 
REMARK    8  A    between atoms: C12_19  and  O2_20 
REMARK    9  A    between atoms: C12_19  and  N4_22 
REMARK   10  A    between atoms: C16_26  and  C17_27 
REMARK   11  A    between atoms: C17_27  and  O3_28 
ROOT
HETATM    1  O1  UNL     1       7.456   8.760  18.025  1.00  0.00    -0.247 OA
HETATM    2  C1  UNL     1       6.903   7.765  18.515  1.00  0.00     0.322 C 
HETATM    3  N1  UNL     1       5.973   6.939  17.891  1.00  0.00    -0.323 N 
ATOM      4  H1  UNL     1       5.653   6.166  18.475  1.00  0.00     0.169 HD
HETATM    5  N2  UNL     1       7.274   7.436  19.889  1.00  0.00    -0.328 N 
HETATM    6  C10 UNL     1       6.707   6.311  20.531  1.00  0.00     0.172 C 
HETATM    7  C11 UNL     1       7.273   6.070  21.927  1.00  0.00     0.087 C 
HETATM    8  N3  UNL     1       7.553   7.231  22.670  1.00  0.00    -0.324 N 
HETATM    9  C18 UNL     1       7.514   8.546  21.956  1.00  0.00     0.151 C 
HETATM   10  C19 UNL     1       8.222   8.260  20.623  1.00  0.00     0.148 C 
ENDROOT
BRANCH   3  11
HETATM   11  C2  UNL     1       5.383   6.962  16.605  1.00  0.00     0.067 C 
BRANCH  11  12
HETATM   12  C3  UNL     1       5.762   6.036  15.545  1.00  0.00     0.073 C 
BRANCH  12  13
HETATM   13  C4  UNL     1       5.605   4.577  15.722  1.00  0.00     0.141 C 
HETATM   14 BR1  UNL     1       5.836   3.612  14.051  1.00  0.00    -0.077 Br
BRANCH  13  15
HETATM   15  C5  UNL     1       6.746   4.118  16.604  1.00  0.00    -0.090 C 
HETATM   16  C6  UNL     1       7.666   3.763  17.291  1.00  0.00    -0.102 C 
BRANCH  16  17
HETATM   17  C7  UNL     1       8.798   3.347  18.113  1.00  0.00     0.122 C 
BRANCH  17  18
HETATM   18  C8  UNL     1       8.917   1.865  18.172  1.00  0.00    -0.003 C 
HETATM   19  C9  UNL     1      10.049   1.303  17.776  1.00  0.00     0.081 C 
HETATM   20 CL1  UNL     1      10.281  -0.436  17.809  1.00  0.00    -0.097 Cl
ENDBRANCH  17  18
ENDBRANCH  16  17
ENDBRANCH  13  15
ENDBRANCH  12  13
ENDBRANCH  11  12
ENDBRANCH   3  11
BRANCH   8  21
HETATM   21  C12 UNL     1       7.873   7.276  24.029  1.00  0.00     0.221 C 
BRANCH  21  22
HETATM   22  O2  UNL     1       6.948   6.623  24.776  1.00  0.00    -0.332 OA
ATOM     23  H2  UNL     1       7.354   5.979  25.344  1.00  0.00     0.221 HD
ENDBRANCH  21  22
BRANCH  21  24
HETATM   24  N4  UNL     1       8.860   7.794  24.819  1.00  0.00    -0.341 N 
HETATM   25  C13 UNL     1       8.867   7.427  26.316  1.00  0.00     0.127 C 
HETATM   26  C14 UNL     1      10.313   6.965  26.432  1.00  0.00     0.022 C 
HETATM   27  C15 UNL     1      11.068   7.610  25.251  1.00  0.00     0.029 C 
HETATM   28  C16 UNL     1       9.995   8.621  24.831  1.00  0.00     0.111 C 
BRANCH  28  29
HETATM   29  C17 UNL     1      10.374   9.565  23.797  1.00  0.00     0.189 C 
BRANCH  29  30
HETATM   30  O3  UNL     1      11.271   8.912  22.915  1.00  0.00    -0.399 OA
ATOM     31  H3  UNL     1      12.153   9.180  23.143  1.00  0.00     0.209 HD
ENDBRANCH  29  30
ENDBRANCH  28  29
ENDBRANCH  21  24
ENDBRANCH   8  21
TORSDOF 11
ENDMDL
MODEL 5
REMARK VINA RESULT: -7.511995071      2.445      3.120
REMARK  11 active torsions:
REMARK  status: ('A' for Active; 'I' for Inactive)
REMARK       I    between atoms: C1_2  and  N1_3 
REMARK       I    between atoms: C1_2  and  N2_15 
REMARK    1  A    between atoms: N1_3  and  C2_5 
REMARK    2  A    between atoms: C2_5  and  C3_6 
REMARK    3  A    between atoms: C3_6  and  C4_7 
REMARK    4  A    between atoms: C4_7  and  C5_9 
REMARK    5  A    between atoms: C6_10  and  C7_11 
REMARK    6  A    between atoms: C7_11  and  C8_12 
REMARK    7  A    between atoms: N3_18  and  C12_19 
REMARK    8  A    between atoms: C12_19  and  O2_20 
REMARK    9  A    between atoms: C12_19  and  N4_22 
REMARK   10  A    between atoms: C16_26  and  C17_27 
REMARK   11  A    between atoms: C17_27  and  O3_28 
ROOT
HETATM    1  O1  UNL     1       4.401   3.628  19.812  1.00  0.00    -0.247 OA
HETATM    2  C1  UNL     1       5.192   4.127  18.998  1.00  0.00     0.322 C 
HETATM    3  N1  UNL     1       5.433   3.691  17.698  1.00  0.00    -0.323 N 
ATOM      4  H1  UNL     1       6.117   4.256  17.196  1.00  0.00     0.169 HD
HETATM    5  N2  UNL     1       5.942   5.290  19.463  1.00  0.00    -0.328 N 
HETATM    6  C10 UNL     1       6.860   5.938  18.604  1.00  0.00     0.172 C 
HETATM    7  C11 UNL     1       7.486   7.183  19.224  1.00  0.00     0.087 C 
HETATM    8  N3  UNL     1       7.763   7.092  20.601  1.00  0.00    -0.324 N 
HETATM    9  C18 UNL     1       7.203   5.926  21.353  1.00  0.00     0.151 C 
HETATM   10  C19 UNL     1       5.770   5.798  20.816  1.00  0.00     0.148 C 
ENDROOT
BRANCH   3  11
HETATM   11  C2  UNL     1       4.913   2.617  16.938  1.00  0.00     0.067 C 
BRANCH  11  12
HETATM   12  C3  UNL     1       4.689   1.289  17.496  1.00  0.00     0.073 C 
BRANCH  12  13
HETATM   13  C4  UNL     1       5.487   0.132  17.042  1.00  0.00     0.141 C 
HETATM   14 BR1  UNL     1       5.581   0.027  15.103  1.00  0.00    -0.077 Br
BRANCH  13  15
HETATM   15  C5  UNL     1       6.911   0.376  17.493  1.00  0.00    -0.090 C 
HETATM   16  C6  UNL     1       8.046   0.578  17.832  1.00  0.00    -0.102 C 
BRANCH  16  17
HETATM   17  C7  UNL     1       9.429   0.835  18.221  1.00  0.00     0.122 C 
BRANCH  17  18
HETATM   18  C8  UNL     1      10.285  -0.365  18.024  1.00  0.00    -0.003 C 
HETATM   19  C9  UNL     1      10.020  -1.175  17.010  1.00  0.00     0.081 C 
HETATM   20 CL1  UNL     1      10.975  -2.614  16.698  1.00  0.00    -0.097 Cl
ENDBRANCH  17  18
ENDBRANCH  16  17
ENDBRANCH  13  15
ENDBRANCH  12  13
ENDBRANCH  11  12
ENDBRANCH   3  11
BRANCH   8  21
HETATM   21  C12 UNL     1       8.517   8.002  21.345  1.00  0.00     0.221 C 
BRANCH  21  22
HETATM   22  O2  UNL     1       9.518   8.538  20.603  1.00  0.00    -0.332 OA
ATOM     23  H2  UNL     1       9.678   8.028  19.817  1.00  0.00     0.221 HD
ENDBRANCH  21  22
BRANCH  21  24
HETATM   24  N4  UNL     1       8.529   8.506  22.615  1.00  0.00    -0.341 N 
HETATM   25  C13 UNL     1       7.315   9.328  23.088  1.00  0.00     0.127 C 
HETATM   26  C14 UNL     1       7.033   8.593  24.391  1.00  0.00     0.022 C 
HETATM   27  C15 UNL     1       8.346   7.879  24.776  1.00  0.00     0.029 C 
HETATM   28  C16 UNL     1       9.282   8.599  23.798  1.00  0.00     0.111 C 
BRANCH  28  29
HETATM   29  C17 UNL     1      10.697   8.310  23.934  1.00  0.00     0.189 C 
BRANCH  29  30
HETATM   30  O3  UNL     1      11.380   8.964  22.879  1.00  0.00    -0.399 OA
ATOM     31  H3  UNL     1      11.501   9.873  23.126  1.00  0.00     0.209 HD
ENDBRANCH  29  30
ENDBRANCH  28  29
ENDBRANCH  21  24
ENDBRANCH   8  21
TORSDOF 11
ENDMDL
