MODEL 1
REMARK VINA RESULT: -7.060167339      0.000      0.000
REMARK  5 active torsions:
REMARK  status: ('A' for Active; 'I' for Inactive)
REMARK    1  A    between atoms: C6_11  and  C7_12 
REMARK       I    between atoms: C7_12  and  N3_14 
REMARK    2  A    between atoms: C11_20  and  O3_21 
REMARK    3  A    between atoms: C12_23  and  C13_24 
REMARK    4  A    between atoms: C13_24  and  C14_25 
REMARK    5  A    between atoms: C14_25  and  C15_26 
ROOT
HETATM    1  C7  UNL     1       6.735   9.303  21.336  1.00  0.00     0.238 C 
HETATM    2  O1  UNL     1       5.633   8.777  20.931  1.00  0.00    -0.272 OA
HETATM    3  N3  UNL     1       7.080   9.181  22.678  1.00  0.00    -0.277 N 
HETATM    4  C8  UNL     1       8.323   9.730  23.130  1.00  0.00     0.251 C 
HETATM    5  O2  UNL     1       8.887  10.721  22.629  1.00  0.00    -0.268 OA
HETATM    6  C9  UNL     1       9.013   9.099  24.271  1.00  0.00     0.092 C 
HETATM    7  C10 UNL     1       8.469   8.055  24.838  1.00  0.00     0.024 C 
HETATM    8 BR1  UNL     1       9.353   7.234  26.310  1.00  0.00    -0.053 Br
HETATM    9  C11 UNL     1       7.177   7.477  24.391  1.00  0.00     0.181 C 
HETATM   10  C12 UNL     1       6.299   8.519  23.696  1.00  0.00     0.130 C 
ENDROOT
BRANCH   1  11
HETATM   11  C6  UNL     1       7.468   9.978  20.249  1.00  0.00     0.146 C 
HETATM   12  C2  UNL     1       7.752   8.914  19.220  1.00  0.00     0.000 C 
HETATM   13  C1  UNL     1       8.484   7.676  19.707  1.00  0.00     0.064 C 
HETATM   14  N1  UNL     1       7.420   8.993  18.001  1.00  0.00    -0.340 N 
HETATM   15  C3  UNL     1       6.739  10.104  17.463  1.00  0.00     0.172 C 
ATOM     16  H1  UNL     1       7.654   8.218  17.380  1.00  0.00     0.167 HD
HETATM   17  S1  UNL     1       6.331  10.146  15.858  1.00  0.00    -0.041 SA
HETATM   18  N2  UNL     1       6.422  11.165  18.325  1.00  0.00    -0.362 N 
HETATM   19  C4  UNL     1       6.599  11.075  19.743  1.00  0.00     0.098 C 
ATOM     20  H2  UNL     1       6.052  12.029  17.928  1.00  0.00     0.162 HD
HETATM   21  C5  UNL     1       5.180  11.000  20.328  1.00  0.00     0.033 C 
ENDBRANCH   1  11
BRANCH  10  22
HETATM   22  C13 UNL     1       5.029   7.903  23.263  1.00  0.00     0.029 C 
BRANCH  22  23
HETATM   23  C14 UNL     1       3.854   8.598  23.977  1.00  0.00     0.013 C 
BRANCH  23  24
HETATM   24  C15 UNL     1       3.416   7.622  25.084  1.00  0.00     0.085 C 
HETATM   25 BR2  UNL     1       2.193   6.338  24.360  1.00  0.00    -0.097 Br
ENDBRANCH  23  24
ENDBRANCH  22  23
ENDBRANCH  10  22
BRANCH   9  26
HETATM   26  O3  UNL     1       7.458   6.403  23.569  1.00  0.00    -0.388 OA
ATOM     27  H3  UNL     1       6.898   6.470  22.804  1.00  0.00     0.210 HD
ENDBRANCH   9  26
TORSDOF 5
ENDMDL
MODEL 2
REMARK VINA RESULT: -6.737059239      5.703      8.025
REMARK  5 active torsions:
REMARK  status: ('A' for Active; 'I' for Inactive)
REMARK    1  A    between atoms: C6_11  and  C7_12 
REMARK       I    between atoms: C7_12  and  N3_14 
REMARK    2  A    between atoms: C11_20  and  O3_21 
REMARK    3  A    between atoms: C12_23  and  C13_24 
REMARK    4  A    between atoms: C13_24  and  C14_25 
REMARK    5  A    between atoms: C14_25  and  C15_26 
ROOT
HETATM    1  C7  UNL     1       6.737   4.900  19.248  1.00  0.00     0.238 C 
HETATM    2  O1  UNL     1       7.369   4.169  20.097  1.00  0.00    -0.272 OA
HETATM    3  N3  UNL     1       6.961   4.693  17.892  1.00  0.00    -0.277 N 
HETATM    4  C8  UNL     1       6.233   5.476  16.939  1.00  0.00     0.251 C 
HETATM    5  O2  UNL     1       5.823   6.636  17.135  1.00  0.00    -0.268 OA
HETATM    6  C9  UNL     1       5.930   4.896  15.616  1.00  0.00     0.092 C 
HETATM    7  C10 UNL     1       6.335   3.683  15.351  1.00  0.00     0.024 C 
HETATM    8 BR1  UNL     1       5.947   2.927  13.648  1.00  0.00    -0.053 Br
HETATM    9  C11 UNL     1       7.098   2.858  16.321  1.00  0.00     0.181 C 
HETATM   10  C12 UNL     1       7.868   3.725  17.321  1.00  0.00     0.130 C 
ENDROOT
BRANCH   1  11
HETATM   11  C6  UNL     1       5.847   5.877  19.902  1.00  0.00     0.146 C 
HETATM   12  C2  UNL     1       5.244   5.161  21.083  1.00  0.00     0.000 C 
HETATM   13  C1  UNL     1       4.526   3.854  20.792  1.00  0.00     0.064 C 
HETATM   14  N1  UNL     1       5.303   5.578  22.277  1.00  0.00    -0.340 N 
HETATM   15  C3  UNL     1       5.947   6.778  22.638  1.00  0.00     0.172 C 
ATOM     16  H1  UNL     1       4.866   5.020  23.011  1.00  0.00     0.167 HD
HETATM   17  S1  UNL     1       5.991   7.269  24.219  1.00  0.00    -0.041 SA
HETATM   18  N2  UNL     1       6.546   7.538  21.622  1.00  0.00    -0.362 N 
HETATM   19  C4  UNL     1       6.680   7.050  20.282  1.00  0.00     0.098 C 
ATOM     20  H2  UNL     1       6.897   8.470  21.844  1.00  0.00     0.162 HD
HETATM   21  C5  UNL     1       8.180   6.774  20.097  1.00  0.00     0.033 C 
ENDBRANCH   1  11
BRANCH  10  22
HETATM   22  C13 UNL     1       8.607   2.868  18.269  1.00  0.00     0.029 C 
BRANCH  22  23
HETATM   23  C14 UNL     1       9.818   2.240  17.553  1.00  0.00     0.013 C 
BRANCH  23  24
HETATM   24  C15 UNL     1       9.776   0.745  17.917  1.00  0.00     0.085 C 
HETATM   25 BR2  UNL     1       8.258   0.398  19.033  1.00  0.00    -0.097 Br
ENDBRANCH  23  24
ENDBRANCH  22  23
ENDBRANCH  10  22
BRANCH   9  26
HETATM   26  O3  UNL     1       6.206   2.011  16.948  1.00  0.00    -0.388 OA
ATOM     27  H3  UNL     1       6.710   1.367  17.434  1.00  0.00     0.210 HD
ENDBRANCH   9  26
TORSDOF 5
ENDMDL
MODEL 3
REMARK VINA RESULT: -6.723428441      2.144      2.380
REMARK  5 active torsions:
REMARK  status: ('A' for Active; 'I' for Inactive)
REMARK    1  A    between atoms: C6_11  and  C7_12 
REMARK       I    between atoms: C7_12  and  N3_14 
REMARK    2  A    between atoms: C11_20  and  O3_21 
REMARK    3  A    between atoms: C12_23  and  C13_24 
REMARK    4  A    between atoms: C13_24  and  C14_25 
REMARK    5  A    between atoms: C14_25  and  C15_26 
ROOT
HETATM    1  C7  UNL     1       6.550   7.607  20.779  1.00  0.00     0.238 C 
HETATM    2  O1  UNL     1       5.306   7.306  20.904  1.00  0.00    -0.272 OA
HETATM    3  N3  UNL     1       7.208   8.191  21.857  1.00  0.00    -0.277 N 
HETATM    4  C8  UNL     1       8.602   8.494  21.740  1.00  0.00     0.251 C 
HETATM    5  O2  UNL     1       9.181   8.782  20.675  1.00  0.00    -0.268 OA
HETATM    6  C9  UNL     1       9.445   8.473  22.952  1.00  0.00     0.092 C 
HETATM    7  C10 UNL     1       8.894   8.178  24.098  1.00  0.00     0.024 C 
HETATM    8 BR1  UNL     1       9.973   8.148  25.665  1.00  0.00    -0.053 Br
HETATM    9  C11 UNL     1       7.448   7.870  24.242  1.00  0.00     0.181 C 
HETATM   10  C12 UNL     1       6.616   8.519  23.133  1.00  0.00     0.130 C 
ENDROOT
BRANCH   1  11
HETATM   11  C6  UNL     1       7.080   7.263  19.447  1.00  0.00     0.146 C 
HETATM   12  C2  UNL     1       6.659   5.840  19.189  1.00  0.00     0.000 C 
HETATM   13  C1  UNL     1       7.059   4.813  20.234  1.00  0.00     0.064 C 
HETATM   14  N1  UNL     1       6.003   5.461  18.174  1.00  0.00    -0.340 N 
HETATM   15  C3  UNL     1       5.591   6.344  17.156  1.00  0.00     0.172 C 
ATOM     16  H1  UNL     1       5.761   4.474  18.090  1.00  0.00     0.167 HD
HETATM   17  S1  UNL     1       4.734   5.787  15.853  1.00  0.00    -0.041 SA
HETATM   18  N2  UNL     1       5.928   7.701  17.281  1.00  0.00    -0.362 N 
HETATM   19  C4  UNL     1       6.505   8.236  18.478  1.00  0.00     0.098 C 
ATOM     20  H2  UNL     1       5.756   8.326  16.494  1.00  0.00     0.162 HD
HETATM   21  C5  UNL     1       5.402   9.097  19.113  1.00  0.00     0.033 C 
ENDBRANCH   1  11
BRANCH  10  22
HETATM   22  C13 UNL     1       5.189   8.183  23.309  1.00  0.00     0.029 C 
BRANCH  22  23
HETATM   23  C14 UNL     1       4.610   9.010  24.473  1.00  0.00     0.013 C 
BRANCH  23  24
HETATM   24  C15 UNL     1       3.464   8.158  25.047  1.00  0.00     0.085 C 
HETATM   25 BR2  UNL     1       3.215   6.601  23.960  1.00  0.00    -0.097 Br
ENDBRANCH  23  24
ENDBRANCH  22  23
ENDBRANCH  10  22
BRANCH   9  26
HETATM   26  O3  UNL     1       7.310   6.496  24.259  1.00  0.00    -0.388 OA
ATOM     27  H3  UNL     1       6.431   6.297  24.561  1.00  0.00     0.210 HD
ENDBRANCH   9  26
TORSDOF 5
ENDMDL
MODEL 4
REMARK VINA RESULT: -6.714803142      4.186      5.899
REMARK  5 active torsions:
REMARK  status: ('A' for Active; 'I' for Inactive)
REMARK    1  A    between atoms: C6_11  and  C7_12 
REMARK       I    between atoms: C7_12  and  N3_14 
REMARK    2  A    between atoms: C11_20  and  O3_21 
REMARK    3  A    between atoms: C12_23  and  C13_24 
REMARK    4  A    between atoms: C13_24  and  C14_25 
REMARK    5  A    between atoms: C14_25  and  C15_26 
ROOT
HETATM    1  C7  UNL     1       6.719   6.728  20.129  1.00  0.00     0.238 C 
HETATM    2  O1  UNL     1       7.847   6.906  19.537  1.00  0.00    -0.272 OA
HETATM    3  N3  UNL     1       6.111   5.480  20.046  1.00  0.00    -0.277 N 
HETATM    4  C8  UNL     1       4.874   5.262  20.734  1.00  0.00     0.251 C 
HETATM    5  O2  UNL     1       4.022   6.141  20.964  1.00  0.00    -0.268 OA
HETATM    6  C9  UNL     1       4.553   3.905  21.221  1.00  0.00     0.092 C 
HETATM    7  C10 UNL     1       5.408   2.941  21.009  1.00  0.00     0.024 C 
HETATM    8 BR1  UNL     1       5.003   1.190  21.633  1.00  0.00    -0.053 Br
HETATM    9  C11 UNL     1       6.691   3.145  20.289  1.00  0.00     0.181 C 
HETATM   10  C12 UNL     1       6.621   4.335  19.330  1.00  0.00     0.130 C 
ENDROOT
BRANCH   1  11
HETATM   11  C6  UNL     1       6.251   7.943  20.821  1.00  0.00     0.146 C 
HETATM   12  C2  UNL     1       7.466   8.533  21.489  1.00  0.00     0.000 C 
HETATM   13  C1  UNL     1       8.240   7.618  22.422  1.00  0.00     0.064 C 
HETATM   14  N1  UNL     1       7.869   9.720  21.316  1.00  0.00    -0.340 N 
HETATM   15  C3  UNL     1       7.213  10.637  20.470  1.00  0.00     0.172 C 
ATOM     16  H1  UNL     1       8.706  10.028  21.811  1.00  0.00     0.167 HD
HETATM   17  S1  UNL     1       7.792  12.178  20.286  1.00  0.00    -0.041 SA
HETATM   18  N2  UNL     1       6.062  10.205  19.794  1.00  0.00    -0.362 N 
HETATM   19  C4  UNL     1       5.648   8.834  19.792  1.00  0.00     0.098 C 
ATOM     20  H2  UNL     1       5.502  10.890  19.286  1.00  0.00     0.162 HD
HETATM   21  C5  UNL     1       5.915   8.328  18.366  1.00  0.00     0.033 C 
ENDBRANCH   1  11
BRANCH  10  22
HETATM   22  C13 UNL     1       7.916   4.506  18.641  1.00  0.00     0.029 C 
BRANCH  22  23
HETATM   23  C14 UNL     1       8.070   3.414  17.565  1.00  0.00     0.013 C 
BRANCH  23  24
HETATM   24  C15 UNL     1       9.372   2.674  17.918  1.00  0.00     0.085 C 
HETATM   25 BR2  UNL     1       8.990   0.826  18.250  1.00  0.00    -0.097 Br
ENDBRANCH  23  24
ENDBRANCH  22  23
ENDBRANCH  10  22
BRANCH   9  26
HETATM   26  O3  UNL     1       7.685   3.299  21.236  1.00  0.00    -0.388 OA
ATOM     27  H3  UNL     1       8.173   4.085  21.018  1.00  0.00     0.210 HD
ENDBRANCH   9  26
TORSDOF 5
ENDMDL
MODEL 5
REMARK VINA RESULT: -6.581657744      2.449      3.554
REMARK  5 active torsions:
REMARK  status: ('A' for Active; 'I' for Inactive)
REMARK    1  A    between atoms: C6_11  and  C7_12 
REMARK       I    between atoms: C7_12  and  N3_14 
REMARK    2  A    between atoms: C11_20  and  O3_21 
REMARK    3  A    between atoms: C12_23  and  C13_24 
REMARK    4  A    between atoms: C13_24  and  C14_25 
REMARK    5  A    between atoms: C14_25  and  C15_26 
ROOT
HETATM    1  C7  UNL     1       6.465   9.639  20.491  1.00  0.00     0.238 C 
HETATM    2  O1  UNL     1       7.093   9.439  19.387  1.00  0.00    -0.272 OA
HETATM    3  N3  UNL     1       6.725   8.799  21.569  1.00  0.00    -0.277 N 
HETATM    4  C8  UNL     1       6.058   9.037  22.814  1.00  0.00     0.251 C 
HETATM    5  O2  UNL     1       4.929   9.549  22.930  1.00  0.00    -0.268 OA
HETATM    6  C9  UNL     1       6.732   8.660  24.072  1.00  0.00     0.092 C 
HETATM    7  C10 UNL     1       7.919   8.118  24.014  1.00  0.00     0.024 C 
HETATM    8 BR1  UNL     1       8.795   7.630  25.631  1.00  0.00    -0.053 Br
HETATM    9  C11 UNL     1       8.622   7.854  22.733  1.00  0.00     0.181 C 
HETATM   10  C12 UNL     1       7.642   7.683  21.571  1.00  0.00     0.130 C 
ENDROOT
BRANCH   1  11
HETATM   11  C6  UNL     1       5.533  10.779  20.409  1.00  0.00     0.146 C 
HETATM   12  C2  UNL     1       6.304  11.897  19.756  1.00  0.00     0.000 C 
HETATM   13  C1  UNL     1       7.617  12.290  20.412  1.00  0.00     0.064 C 
HETATM   14  N1  UNL     1       5.929  12.510  18.714  1.00  0.00    -0.340 N 
HETATM   15  C3  UNL     1       4.727  12.211  18.042  1.00  0.00     0.172 C 
ATOM     16  H1  UNL     1       6.523  13.252  18.344  1.00  0.00     0.167 HD
HETATM   17  S1  UNL     1       4.292  13.050  16.681  1.00  0.00    -0.041 SA
HETATM   18  N2  UNL     1       3.917  11.188  18.558  1.00  0.00    -0.362 N 
HETATM   19  C4  UNL     1       4.354  10.331  19.618  1.00  0.00     0.098 C 
ATOM     20  H2  UNL     1       2.986  11.051  18.165  1.00  0.00     0.162 HD
HETATM   21  C5  UNL     1       4.588   8.960  18.964  1.00  0.00     0.033 C 
ENDBRANCH   1  11
BRANCH  10  22
HETATM   22  C13 UNL     1       8.381   7.428  20.318  1.00  0.00     0.029 C 
BRANCH  22  23
HETATM   23  C14 UNL     1       7.775   6.202  19.608  1.00  0.00     0.013 C 
BRANCH  23  24
HETATM   24  C15 UNL     1       7.109   5.375  20.721  1.00  0.00     0.085 C 
HETATM   25 BR2  UNL     1       7.303   3.508  20.336  1.00  0.00    -0.097 Br
ENDBRANCH  23  24
ENDBRANCH  22  23
ENDBRANCH  10  22
BRANCH   9  26
HETATM   26  O3  UNL     1       9.508   8.892  22.517  1.00  0.00    -0.388 OA
ATOM     27  H3  UNL     1       9.604   9.000  21.578  1.00  0.00     0.210 HD
ENDBRANCH   9  26
TORSDOF 5
ENDMDL
