MODEL 1
REMARK VINA RESULT: -8.275761283      0.000      0.000
REMARK  7 active torsions:
REMARK  status: ('A' for Active; 'I' for Inactive)
REMARK    1  A    between atoms: C2_2  and  O1_3 
REMARK    2  A    between atoms: C2_2  and  C3_5 
REMARK    3  A    between atoms: C3_5  and  C4_6 
REMARK    4  A    between atoms: C4_6  and  C5_7 
REMARK    5  A    between atoms: C5_7  and  C6_8 
REMARK    6  A    between atoms: C6_8  and  C7_10 
REMARK    7  A    between atoms: C8_11  and  C9_12 
REMARK       I    between atoms: C9_12  and  N1_14 
REMARK       I    between atoms: N3_21  and  C15_22 
ROOT
HETATM    1  C9  UNL     1       6.441   5.358  18.210  1.00  0.00     0.243 C 
HETATM    2  O2  UNL     1       6.733   5.727  17.022  1.00  0.00    -0.268 OA
HETATM    3  N1  UNL     1       6.380   6.307  19.216  1.00  0.00    -0.347 N 
HETATM    4  C10 UNL     1       6.701   7.669  18.801  1.00  0.00     0.128 C 
HETATM    5  C11 UNL     1       7.944   8.154  19.505  1.00  0.00     0.048 C 
HETATM    6  C12 UNL     1       8.108   7.655  20.890  1.00  0.00     0.240 C 
HETATM    7  N2  UNL     1       7.090   7.787  21.839  1.00  0.00    -0.054 N 
HETATM    8  C13 UNL     1       7.529   6.980  22.994  1.00  0.00     0.258 C 
HETATM    9  C14 UNL     1       8.788   7.470  23.625  1.00  0.00     0.153 C 
HETATM   10  N3  UNL     1       9.011   8.886  23.577  1.00  0.00    -0.352 N 
HETATM   11  C15 UNL     1      10.111   9.451  24.232  1.00  0.00     0.184 C 
HETATM   12  N4  UNL     1      10.799   8.757  25.058  1.00  0.00    -0.374 N 
ATOM     13  H41 UNL     1      11.601   9.168  25.535  1.00  0.00     0.158 HD
ATOM     14  H42 UNL     1      10.519   7.789  25.219  1.00  0.00     0.158 HD
HETATM   15  N5  UNL     1      10.498  10.792  24.008  1.00  0.00    -0.064 NA
HETATM   16  C16 UNL     1       8.123   9.745  22.848  1.00  0.00     0.164 C 
HETATM   17  C17 UNL     1       6.841   9.065  22.421  1.00  0.00     0.139 C 
HETATM   18  C18 UNL     1       6.028  10.016  21.613  1.00  0.00     0.048 C 
HETATM   19  C19 UNL     1       6.061   8.932  23.751  1.00  0.00     0.048 C 
HETATM   20  C20 UNL     1       5.845   7.150  21.435  1.00  0.00     0.258 C 
HETATM   21  C21 UNL     1       6.034   5.942  20.565  1.00  0.00     0.154 C 
ENDROOT
BRANCH   1  22
HETATM   22  C8  UNL     1       6.202   3.938  18.405  1.00  0.00     0.076 C 
HETATM   23  C7  UNL     1       7.198   3.084  18.514  1.00  0.00     0.033 C 
BRANCH  23  24
HETATM   24  C6  UNL     1       6.981   1.647  18.708  1.00  0.00     0.056 C 
HETATM   25 BR1  UNL     1       5.132   1.120  18.941  1.00  0.00    -0.042 Br
BRANCH  24  26
HETATM   26  C5  UNL     1       7.997   0.792  18.698  1.00  0.00    -0.109 C 
BRANCH  26  27
HETATM   27  C4  UNL     1       9.028  -0.055  18.681  1.00  0.00     0.059 C 
BRANCH  27  28
HETATM   28  C3  UNL     1      10.082  -0.181  17.906  1.00  0.00     0.040 C 
BRANCH  28  29
HETATM   29  C2  UNL     1      10.639  -1.318  17.295  1.00  0.00     0.040 C 
HETATM   30  C1  UNL     1      10.058  -2.338  16.421  1.00  0.00     0.076 C 
BRANCH  29  31
HETATM   31  O1  UNL     1      11.927  -1.527  17.542  1.00  0.00    -0.365 OA
ATOM     32  H1  UNL     1      12.213  -1.130  18.356  1.00  0.00     0.217 HD
ENDBRANCH  29  31
ENDBRANCH  28  29
ENDBRANCH  27  28
ENDBRANCH  26  27
ENDBRANCH  24  26
ENDBRANCH  23  24
ENDBRANCH   1  22
TORSDOF 7
ENDMDL
MODEL 2
REMARK VINA RESULT: -8.131703551      1.090      1.335
REMARK  7 active torsions:
REMARK  status: ('A' for Active; 'I' for Inactive)
REMARK    1  A    between atoms: C2_2  and  O1_3 
REMARK    2  A    between atoms: C2_2  and  C3_5 
REMARK    3  A    between atoms: C3_5  and  C4_6 
REMARK    4  A    between atoms: C4_6  and  C5_7 
REMARK    5  A    between atoms: C5_7  and  C6_8 
REMARK    6  A    between atoms: C6_8  and  C7_10 
REMARK    7  A    between atoms: C8_11  and  C9_12 
REMARK       I    between atoms: C9_12  and  N1_14 
REMARK       I    between atoms: N3_21  and  C15_22 
ROOT
HETATM    1  C9  UNL     1       6.029   5.771  17.870  1.00  0.00     0.243 C 
HETATM    2  O2  UNL     1       6.341   6.194  16.705  1.00  0.00    -0.268 OA
HETATM    3  N1  UNL     1       6.040   6.658  18.935  1.00  0.00    -0.347 N 
HETATM    4  C10 UNL     1       6.452   8.017  18.603  1.00  0.00     0.128 C 
HETATM    5  C11 UNL     1       7.730   8.369  19.324  1.00  0.00     0.048 C 
HETATM    6  C12 UNL     1       7.865   7.774  20.673  1.00  0.00     0.240 C 
HETATM    7  N2  UNL     1       6.863   7.916  21.638  1.00  0.00    -0.054 N 
HETATM    8  C13 UNL     1       7.251   7.010  22.737  1.00  0.00     0.258 C 
HETATM    9  C14 UNL     1       8.543   7.371  23.386  1.00  0.00     0.153 C 
HETATM   10  N3  UNL     1       8.864   8.768  23.424  1.00  0.00    -0.352 N 
HETATM   11  C15 UNL     1      10.004   9.213  24.103  1.00  0.00     0.184 C 
HETATM   12  N4  UNL     1      10.646   8.422  24.877  1.00  0.00    -0.374 N 
ATOM     13  H41 UNL     1      11.477   8.746  25.372  1.00  0.00     0.158 HD
ATOM     14  H42 UNL     1      10.300   7.468  24.981  1.00  0.00     0.158 HD
HETATM   15  N5  UNL     1      10.483  10.535  23.960  1.00  0.00    -0.064 NA
HETATM   16  C16 UNL     1       8.035   9.730  22.758  1.00  0.00     0.164 C 
HETATM   17  C17 UNL     1       6.707   9.169  22.301  1.00  0.00     0.139 C 
HETATM   18  C18 UNL     1       5.959  10.223  21.562  1.00  0.00     0.048 C 
HETATM   19  C19 UNL     1       5.926   9.007  23.627  1.00  0.00     0.048 C 
HETATM   20  C20 UNL     1       5.575   7.394  21.207  1.00  0.00     0.258 C 
HETATM   21  C21 UNL     1       5.675   6.233  20.261  1.00  0.00     0.154 C 
ENDROOT
BRANCH   1  22
HETATM   22  C8  UNL     1       5.693   4.362  17.978  1.00  0.00     0.076 C 
HETATM   23  C7  UNL     1       6.295   3.455  17.240  1.00  0.00     0.033 C 
BRANCH  23  24
HETATM   24  C6  UNL     1       5.970   2.028  17.329  1.00  0.00     0.056 C 
HETATM   25 BR1  UNL     1       4.431   1.472  16.294  1.00  0.00    -0.042 Br
BRANCH  24  26
HETATM   26  C5  UNL     1       6.709   1.199  18.057  1.00  0.00    -0.109 C 
BRANCH  26  27
HETATM   27  C4  UNL     1       7.460   0.380  18.796  1.00  0.00     0.059 C 
BRANCH  27  28
HETATM   28  C3  UNL     1       8.723   0.017  18.745  1.00  0.00     0.040 C 
BRANCH  28  29
HETATM   29  C2  UNL     1       9.800   0.553  18.018  1.00  0.00     0.040 C 
HETATM   30  C1  UNL     1      10.115   1.921  17.608  1.00  0.00     0.076 C 
BRANCH  29  31
HETATM   31  O1  UNL     1      10.712  -0.326  17.620  1.00  0.00    -0.365 OA
ATOM     32  H1  UNL     1      10.347  -1.013  17.075  1.00  0.00     0.217 HD
ENDBRANCH  29  31
ENDBRANCH  28  29
ENDBRANCH  27  28
ENDBRANCH  26  27
ENDBRANCH  24  26
ENDBRANCH  23  24
ENDBRANCH   1  22
TORSDOF 7
ENDMDL
MODEL 3
REMARK VINA RESULT: -7.947565119      2.073      2.825
REMARK  7 active torsions:
REMARK  status: ('A' for Active; 'I' for Inactive)
REMARK    1  A    between atoms: C2_2  and  O1_3 
REMARK    2  A    between atoms: C2_2  and  C3_5 
REMARK    3  A    between atoms: C3_5  and  C4_6 
REMARK    4  A    between atoms: C4_6  and  C5_7 
REMARK    5  A    between atoms: C5_7  and  C6_8 
REMARK    6  A    between atoms: C6_8  and  C7_10 
REMARK    7  A    between atoms: C8_11  and  C9_12 
REMARK       I    between atoms: C9_12  and  N1_14 
REMARK       I    between atoms: N3_21  and  C15_22 
ROOT
HETATM    1  C9  UNL     1       5.205   3.800  19.546  1.00  0.00     0.243 C 
HETATM    2  O2  UNL     1       3.942   3.622  19.464  1.00  0.00    -0.268 OA
HETATM    3  N1  UNL     1       5.692   4.809  20.360  1.00  0.00    -0.347 N 
HETATM    4  C10 UNL     1       4.672   5.608  21.032  1.00  0.00     0.128 C 
HETATM    5  C11 UNL     1       4.734   7.041  20.561  1.00  0.00     0.048 C 
HETATM    6  C12 UNL     1       6.095   7.534  20.252  1.00  0.00     0.240 C 
HETATM    7  N2  UNL     1       7.141   7.420  21.173  1.00  0.00    -0.054 N 
HETATM    8  C13 UNL     1       8.357   7.799  20.429  1.00  0.00     0.258 C 
HETATM    9  C14 UNL     1       8.349   9.209  19.943  1.00  0.00     0.153 C 
HETATM   10  N3  UNL     1       7.651  10.156  20.762  1.00  0.00    -0.352 N 
HETATM   11  C15 UNL     1       7.676  11.519  20.444  1.00  0.00     0.184 C 
HETATM   12  N4  UNL     1       8.491  11.963  19.564  1.00  0.00    -0.374 N 
ATOM     13  H41 UNL     1       8.510  12.956  19.332  1.00  0.00     0.158 HD
ATOM     14  H42 UNL     1       9.115  11.296  19.109  1.00  0.00     0.158 HD
HETATM   15  N5  UNL     1       6.811  12.442  21.074  1.00  0.00    -0.064 NA
HETATM   16  C16 UNL     1       6.904   9.726  21.909  1.00  0.00     0.164 C 
HETATM   17  C17 UNL     1       7.175   8.291  22.302  1.00  0.00     0.139 C 
HETATM   18  C18 UNL     1       6.301   7.924  23.450  1.00  0.00     0.048 C 
HETATM   19  C19 UNL     1       8.595   8.361  22.911  1.00  0.00     0.048 C 
HETATM   20  C20 UNL     1       7.403   6.044  21.571  1.00  0.00     0.258 C 
HETATM   21  C21 UNL     1       7.107   5.034  20.502  1.00  0.00     0.154 C 
ENDROOT
BRANCH   1  22
HETATM   22  C8  UNL     1       6.037   2.911  18.753  1.00  0.00     0.076 C 
HETATM   23  C7  UNL     1       5.716   1.647  18.578  1.00  0.00     0.033 C 
BRANCH  23  24
HETATM   24  C6  UNL     1       6.541   0.731  17.785  1.00  0.00     0.056 C 
HETATM   25 BR1  UNL     1       5.720   0.095  16.150  1.00  0.00    -0.042 Br
BRANCH  24  26
HETATM   26  C5  UNL     1       7.766   0.397  18.174  1.00  0.00    -0.109 C 
BRANCH  26  27
HETATM   27  C4  UNL     1       8.996   0.074  18.579  1.00  0.00     0.059 C 
BRANCH  27  28
HETATM   28  C3  UNL     1      10.136  -0.113  17.950  1.00  0.00     0.040 C 
BRANCH  28  29
HETATM   29  C2  UNL     1      10.666  -1.262  17.339  1.00  0.00     0.040 C 
HETATM   30  C1  UNL     1      10.063  -2.266  16.461  1.00  0.00     0.076 C 
BRANCH  29  31
HETATM   31  O1  UNL     1      11.947  -1.502  17.589  1.00  0.00    -0.365 OA
ATOM     32  H1  UNL     1      12.350  -0.827  18.123  1.00  0.00     0.217 HD
ENDBRANCH  29  31
ENDBRANCH  28  29
ENDBRANCH  27  28
ENDBRANCH  26  27
ENDBRANCH  24  26
ENDBRANCH  23  24
ENDBRANCH   1  22
TORSDOF 7
ENDMDL
MODEL 4
REMARK VINA RESULT: -7.904518136      1.416      1.619
REMARK  7 active torsions:
REMARK  status: ('A' for Active; 'I' for Inactive)
REMARK    1  A    between atoms: C2_2  and  O1_3 
REMARK    2  A    between atoms: C2_2  and  C3_5 
REMARK    3  A    between atoms: C3_5  and  C4_6 
REMARK    4  A    between atoms: C4_6  and  C5_7 
REMARK    5  A    between atoms: C5_7  and  C6_8 
REMARK    6  A    between atoms: C6_8  and  C7_10 
REMARK    7  A    between atoms: C8_11  and  C9_12 
REMARK       I    between atoms: C9_12  and  N1_14 
REMARK       I    between atoms: N3_21  and  C15_22 
ROOT
HETATM    1  C9  UNL     1       6.480   4.604  17.206  1.00  0.00     0.243 C 
HETATM    2  O2  UNL     1       6.442   5.052  16.010  1.00  0.00    -0.268 OA
HETATM    3  N1  UNL     1       6.137   5.444  18.253  1.00  0.00    -0.347 N 
HETATM    4  C10 UNL     1       5.790   6.807  17.863  1.00  0.00     0.128 C 
HETATM    5  C11 UNL     1       6.780   7.787  18.445  1.00  0.00     0.048 C 
HETATM    6  C12 UNL     1       7.305   7.421  19.780  1.00  0.00     0.240 C 
HETATM    7  N2  UNL     1       6.450   7.110  20.842  1.00  0.00    -0.054 N 
HETATM    8  C13 UNL     1       7.326   6.583  21.905  1.00  0.00     0.258 C 
HETATM    9  C14 UNL     1       8.318   7.573  22.413  1.00  0.00     0.153 C 
HETATM   10  N3  UNL     1       7.905   8.946  22.401  1.00  0.00    -0.352 N 
HETATM   11  C15 UNL     1       8.724   9.937  22.953  1.00  0.00     0.184 C 
HETATM   12  N4  UNL     1       9.737   9.614  23.666  1.00  0.00    -0.374 N 
ATOM     13  H41 UNL     1      10.335  10.336  24.068  1.00  0.00     0.158 HD
ATOM     14  H42 UNL     1       9.921   8.622  23.816  1.00  0.00     0.158 HD
HETATM   15  N5  UNL     1       8.469  11.311  22.744  1.00  0.00    -0.064 NA
HETATM   16  C16 UNL     1       6.654   9.331  21.812  1.00  0.00     0.164 C 
HETATM   17  C17 UNL     1       5.747   8.161  21.502  1.00  0.00     0.139 C 
HETATM   18  C18 UNL     1       4.516   8.661  20.830  1.00  0.00     0.048 C 
HETATM   19  C19 UNL     1       5.265   7.717  22.903  1.00  0.00     0.048 C 
HETATM   20  C20 UNL     1       5.560   5.995  20.552  1.00  0.00     0.258 C 
HETATM   21  C21 UNL     1       6.145   4.978  19.615  1.00  0.00     0.154 C 
ENDROOT
BRANCH   1  22
HETATM   22  C8  UNL     1       6.898   3.222  17.366  1.00  0.00     0.076 C 
HETATM   23  C7  UNL     1       6.341   2.253  16.671  1.00  0.00     0.033 C 
BRANCH  23  24
HETATM   24  C6  UNL     1       6.744   0.851  16.817  1.00  0.00     0.056 C 
HETATM   25 BR1  UNL     1       5.666  -0.419  15.829  1.00  0.00    -0.042 Br
BRANCH  24  26
HETATM   26  C5  UNL     1       7.789   0.510  17.563  1.00  0.00    -0.109 C 
BRANCH  26  27
HETATM   27  C4  UNL     1       8.848   0.165  18.297  1.00  0.00     0.059 C 
BRANCH  27  28
HETATM   28  C3  UNL     1      10.091  -0.145  18.002  1.00  0.00     0.040 C 
BRANCH  28  29
HETATM   29  C2  UNL     1      10.625  -1.273  17.354  1.00  0.00     0.040 C 
HETATM   30  C1  UNL     1      10.028  -2.243  16.436  1.00  0.00     0.076 C 
BRANCH  29  31
HETATM   31  O1  UNL     1      11.904  -1.524  17.606  1.00  0.00    -0.365 OA
ATOM     32  H1  UNL     1      12.111  -2.450  17.561  1.00  0.00     0.217 HD
ENDBRANCH  29  31
ENDBRANCH  28  29
ENDBRANCH  27  28
ENDBRANCH  26  27
ENDBRANCH  24  26
ENDBRANCH  23  24
ENDBRANCH   1  22
TORSDOF 7
ENDMDL
MODEL 5
REMARK VINA RESULT: -7.769259337      2.359      3.249
REMARK  7 active torsions:
REMARK  status: ('A' for Active; 'I' for Inactive)
REMARK    1  A    between atoms: C2_2  and  O1_3 
REMARK    2  A    between atoms: C2_2  and  C3_5 
REMARK    3  A    between atoms: C3_5  and  C4_6 
REMARK    4  A    between atoms: C4_6  and  C5_7 
REMARK    5  A    between atoms: C5_7  and  C6_8 
REMARK    6  A    between atoms: C6_8  and  C7_10 
REMARK    7  A    between atoms: C8_11  and  C9_12 
REMARK       I    between atoms: C9_12  and  N1_14 
REMARK       I    between atoms: N3_21  and  C15_22 
ROOT
HETATM    1  C9  UNL     1       4.576   4.274  20.457  1.00  0.00     0.243 C 
HETATM    2  O2  UNL     1       3.300   4.216  20.464  1.00  0.00    -0.268 OA
HETATM    3  N1  UNL     1       5.209   5.303  21.134  1.00  0.00    -0.347 N 
HETATM    4  C10 UNL     1       4.316   6.262  21.776  1.00  0.00     0.128 C 
HETATM    5  C11 UNL     1       4.481   7.629  21.158  1.00  0.00     0.048 C 
HETATM    6  C12 UNL     1       5.859   7.951  20.723  1.00  0.00     0.240 C 
HETATM    7  N2  UNL     1       6.948   7.821  21.591  1.00  0.00    -0.054 N 
HETATM    8  C13 UNL     1       8.143   8.003  20.745  1.00  0.00     0.258 C 
HETATM    9  C14 UNL     1       8.236   9.352  20.118  1.00  0.00     0.153 C 
HETATM   10  N3  UNL     1       7.686  10.440  20.873  1.00  0.00    -0.352 N 
HETATM   11  C15 UNL     1       7.818  11.756  20.416  1.00  0.00     0.184 C 
HETATM   12  N4  UNL     1       8.612  12.029  19.450  1.00  0.00    -0.374 N 
ATOM     13  H41 UNL     1       8.708  12.988  19.117  1.00  0.00     0.158 HD
ATOM     14  H42 UNL     1       9.139  11.262  19.032  1.00  0.00     0.158 HD
HETATM   15  N5  UNL     1       7.087  12.818  20.996  1.00  0.00    -0.064 NA
HETATM   16  C16 UNL     1       6.979  10.200  22.098  1.00  0.00     0.164 C 
HETATM   17  C17 UNL     1       7.139   8.790  22.621  1.00  0.00     0.139 C 
HETATM   18  C18 UNL     1       6.311   8.626  23.848  1.00  0.00     0.048 C 
HETATM   19  C19 UNL     1       8.596   8.776  23.138  1.00  0.00     0.048 C 
HETATM   20  C20 UNL     1       7.105   6.472  22.114  1.00  0.00     0.258 C 
HETATM   21  C21 UNL     1       6.645   5.397  21.172  1.00  0.00     0.154 C 
ENDROOT
BRANCH   1  22
HETATM   22  C8  UNL     1       5.267   3.234  19.713  1.00  0.00     0.076 C 
HETATM   23  C7  UNL     1       4.627   2.178  19.257  1.00  0.00     0.033 C 
BRANCH  23  24
HETATM   24  C6  UNL     1       5.302   1.114  18.507  1.00  0.00     0.056 C 
HETATM   25 BR1  UNL     1       4.274   0.358  17.051  1.00  0.00    -0.042 Br
BRANCH  24  26
HETATM   26  C5  UNL     1       6.537   0.734  18.815  1.00  0.00    -0.109 C 
BRANCH  26  27
HETATM   27  C4  UNL     1       7.782   0.370  19.128  1.00  0.00     0.059 C 
BRANCH  27  28
HETATM   28  C3  UNL     1       8.943   0.508  18.528  1.00  0.00     0.040 C 
BRANCH  28  29
HETATM   29  C2  UNL     1       9.553   1.643  17.966  1.00  0.00     0.040 C 
HETATM   30  C1  UNL     1       9.044   2.986  17.685  1.00  0.00     0.076 C 
BRANCH  29  31
HETATM   31  O1  UNL     1      10.826   1.495  17.619  1.00  0.00    -0.365 OA
ATOM     32  H1  UNL     1      10.977   0.710  17.105  1.00  0.00     0.217 HD
ENDBRANCH  29  31
ENDBRANCH  28  29
ENDBRANCH  27  28
ENDBRANCH  26  27
ENDBRANCH  24  26
ENDBRANCH  23  24
ENDBRANCH   1  22
TORSDOF 7
ENDMDL
