MODEL 1
REMARK VINA RESULT: -7.920303796      0.000      0.000
REMARK  6 active torsions:
REMARK  status: ('A' for Active; 'I' for Inactive)
REMARK    1  A    between atoms: O1_2  and  C2_3 
REMARK    2  A    between atoms: C2_3  and  C3_4 
REMARK    3  A    between atoms: C3_4  and  C4_5 
REMARK    4  A    between atoms: C4_5  and  N1_6 
REMARK    5  A    between atoms: C11_15  and  C12_16 
REMARK       I    between atoms: C12_16  and  N3_18 
REMARK    6  A    between atoms: C21_27  and  O3_28 
ROOT
HETATM    1  N1  UNL     1       8.299   9.037  23.236  1.00  0.00    -0.067 N 
HETATM    2  C5  UNL     1       7.596   8.116  24.084  1.00  0.00     0.243 C 
HETATM    3  C6  UNL     1       6.317   7.540  23.560  1.00  0.00     0.085 C 
HETATM    4  C7  UNL     1       6.539   6.860  22.226  1.00  0.00     0.019 A 
HETATM    5  N2  UNL     1       6.282   5.555  22.134  1.00  0.00    -0.360 N 
ATOM      6  H2  UNL     1       5.925   4.981  22.898  1.00  0.00     0.165 HD
HETATM    7  C8  UNL     1       6.557   5.097  20.904  1.00  0.00     0.039 A 
HETATM    8  C9  UNL     1       7.023   6.169  20.144  1.00  0.00    -0.024 A 
HETATM    9  C10 UNL     1       7.002   7.249  20.976  1.00  0.00    -0.009 A 
HETATM   10  C11 UNL     1       7.413   8.575  20.525  1.00  0.00     0.073 C 
HETATM   11  C15 UNL     1       6.784   9.672  21.367  1.00  0.00     0.052 C 
HETATM   12  C16 UNL     1       7.514  10.021  22.609  1.00  0.00     0.239 C 
HETATM   13  C17 UNL     1       8.912   8.668  20.854  1.00  0.00     0.052 C 
HETATM   14  C18 UNL     1       9.201   8.423  22.300  1.00  0.00     0.239 C 
HETATM   15  C19 UNL     1       7.418   5.906  18.727  1.00  0.00     0.044 C 
HETATM   16  C20 UNL     1       8.065   4.531  18.660  1.00  0.00     0.044 C 
HETATM   17  C21 UNL     1       7.184   3.443  19.162  1.00  0.00     0.083 A 
HETATM   18  C22 UNL     1       5.686   3.570  19.086  1.00  0.00     0.070 A 
HETATM   19  C23 UNL     1       6.416   3.743  20.364  1.00  0.00     0.094 A 
HETATM   20 BR1  UNL     1       6.213   2.291  21.624  1.00  0.00    -0.075 Br
ENDROOT
BRANCH   1  21
HETATM   21  C4  UNL     1       9.218   9.733  24.204  1.00  0.00     0.239 C 
BRANCH  21  22
HETATM   22  C3  UNL     1      10.516   9.048  24.285  1.00  0.00     0.054 C 
BRANCH  22  23
HETATM   23  C2  UNL     1      11.028   8.900  25.677  1.00  0.00     0.168 C 
BRANCH  23  24
HETATM   24  O1  UNL     1      10.537   8.081  26.577  1.00  0.00    -0.396 OA
HETATM   25  C1  UNL     1      11.217   7.164  27.237  1.00  0.00     0.201 C 
ENDBRANCH  23  24
ENDBRANCH  22  23
ENDBRANCH  21  22
ENDBRANCH   1  21
BRANCH  10  26
HETATM   26  C12 UNL     1       7.199   8.950  19.143  1.00  0.00     0.232 C 
HETATM   27  O2  UNL     1       8.264   9.233  18.468  1.00  0.00    -0.272 OA
HETATM   28  N3  UNL     1       6.000   9.050  18.437  1.00  0.00    -0.360 N 
HETATM   29  C13 UNL     1       4.681   8.809  18.972  1.00  0.00     0.152 C 
HETATM   30  C14 UNL     1       6.015   9.430  17.018  1.00  0.00     0.152 C 
ENDBRANCH  10  26
BRANCH  17  31
HETATM   31  O3  UNL     1       7.751   2.168  19.039  1.00  0.00    -0.388 OA
ATOM     32  H3  UNL     1       7.106   1.473  18.982  1.00  0.00     0.210 HD
ENDBRANCH  17  31
TORSDOF 6
ENDMDL
MODEL 2
REMARK VINA RESULT: -6.746851872      3.219      7.029
REMARK  6 active torsions:
REMARK  status: ('A' for Active; 'I' for Inactive)
REMARK    1  A    between atoms: O1_2  and  C2_3 
REMARK    2  A    between atoms: C2_3  and  C3_4 
REMARK    3  A    between atoms: C3_4  and  C4_5 
REMARK    4  A    between atoms: C4_5  and  N1_6 
REMARK    5  A    between atoms: C11_15  and  C12_16 
REMARK       I    between atoms: C12_16  and  N3_18 
REMARK    6  A    between atoms: C21_27  and  O3_28 
ROOT
HETATM    1  N1  UNL     1       6.989   3.755  19.335  1.00  0.00    -0.067 N 
HETATM    2  C5  UNL     1       7.443   4.939  18.663  1.00  0.00     0.243 C 
HETATM    3  C6  UNL     1       6.543   6.136  18.697  1.00  0.00     0.085 C 
HETATM    4  C7  UNL     1       6.208   6.517  20.123  1.00  0.00     0.019 A 
HETATM    5  N2  UNL     1       6.574   7.723  20.556  1.00  0.00    -0.360 N 
ATOM      6  H2  UNL     1       7.050   8.422  19.984  1.00  0.00     0.165 HD
HETATM    7  C8  UNL     1       6.236   7.896  21.841  1.00  0.00     0.039 A 
HETATM    8  C9  UNL     1       5.608   6.730  22.278  1.00  0.00    -0.024 A 
HETATM    9  C10 UNL     1       5.598   5.890  21.203  1.00  0.00    -0.009 A 
HETATM   10  C11 UNL     1       5.002   4.560  21.271  1.00  0.00     0.073 C 
HETATM   11  C15 UNL     1       4.585   4.062  19.898  1.00  0.00     0.052 C 
HETATM   12  C16 UNL     1       5.649   3.393  19.112  1.00  0.00     0.239 C 
HETATM   13  C17 UNL     1       6.152   3.622  21.673  1.00  0.00     0.052 C 
HETATM   14  C18 UNL     1       7.313   3.698  20.735  1.00  0.00     0.239 C 
HETATM   15  C19 UNL     1       5.151   6.668  23.699  1.00  0.00     0.044 C 
HETATM   16  C20 UNL     1       6.165   7.406  24.559  1.00  0.00     0.044 C 
HETATM   17  C21 UNL     1       6.370   8.819  24.142  1.00  0.00     0.083 A 
HETATM   18  C22 UNL     1       5.271   9.586  23.457  1.00  0.00     0.070 A 
HETATM   19  C23 UNL     1       6.436   9.061  22.706  1.00  0.00     0.094 A 
HETATM   20 BR1  UNL     1       7.707  10.398  22.130  1.00  0.00    -0.075 Br
ENDROOT
BRANCH   1  21
HETATM   21  C4  UNL     1       7.859   2.685  18.731  1.00  0.00     0.239 C 
BRANCH  21  22
HETATM   22  C3  UNL     1       9.156   3.233  18.313  1.00  0.00     0.054 C 
BRANCH  22  23
HETATM   23  C2  UNL     1      10.153   2.191  17.935  1.00  0.00     0.168 C 
BRANCH  23  24
HETATM   24  O1  UNL     1      10.158   0.957  18.380  1.00  0.00    -0.396 OA
HETATM   25  C1  UNL     1      10.056  -0.130  17.641  1.00  0.00     0.201 C 
ENDBRANCH  23  24
ENDBRANCH  22  23
ENDBRANCH  21  22
ENDBRANCH   1  21
BRANCH  10  26
HETATM   26  C12 UNL     1       3.870   4.336  22.147  1.00  0.00     0.232 C 
HETATM   27  O2  UNL     1       4.075   3.526  23.131  1.00  0.00    -0.272 OA
HETATM   28  N3  UNL     1       2.585   4.874  22.072  1.00  0.00    -0.360 N 
HETATM   29  C13 UNL     1       2.104   5.780  21.056  1.00  0.00     0.152 C 
HETATM   30  C14 UNL     1       1.585   4.525  23.090  1.00  0.00     0.152 C 
ENDBRANCH  10  26
BRANCH  17  31
HETATM   31  O3  UNL     1       7.253   9.521  24.974  1.00  0.00    -0.388 OA
ATOM     32  H3  UNL     1       6.869   9.769  25.805  1.00  0.00     0.210 HD
ENDBRANCH  17  31
TORSDOF 6
ENDMDL
MODEL 3
REMARK VINA RESULT: -6.688732831      3.169      4.451
REMARK  6 active torsions:
REMARK  status: ('A' for Active; 'I' for Inactive)
REMARK    1  A    between atoms: O1_2  and  C2_3 
REMARK    2  A    between atoms: C2_3  and  C3_4 
REMARK    3  A    between atoms: C3_4  and  C4_5 
REMARK    4  A    between atoms: C4_5  and  N1_6 
REMARK    5  A    between atoms: C11_15  and  C12_16 
REMARK       I    between atoms: C12_16  and  N3_18 
REMARK    6  A    between atoms: C21_27  and  O3_28 
ROOT
HETATM    1  N1  UNL     1       8.960   8.828  22.873  1.00  0.00    -0.067 N 
HETATM    2  C5  UNL     1       8.371  10.041  23.366  1.00  0.00     0.243 C 
HETATM    3  C6  UNL     1       7.118  10.516  22.698  1.00  0.00     0.085 C 
HETATM    4  C7  UNL     1       6.052   9.442  22.727  1.00  0.00     0.019 A 
HETATM    5  N2  UNL     1       4.911   9.704  23.365  1.00  0.00    -0.360 N 
ATOM      6  H2  UNL     1       4.694  10.590  23.821  1.00  0.00     0.165 HD
HETATM    7  C8  UNL     1       4.086   8.648  23.328  1.00  0.00     0.039 A 
HETATM    8  C9  UNL     1       4.727   7.631  22.622  1.00  0.00    -0.024 A 
HETATM    9  C10 UNL     1       5.939   8.140  22.256  1.00  0.00    -0.009 A 
HETATM   10  C11 UNL     1       6.898   7.362  21.479  1.00  0.00     0.073 C 
HETATM   11  C15 UNL     1       7.858   8.258  20.716  1.00  0.00     0.052 C 
HETATM   12  C16 UNL     1       9.049   8.708  21.475  1.00  0.00     0.239 C 
HETATM   13  C17 UNL     1       7.788   6.663  22.519  1.00  0.00     0.052 C 
HETATM   14  C18 UNL     1       8.439   7.625  23.462  1.00  0.00     0.239 C 
HETATM   15  C19 UNL     1       4.011   6.329  22.460  1.00  0.00     0.044 C 
HETATM   16  C20 UNL     1       3.228   6.053  23.734  1.00  0.00     0.044 C 
HETATM   17  C21 UNL     1       2.266   7.135  24.076  1.00  0.00     0.083 A 
HETATM   18  C22 UNL     1       1.664   7.998  23.000  1.00  0.00     0.070 A 
HETATM   19  C23 UNL     1       2.740   8.499  23.887  1.00  0.00     0.094 A 
HETATM   20 BR1  UNL     1       2.173   9.786  25.213  1.00  0.00    -0.075 Br
ENDROOT
BRANCH   1  21
HETATM   21  C4  UNL     1      10.362   8.904  23.416  1.00  0.00     0.239 C 
BRANCH  21  22
HETATM   22  C3  UNL     1      10.402   9.666  24.671  1.00  0.00     0.054 C 
BRANCH  22  23
HETATM   23  C2  UNL     1      11.042   8.931  25.799  1.00  0.00     0.168 C 
BRANCH  23  24
HETATM   24  O1  UNL     1      10.468   7.985  26.503  1.00  0.00    -0.396 OA
HETATM   25  C1  UNL     1      11.091   7.087  27.240  1.00  0.00     0.201 C 
ENDBRANCH  23  24
ENDBRANCH  22  23
ENDBRANCH  21  22
ENDBRANCH   1  21
BRANCH  10  26
HETATM   26  C12 UNL     1       6.410   6.384  20.529  1.00  0.00     0.232 C 
HETATM   27  O2  UNL     1       6.751   5.160  20.760  1.00  0.00    -0.272 OA
HETATM   28  N3  UNL     1       5.624   6.582  19.393  1.00  0.00    -0.360 N 
HETATM   29  C13 UNL     1       5.139   7.854  18.911  1.00  0.00     0.152 C 
HETATM   30  C14 UNL     1       5.221   5.433  18.572  1.00  0.00     0.152 C 
ENDBRANCH  10  26
BRANCH  17  31
HETATM   31  O3  UNL     1       1.495   6.853  25.212  1.00  0.00    -0.388 OA
ATOM     32  H3  UNL     1       0.615   7.207  25.166  1.00  0.00     0.210 HD
ENDBRANCH  17  31
TORSDOF 6
ENDMDL
MODEL 4
REMARK VINA RESULT: -6.641555200      2.162      2.527
REMARK  6 active torsions:
REMARK  status: ('A' for Active; 'I' for Inactive)
REMARK    1  A    between atoms: O1_2  and  C2_3 
REMARK    2  A    between atoms: C2_3  and  C3_4 
REMARK    3  A    between atoms: C3_4  and  C4_5 
REMARK    4  A    between atoms: C4_5  and  N1_6 
REMARK    5  A    between atoms: C11_15  and  C12_16 
REMARK       I    between atoms: C12_16  and  N3_18 
REMARK    6  A    between atoms: C21_27  and  O3_28 
ROOT
HETATM    1  N1  UNL     1       8.602   8.965  23.997  1.00  0.00    -0.067 N 
HETATM    2  C5  UNL     1       7.595   8.874  25.018  1.00  0.00     0.243 C 
HETATM    3  C6  UNL     1       6.182   9.165  24.616  1.00  0.00     0.085 C 
HETATM    4  C7  UNL     1       5.755   8.275  23.468  1.00  0.00     0.019 A 
HETATM    5  N2  UNL     1       4.731   7.445  23.662  1.00  0.00    -0.360 N 
ATOM      6  H2  UNL     1       4.196   7.379  24.528  1.00  0.00     0.165 HD
HETATM    7  C8  UNL     1       4.497   6.707  22.567  1.00  0.00     0.039 A 
HETATM    8  C9  UNL     1       5.426   7.077  21.596  1.00  0.00    -0.024 A 
HETATM    9  C10 UNL     1       6.193   8.049  22.169  1.00  0.00    -0.009 A 
HETATM   10  C11 UNL     1       7.279   8.700  21.443  1.00  0.00     0.073 C 
HETATM   11  C15 UNL     1       7.589  10.073  22.013  1.00  0.00     0.052 C 
HETATM   12  C16 UNL     1       8.530  10.091  23.158  1.00  0.00     0.239 C 
HETATM   13  C17 UNL     1       8.534   7.872  21.764  1.00  0.00     0.052 C 
HETATM   14  C18 UNL     1       8.792   7.763  23.233  1.00  0.00     0.239 C 
HETATM   15  C19 UNL     1       5.383   6.374  20.278  1.00  0.00     0.044 C 
HETATM   16  C20 UNL     1       5.014   4.920  20.525  1.00  0.00     0.044 C 
HETATM   17  C21 UNL     1       3.721   4.757  21.242  1.00  0.00     0.083 A 
HETATM   18  C22 UNL     1       2.636   5.793  21.118  1.00  0.00     0.070 A 
HETATM   19  C23 UNL     1       3.472   5.685  22.337  1.00  0.00     0.094 A 
HETATM   20 BR1  UNL     1       2.573   4.952  23.883  1.00  0.00    -0.075 Br
ENDROOT
BRANCH   1  21
HETATM   21  C4  UNL     1       9.870   9.073  24.801  1.00  0.00     0.239 C 
BRANCH  21  22
HETATM   22  C3  UNL     1       9.839   8.171  25.960  1.00  0.00     0.054 C 
BRANCH  22  23
HETATM   23  C2  UNL     1      11.189   7.854  26.509  1.00  0.00     0.168 C 
BRANCH  23  24
HETATM   24  O1  UNL     1      12.290   7.777  25.801  1.00  0.00    -0.396 OA
HETATM   25  C1  UNL     1      13.470   7.398  26.252  1.00  0.00     0.201 C 
ENDBRANCH  23  24
ENDBRANCH  22  23
ENDBRANCH  21  22
ENDBRANCH   1  21
BRANCH  10  26
HETATM   26  C12 UNL     1       7.169   8.869  20.009  1.00  0.00     0.232 C 
HETATM   27  O2  UNL     1       8.080   8.285  19.304  1.00  0.00    -0.272 OA
HETATM   28  N3  UNL     1       6.214   9.580  19.281  1.00  0.00    -0.360 N 
HETATM   29  C13 UNL     1       5.114  10.333  19.837  1.00  0.00     0.152 C 
HETATM   30  C14 UNL     1       6.279   9.603  17.814  1.00  0.00     0.152 C 
ENDBRANCH  10  26
BRANCH  17  31
HETATM   31  O3  UNL     1       3.345   3.417  21.411  1.00  0.00    -0.388 OA
ATOM     32  H3  UNL     1       2.423   3.307  21.610  1.00  0.00     0.210 HD
ENDBRANCH  17  31
TORSDOF 6
ENDMDL
MODEL 5
REMARK VINA RESULT: -6.578975868      3.264      3.897
REMARK  6 active torsions:
REMARK  status: ('A' for Active; 'I' for Inactive)
REMARK    1  A    between atoms: O1_2  and  C2_3 
REMARK    2  A    between atoms: C2_3  and  C3_4 
REMARK    3  A    between atoms: C3_4  and  C4_5 
REMARK    4  A    between atoms: C4_5  and  N1_6 
REMARK    5  A    between atoms: C11_15  and  C12_16 
REMARK       I    between atoms: C12_16  and  N3_18 
REMARK    6  A    between atoms: C21_27  and  O3_28 
ROOT
HETATM    1  N1  UNL     1       8.124   8.251  24.409  1.00  0.00    -0.067 N 
HETATM    2  C5  UNL     1       6.843   8.214  25.057  1.00  0.00     0.243 C 
HETATM    3  C6  UNL     1       5.850   9.269  24.676  1.00  0.00     0.085 C 
HETATM    4  C7  UNL     1       5.610   9.267  23.182  1.00  0.00     0.019 A 
HETATM    5  N2  UNL     1       4.376   9.017  22.743  1.00  0.00    -0.360 N 
ATOM      6  H2  UNL     1       3.572   8.846  23.346  1.00  0.00     0.165 HD
HETATM    7  C8  UNL     1       4.333   9.020  21.403  1.00  0.00     0.039 A 
HETATM    8  C9  UNL     1       5.619   9.288  20.936  1.00  0.00    -0.024 A 
HETATM    9  C10 UNL     1       6.393   9.440  22.048  1.00  0.00    -0.009 A 
HETATM   10  C11 UNL     1       7.817   9.749  21.959  1.00  0.00     0.073 C 
HETATM   11  C15 UNL     1       8.323  10.427  23.220  1.00  0.00     0.052 C 
HETATM   12  C16 UNL     1       8.732   9.514  24.315  1.00  0.00     0.239 C 
HETATM   13  C17 UNL     1       8.527   8.386  21.959  1.00  0.00     0.052 C 
HETATM   14  C18 UNL     1       8.180   7.555  23.153  1.00  0.00     0.239 C 
HETATM   15  C19 UNL     1       5.836   9.325  19.457  1.00  0.00     0.044 C 
HETATM   16  C20 UNL     1       4.954   8.264  18.819  1.00  0.00     0.044 C 
HETATM   17  C21 UNL     1       3.510   8.434  19.136  1.00  0.00     0.083 A 
HETATM   18  C22 UNL     1       2.944   9.796  19.437  1.00  0.00     0.070 A 
HETATM   19  C23 UNL     1       3.193   8.803  20.509  1.00  0.00     0.094 A 
HETATM   20 BR1  UNL     1       1.606   7.995  21.260  1.00  0.00    -0.075 Br
ENDROOT
BRANCH   1  21
HETATM   21  C4  UNL     1       8.972   7.401  25.318  1.00  0.00     0.239 C 
BRANCH  21  22
HETATM   22  C3  UNL     1       9.891   8.230  26.110  1.00  0.00     0.054 C 
BRANCH  22  23
HETATM   23  C2  UNL     1      11.165   7.541  26.464  1.00  0.00     0.168 C 
BRANCH  23  24
HETATM   24  O1  UNL     1      12.331   7.788  25.917  1.00  0.00    -0.396 OA
HETATM   25  C1  UNL     1      13.497   7.362  26.362  1.00  0.00     0.201 C 
ENDBRANCH  23  24
ENDBRANCH  22  23
ENDBRANCH  21  22
ENDBRANCH   1  21
BRANCH  10  26
HETATM   26  C12 UNL     1       8.300  10.543  20.848  1.00  0.00     0.232 C 
HETATM   27  O2  UNL     1       9.103   9.940  20.036  1.00  0.00    -0.272 OA
HETATM   28  N3  UNL     1       8.019  11.873  20.534  1.00  0.00    -0.360 N 
HETATM   29  C13 UNL     1       7.173  12.762  21.295  1.00  0.00     0.152 C 
HETATM   30  C14 UNL     1       8.606  12.482  19.333  1.00  0.00     0.152 C 
ENDBRANCH  10  26
BRANCH  17  31
HETATM   31  O3  UNL     1       2.687   7.498  18.494  1.00  0.00    -0.388 OA
ATOM     32  H3  UNL     1       2.427   7.763  17.621  1.00  0.00     0.210 HD
ENDBRANCH  17  31
TORSDOF 6
ENDMDL
