MODEL 1
REMARK VINA RESULT: -7.842358359      0.000      0.000
REMARK  10 active torsions:
REMARK  status: ('A' for Active; 'I' for Inactive)
REMARK    1  A    between atoms: C2_2  and  C4_4 
REMARK    2  A    between atoms: C4_4  and  N1_5 
REMARK    3  A    between atoms: C4_4  and  C22_28 
REMARK    4  A    between atoms: N1_5  and  C5_7 
REMARK    5  A    between atoms: C5_7  and  O1_8 
REMARK    6  A    between atoms: C5_7  and  C6_10 
REMARK    7  A    between atoms: C11_15  and  N2_16 
REMARK    8  A    between atoms: C22_28  and  O2_29 
REMARK    9  A    between atoms: C22_28  and  N3_31 
REMARK   10  A    between atoms: N3_31  and  O3_33 
ROOT
HETATM    1  C6  UNL     1       7.560   3.711  18.242  1.00  0.00     0.060 C 
HETATM    2  C7  UNL     1       9.097   3.565  18.534  1.00  0.00     0.025 C 
HETATM    3  C8  UNL     1       9.649   2.273  18.081  1.00  0.00    -0.013 C 
HETATM    4  C9  UNL     1       8.937   1.178  18.800  1.00  0.00     0.007 C 
HETATM    5  C10 UNL     1       7.801   1.729  19.546  1.00  0.00     0.042 C 
HETATM    6  C11 UNL     1       6.794   2.644  18.793  1.00  0.00     0.157 C 
HETATM    7  C17 UNL     1       6.209   1.779  17.660  1.00  0.00     0.096 C 
HETATM    8 BR1  UNL     1       4.545   2.518  16.954  1.00  0.00    -0.088 Br
HETATM    9  C18 UNL     1       7.052   1.424  16.516  1.00  0.00     0.023 C 
HETATM   10  C19 UNL     1       8.121   2.381  16.145  1.00  0.00    -0.012 C 
HETATM   11  C20 UNL     1       9.492   2.051  16.618  1.00  0.00     0.009 C 
HETATM   12  C21 UNL     1       7.661   3.682  16.676  1.00  0.00     0.025 C 
ENDROOT
BRANCH   1  13
HETATM   13  C5  UNL     1       7.402   5.165  18.339  1.00  0.00     0.123 C 
BRANCH  13  14
HETATM   14  N1  UNL     1       7.790   6.074  19.328  1.00  0.00    -0.361 N 
ATOM     15  H1  UNL     1       8.740   6.434  19.235  1.00  0.00     0.162 HD
BRANCH  14  16
HETATM   16  C4  UNL     1       7.046   6.584  20.470  1.00  0.00     0.163 C 
BRANCH  16  17
HETATM   17  C2  UNL     1       5.868   7.418  20.180  1.00  0.00     0.008 C 
HETATM   18  C1  UNL     1       6.194   8.710  19.404  1.00  0.00     0.012 C 
HETATM   19  C3  UNL     1       5.384   7.989  21.543  1.00  0.00     0.012 C 
ENDBRANCH  16  17
BRANCH  16  20
HETATM   20  C22 UNL     1       8.074   7.062  21.398  1.00  0.00     0.161 C 
BRANCH  20  21
HETATM   21  O2  UNL     1       8.151   6.285  22.458  1.00  0.00    -0.346 OA
ATOM     22  H2  UNL     1       9.016   6.327  22.849  1.00  0.00     0.219 HD
ENDBRANCH  20  21
BRANCH  20  23
HETATM   23  N3  UNL     1       8.970   8.112  21.423  1.00  0.00    -0.245 N 
HETATM   24  C23 UNL     1       9.247   8.753  22.747  1.00  0.00     0.187 C 
BRANCH  23  25
HETATM   25  O3  UNL     1       9.705   8.660  20.449  1.00  0.00    -0.286 OA
ATOM     26  H3  UNL     1      10.244   8.260  19.777  1.00  0.00     0.244 HD
ENDBRANCH  23  25
ENDBRANCH  20  23
ENDBRANCH  16  20
ENDBRANCH  14  16
ENDBRANCH  13  14
BRANCH  13  27
HETATM   27  O1  UNL     1       6.792   5.806  17.377  1.00  0.00    -0.349 OA
ATOM     28  H1  UNL     1       5.955   5.391  17.202  1.00  0.00     0.219 HD
ENDBRANCH  13  27
ENDBRANCH   1  13
BRANCH   6  29
HETATM   29  N2  UNL     1       5.798   2.718  19.816  1.00  0.00    -0.060 N 
HETATM   30  C12 UNL     1       5.130   1.463  20.098  1.00  0.00     0.273 C 
HETATM   31  C13 UNL     1       6.358   3.055  21.156  1.00  0.00     0.238 C 
HETATM   32  C14 UNL     1       5.117   3.287  22.039  1.00  0.00     0.029 C 
HETATM   33  C15 UNL     1       3.979   3.349  21.101  1.00  0.00     0.029 C 
HETATM   34  C16 UNL     1       4.815   3.717  19.850  1.00  0.00     0.238 C 
ENDBRANCH   6  29
TORSDOF 10
ENDMDL
MODEL 2
REMARK VINA RESULT: -7.788866878      1.113      1.855
REMARK  10 active torsions:
REMARK  status: ('A' for Active; 'I' for Inactive)
REMARK    1  A    between atoms: C2_2  and  C4_4 
REMARK    2  A    between atoms: C4_4  and  N1_5 
REMARK    3  A    between atoms: C4_4  and  C22_28 
REMARK    4  A    between atoms: N1_5  and  C5_7 
REMARK    5  A    between atoms: C5_7  and  O1_8 
REMARK    6  A    between atoms: C5_7  and  C6_10 
REMARK    7  A    between atoms: C11_15  and  N2_16 
REMARK    8  A    between atoms: C22_28  and  O2_29 
REMARK    9  A    between atoms: C22_28  and  N3_31 
REMARK   10  A    between atoms: N3_31  and  O3_33 
ROOT
HETATM    1  C6  UNL     1       7.687   3.574  18.333  1.00  0.00     0.060 C 
HETATM    2  C7  UNL     1       9.209   3.304  18.610  1.00  0.00     0.025 C 
HETATM    3  C8  UNL     1       9.677   2.018  18.055  1.00  0.00    -0.013 C 
HETATM    4  C9  UNL     1       8.891   0.919  18.686  1.00  0.00     0.007 C 
HETATM    5  C10 UNL     1       7.791   1.483  19.476  1.00  0.00     0.042 C 
HETATM    6  C11 UNL     1       6.850   2.519  18.799  1.00  0.00     0.157 C 
HETATM    7  C17 UNL     1       6.213   1.787  17.602  1.00  0.00     0.096 C 
HETATM    8 BR1  UNL     1       4.604   2.687  16.959  1.00  0.00    -0.088 Br
HETATM    9  C18 UNL     1       7.034   1.468  16.433  1.00  0.00     0.023 C 
HETATM   10  C19 UNL     1       8.165   2.379  16.136  1.00  0.00    -0.012 C 
HETATM   11  C20 UNL     1       9.510   1.923  16.580  1.00  0.00     0.009 C 
HETATM   12  C21 UNL     1       7.790   3.661  16.769  1.00  0.00     0.025 C 
ENDROOT
BRANCH   1  13
HETATM   13  C5  UNL     1       7.624   5.022  18.544  1.00  0.00     0.123 C 
BRANCH  13  14
HETATM   14  N1  UNL     1       8.222   5.843  19.506  1.00  0.00    -0.361 N 
ATOM     15  H1  UNL     1       9.173   5.584  19.764  1.00  0.00     0.162 HD
BRANCH  14  16
HETATM   16  C4  UNL     1       7.692   7.011  20.194  1.00  0.00     0.163 C 
BRANCH  16  17
HETATM   17  C2  UNL     1       8.547   8.209  20.229  1.00  0.00     0.008 C 
HETATM   18  C1  UNL     1       8.372   9.064  21.500  1.00  0.00     0.012 C 
HETATM   19  C3  UNL     1       8.008   9.171  19.132  1.00  0.00     0.012 C 
ENDBRANCH  16  17
BRANCH  16  20
HETATM   20  C22 UNL     1       7.117   6.482  21.433  1.00  0.00     0.161 C 
BRANCH  20  21
HETATM   21  O2  UNL     1       7.981   5.716  22.065  1.00  0.00    -0.346 OA
ATOM     22  H2  UNL     1       8.467   6.213  22.713  1.00  0.00     0.219 HD
ENDBRANCH  20  21
BRANCH  20  23
HETATM   23  N3  UNL     1       5.908   6.599  22.088  1.00  0.00    -0.245 N 
HETATM   24  C23 UNL     1       4.764   7.195  21.328  1.00  0.00     0.187 C 
BRANCH  23  25
HETATM   25  O3  UNL     1       5.537   6.221  23.317  1.00  0.00    -0.286 OA
ATOM     26  H3  UNL     1       5.039   6.678  23.984  1.00  0.00     0.244 HD
ENDBRANCH  23  25
ENDBRANCH  20  23
ENDBRANCH  16  20
ENDBRANCH  14  16
ENDBRANCH  13  14
BRANCH  13  27
HETATM   27  O1  UNL     1       6.895   5.754  17.743  1.00  0.00    -0.349 OA
ATOM     28  H1  UNL     1       6.091   5.292  17.539  1.00  0.00     0.219 HD
ENDBRANCH  13  27
ENDBRANCH   1  13
BRANCH   6  29
HETATM   29  N2  UNL     1       5.857   2.577  19.827  1.00  0.00    -0.060 N 
HETATM   30  C12 UNL     1       5.041   1.386  19.944  1.00  0.00     0.273 C 
HETATM   31  C13 UNL     1       6.437   2.667  21.197  1.00  0.00     0.238 C 
HETATM   32  C14 UNL     1       5.222   2.928  22.107  1.00  0.00     0.029 C 
HETATM   33  C15 UNL     1       4.111   3.249  21.190  1.00  0.00     0.029 C 
HETATM   34  C16 UNL     1       5.001   3.675  19.995  1.00  0.00     0.238 C 
ENDBRANCH   6  29
TORSDOF 10
ENDMDL
MODEL 3
REMARK VINA RESULT: -7.644598325      1.493      1.888
REMARK  10 active torsions:
REMARK  status: ('A' for Active; 'I' for Inactive)
REMARK    1  A    between atoms: C2_2  and  C4_4 
REMARK    2  A    between atoms: C4_4  and  N1_5 
REMARK    3  A    between atoms: C4_4  and  C22_28 
REMARK    4  A    between atoms: N1_5  and  C5_7 
REMARK    5  A    between atoms: C5_7  and  O1_8 
REMARK    6  A    between atoms: C5_7  and  C6_10 
REMARK    7  A    between atoms: C11_15  and  N2_16 
REMARK    8  A    between atoms: C22_28  and  O2_29 
REMARK    9  A    between atoms: C22_28  and  N3_31 
REMARK   10  A    between atoms: N3_31  and  O3_33 
ROOT
HETATM    1  C6  UNL     1       7.550   3.275  19.197  1.00  0.00     0.060 C 
HETATM    2  C7  UNL     1       8.198   2.039  19.919  1.00  0.00     0.025 C 
HETATM    3  C8  UNL     1       8.598   0.969  18.983  1.00  0.00    -0.013 C 
HETATM    4  C9  UNL     1       7.383   0.496  18.261  1.00  0.00     0.007 C 
HETATM    5  C10 UNL     1       6.250   1.379  18.561  1.00  0.00     0.042 C 
HETATM    6  C11 UNL     1       6.439   2.912  18.382  1.00  0.00     0.157 C 
HETATM    7  C17 UNL     1       6.789   3.120  16.896  1.00  0.00     0.096 C 
HETATM    8 BR1  UNL     1       6.515   4.968  16.327  1.00  0.00    -0.088 Br
HETATM    9  C18 UNL     1       8.099   2.698  16.398  1.00  0.00     0.023 C 
HETATM   10  C19 UNL     1       9.225   2.722  17.361  1.00  0.00    -0.012 C 
HETATM   11  C20 UNL     1       9.595   1.418  17.974  1.00  0.00     0.009 C 
HETATM   12  C21 UNL     1       8.822   3.709  18.385  1.00  0.00     0.025 C 
ENDROOT
BRANCH   1  13
HETATM   13  C5  UNL     1       7.695   4.301  20.232  1.00  0.00     0.123 C 
BRANCH  13  14
HETATM   14  N1  UNL     1       7.763   5.695  20.149  1.00  0.00    -0.361 N 
ATOM     15  H1  UNL     1       8.382   6.055  19.424  1.00  0.00     0.162 HD
BRANCH  14  16
HETATM   16  C4  UNL     1       7.083   6.711  20.940  1.00  0.00     0.163 C 
BRANCH  16  17
HETATM   17  C2  UNL     1       6.168   7.613  20.222  1.00  0.00     0.008 C 
HETATM   18  C1  UNL     1       6.770   8.224  18.941  1.00  0.00     0.012 C 
HETATM   19  C3  UNL     1       5.998   8.874  21.116  1.00  0.00     0.012 C 
ENDBRANCH  16  17
BRANCH  16  20
HETATM   20  C22 UNL     1       8.125   7.262  21.810  1.00  0.00     0.161 C 
BRANCH  20  21
HETATM   21  O2  UNL     1       8.140   6.650  22.975  1.00  0.00    -0.346 OA
ATOM     22  H2  UNL     1       8.822   5.989  23.004  1.00  0.00     0.219 HD
ENDBRANCH  20  21
BRANCH  20  23
HETATM   23  N3  UNL     1       9.083   8.250  21.698  1.00  0.00    -0.245 N 
HETATM   24  C23 UNL     1       9.598   8.861  22.964  1.00  0.00     0.187 C 
BRANCH  23  25
HETATM   25  O3  UNL     1       9.699   8.756  20.624  1.00  0.00    -0.286 OA
ATOM     26  H3  UNL     1      10.387   9.406  20.550  1.00  0.00     0.244 HD
ENDBRANCH  23  25
ENDBRANCH  20  23
ENDBRANCH  16  20
ENDBRANCH  14  16
ENDBRANCH  13  14
BRANCH  13  27
HETATM   27  O1  UNL     1       7.796   3.937  21.484  1.00  0.00    -0.349 OA
ATOM     28  H1  UNL     1       8.712   3.831  21.709  1.00  0.00     0.219 HD
ENDBRANCH  13  27
ENDBRANCH   1  13
BRANCH   6  29
HETATM   29  N2  UNL     1       5.071   3.296  18.545  1.00  0.00    -0.060 N 
HETATM   30  C12 UNL     1       4.169   2.743  17.554  1.00  0.00     0.273 C 
HETATM   31  C13 UNL     1       4.465   2.782  19.806  1.00  0.00     0.238 C 
HETATM   32  C14 UNL     1       3.091   3.475  19.877  1.00  0.00     0.029 C 
HETATM   33  C15 UNL     1       3.130   4.522  18.837  1.00  0.00     0.029 C 
HETATM   34  C16 UNL     1       4.675   4.623  18.762  1.00  0.00     0.238 C 
ENDBRANCH   6  29
TORSDOF 10
ENDMDL
MODEL 4
REMARK VINA RESULT: -7.634486003      1.676      2.269
REMARK  10 active torsions:
REMARK  status: ('A' for Active; 'I' for Inactive)
REMARK    1  A    between atoms: C2_2  and  C4_4 
REMARK    2  A    between atoms: C4_4  and  N1_5 
REMARK    3  A    between atoms: C4_4  and  C22_28 
REMARK    4  A    between atoms: N1_5  and  C5_7 
REMARK    5  A    between atoms: C5_7  and  O1_8 
REMARK    6  A    between atoms: C5_7  and  C6_10 
REMARK    7  A    between atoms: C11_15  and  N2_16 
REMARK    8  A    between atoms: C22_28  and  O2_29 
REMARK    9  A    between atoms: C22_28  and  N3_31 
REMARK   10  A    between atoms: N3_31  and  O3_33 
ROOT
HETATM    1  C6  UNL     1       7.484   2.802  19.206  1.00  0.00     0.060 C 
HETATM    2  C7  UNL     1       8.151   1.523  19.827  1.00  0.00     0.025 C 
HETATM    3  C8  UNL     1       8.741   0.629  18.809  1.00  0.00    -0.013 C 
HETATM    4  C9  UNL     1       7.656   0.183  17.889  1.00  0.00     0.007 C 
HETATM    5  C10 UNL     1       6.427   0.934  18.168  1.00  0.00     0.042 C 
HETATM    6  C11 UNL     1       6.503   2.486  18.222  1.00  0.00     0.157 C 
HETATM    7  C17 UNL     1       6.994   2.930  16.831  1.00  0.00     0.096 C 
HETATM    8 BR1  UNL     1       6.629   4.817  16.489  1.00  0.00    -0.088 Br
HETATM    9  C18 UNL     1       8.383   2.674  16.441  1.00  0.00     0.023 C 
HETATM   10  C19 UNL     1       9.390   2.637  17.527  1.00  0.00    -0.012 C 
HETATM   11  C20 UNL     1       9.800   1.286  17.998  1.00  0.00     0.009 C 
HETATM   12  C21 UNL     1       8.795   3.436  18.619  1.00  0.00     0.025 C 
ENDROOT
BRANCH   1  13
HETATM   13  C5  UNL     1       7.427   3.676  20.381  1.00  0.00     0.123 C 
BRANCH  13  14
HETATM   14  N1  UNL     1       7.568   5.061  20.511  1.00  0.00    -0.361 N 
ATOM     15  H1  UNL     1       8.206   5.495  19.844  1.00  0.00     0.162 HD
BRANCH  14  16
HETATM   16  C4  UNL     1       6.944   5.978  21.452  1.00  0.00     0.163 C 
BRANCH  16  17
HETATM   17  C2  UNL     1       5.575   6.423  21.142  1.00  0.00     0.008 C 
HETATM   18  C1  UNL     1       5.214   7.797  21.740  1.00  0.00     0.012 C 
HETATM   19  C3  UNL     1       4.615   5.483  21.926  1.00  0.00     0.012 C 
ENDBRANCH  16  17
BRANCH  16  20
HETATM   20  C22 UNL     1       7.984   6.964  21.757  1.00  0.00     0.161 C 
BRANCH  20  21
HETATM   21  O2  UNL     1       8.328   6.910  23.026  1.00  0.00    -0.346 OA
ATOM     22  H2  UNL     1       7.766   7.466  23.554  1.00  0.00     0.219 HD
ENDBRANCH  20  21
BRANCH  20  23
HETATM   23  N3  UNL     1       8.683   7.914  21.040  1.00  0.00    -0.245 N 
HETATM   24  C23 UNL     1       8.178   8.259  19.673  1.00  0.00     0.187 C 
BRANCH  23  25
HETATM   25  O3  UNL     1       9.750   8.651  21.370  1.00  0.00    -0.286 OA
ATOM     26  H3  UNL     1      10.556   8.823  20.898  1.00  0.00     0.244 HD
ENDBRANCH  23  25
ENDBRANCH  20  23
ENDBRANCH  16  20
ENDBRANCH  14  16
ENDBRANCH  13  14
BRANCH  13  27
HETATM   27  O1  UNL     1       7.221   3.150  21.560  1.00  0.00    -0.349 OA
ATOM     28  H1  UNL     1       7.257   2.203  21.492  1.00  0.00     0.219 HD
ENDBRANCH  13  27
ENDBRANCH   1  13
BRANCH   6  29
HETATM   29  N2  UNL     1       5.098   2.747  18.270  1.00  0.00    -0.060 N 
HETATM   30  C12 UNL     1       4.351   2.229  17.141  1.00  0.00     0.273 C 
HETATM   31  C13 UNL     1       4.414   2.067  19.407  1.00  0.00     0.238 C 
HETATM   32  C14 UNL     1       2.986   2.644  19.391  1.00  0.00     0.029 C 
HETATM   33  C15 UNL     1       3.040   3.788  18.460  1.00  0.00     0.029 C 
HETATM   34  C16 UNL     1       4.570   4.013  18.561  1.00  0.00     0.238 C 
ENDBRANCH   6  29
TORSDOF 10
ENDMDL
MODEL 5
REMARK VINA RESULT: -7.607214760      2.250      3.291
REMARK  10 active torsions:
REMARK  status: ('A' for Active; 'I' for Inactive)
REMARK    1  A    between atoms: C2_2  and  C4_4 
REMARK    2  A    between atoms: C4_4  and  N1_5 
REMARK    3  A    between atoms: C4_4  and  C22_28 
REMARK    4  A    between atoms: N1_5  and  C5_7 
REMARK    5  A    between atoms: C5_7  and  O1_8 
REMARK    6  A    between atoms: C5_7  and  C6_10 
REMARK    7  A    between atoms: C11_15  and  N2_16 
REMARK    8  A    between atoms: C22_28  and  O2_29 
REMARK    9  A    between atoms: C22_28  and  N3_31 
REMARK   10  A    between atoms: N3_31  and  O3_33 
ROOT
HETATM    1  C6  UNL     1       7.366   2.317  19.378  1.00  0.00     0.060 C 
HETATM    2  C7  UNL     1       8.168   1.022  19.758  1.00  0.00     0.025 C 
HETATM    3  C8  UNL     1       8.970   0.491  18.637  1.00  0.00    -0.013 C 
HETATM    4  C9  UNL     1       8.046   0.150  17.517  1.00  0.00     0.007 C 
HETATM    5  C10 UNL     1       6.697   0.644  17.817  1.00  0.00     0.042 C 
HETATM    6  C11 UNL     1       6.530   2.131  18.239  1.00  0.00     0.157 C 
HETATM    7  C17 UNL     1       7.061   2.965  17.057  1.00  0.00     0.096 C 
HETATM    8 BR1  UNL     1       6.441   4.815  17.123  1.00  0.00    -0.088 Br
HETATM    9  C18 UNL     1       8.500   2.994  16.785  1.00  0.00     0.023 C 
HETATM   10  C19 UNL     1       9.408   2.819  17.942  1.00  0.00    -0.012 C 
HETATM   11  C20 UNL     1       9.979   1.459  18.130  1.00  0.00     0.009 C 
HETATM   12  C21 UNL     1       8.609   3.240  19.113  1.00  0.00     0.025 C 
ENDROOT
BRANCH   1  13
HETATM   13  C5  UNL     1       7.079   2.859  20.709  1.00  0.00     0.123 C 
BRANCH  13  14
HETATM   14  N1  UNL     1       7.366   4.101  21.284  1.00  0.00    -0.361 N 
ATOM     15  H1  UNL     1       7.964   4.067  22.109  1.00  0.00     0.162 HD
BRANCH  14  16
HETATM   16  C4  UNL     1       6.942   5.435  20.883  1.00  0.00     0.163 C 
BRANCH  16  17
HETATM   17  C2  UNL     1       7.910   6.527  21.070  1.00  0.00     0.008 C 
HETATM   18  C1  UNL     1       7.460   7.593  22.089  1.00  0.00     0.012 C 
HETATM   19  C3  UNL     1       7.915   7.346  19.748  1.00  0.00     0.012 C 
ENDBRANCH  16  17
BRANCH  16  20
HETATM   20  C22 UNL     1       5.580   5.563  21.408  1.00  0.00     0.161 C 
BRANCH  20  21
HETATM   21  O2  UNL     1       4.794   6.164  20.539  1.00  0.00    -0.346 OA
ATOM     22  H2  UNL     1       4.576   5.584  19.819  1.00  0.00     0.219 HD
ENDBRANCH  20  21
BRANCH  20  23
HETATM   23  N3  UNL     1       4.933   5.205  22.574  1.00  0.00    -0.245 N 
HETATM   24  C23 UNL     1       4.139   6.261  23.277  1.00  0.00     0.187 C 
BRANCH  23  25
HETATM   25  O3  UNL     1       4.843   4.025  23.198  1.00  0.00    -0.286 OA
ATOM     26  H3  UNL     1       4.107   3.435  23.308  1.00  0.00     0.244 HD
ENDBRANCH  23  25
ENDBRANCH  20  23
ENDBRANCH  16  20
ENDBRANCH  14  16
ENDBRANCH  13  14
BRANCH  13  27
HETATM   27  O1  UNL     1       6.454   2.112  21.581  1.00  0.00    -0.349 OA
ATOM     28  H1  UNL     1       6.174   1.307  21.163  1.00  0.00     0.219 HD
ENDBRANCH  13  27
ENDBRANCH   1  13
BRANCH   6  29
HETATM   29  N2  UNL     1       5.103   2.189  18.181  1.00  0.00    -0.060 N 
HETATM   30  C12 UNL     1       4.550   2.074  16.846  1.00  0.00     0.273 C 
HETATM   31  C13 UNL     1       4.442   1.043  18.868  1.00  0.00     0.238 C 
HETATM   32  C14 UNL     1       2.946   1.413  18.867  1.00  0.00     0.029 C 
HETATM   33  C15 UNL     1       2.895   2.828  18.453  1.00  0.00     0.029 C 
HETATM   34  C16 UNL     1       4.354   3.169  18.849  1.00  0.00     0.238 C 
ENDBRANCH   6  29
TORSDOF 10
ENDMDL
