MODEL 1
REMARK VINA RESULT: -9.510317449      0.000      0.000
REMARK  4 active torsions:
REMARK  status: ('A' for Active; 'I' for Inactive)
REMARK    1  A    between atoms: C2_2  and  C3_3 
REMARK    2  A    between atoms: C3_3  and  N1_4 
REMARK       I    between atoms: N2_16  and  C15_17 
REMARK       I    between atoms: C15_17  and  N3_19 
REMARK    3  A    between atoms: N3_19  and  C16_21 
REMARK    4  A    between atoms: C16_21  and  C17_23 
REMARK       I    between atoms: C17_23  and  N4_25 
REMARK       I    between atoms: N4_25  and  C18_27 
ROOT
HETATM    1  N1  UNL     1       4.854   1.001  17.377  1.00  0.00    -0.379 N 
HETATM    2  C4  UNL     1       5.221   1.031  18.739  1.00  0.00     0.093 C 
HETATM    3  C5  UNL     1       5.184   2.543  19.134  1.00  0.00     0.038 C 
HETATM    4  C6  UNL     1       6.598   2.796  18.655  1.00  0.00    -0.008 C 
HETATM    5  C7  UNL     1       7.157   1.817  19.601  1.00  0.00     0.023 C 
HETATM    6  C8  UNL     1       6.596   0.556  19.051  1.00  0.00     0.038 C 
HETATM    7  C9  UNL     1       7.565   0.224  17.946  1.00  0.00    -0.072 C 
HETATM    8  C10 UNL     1       8.983   0.542  18.274  1.00  0.00     0.003 C 
HETATM    9  C11 UNL     1       9.742   1.701  17.869  1.00  0.00     0.000 C 
HETATM   10  C12 UNL     1       9.546   3.115  18.016  1.00  0.00    -0.002 C 
HETATM   11  C13 UNL     1       8.801   3.905  18.979  1.00  0.00    -0.001 C 
HETATM   12  C14 UNL     1       7.313   4.020  19.043  1.00  0.00     0.121 C 
HETATM   13  N2  UNL     1       6.719   5.173  18.430  1.00  0.00    -0.320 N 
HETATM   14  C15 UNL     1       6.961   6.444  19.012  1.00  0.00     0.320 C 
HETATM   15  O1  UNL     1       6.465   7.481  18.442  1.00  0.00    -0.247 OA
HETATM   16  N3  UNL     1       7.707   6.673  20.182  1.00  0.00    -0.317 N 
ATOM     17  H3  UNL     1       8.110   5.867  20.661  1.00  0.00     0.166 HD
HETATM   18  C20 UNL     1       5.856   5.127  17.277  1.00  0.00     0.094 C 
HETATM   19  C21 UNL     1       6.669   5.334  16.020  1.00  0.00     0.026 C 
HETATM   20  C22 UNL     1       5.770   4.313  15.359  1.00  0.00     0.009 C 
HETATM   21  C23 UNL     1       5.471   3.798  16.784  1.00  0.00     0.015 C 
HETATM   22  C24 UNL     1       6.488   2.722  17.235  1.00  0.00     0.026 C 
HETATM   23  C25 UNL     1       5.929   1.445  16.610  1.00  0.00     0.093 C 
HETATM   24  C26 UNL     1       7.131   0.533  16.567  1.00  0.00     0.060 C 
ENDROOT
BRANCH  16  25
HETATM   25  C16 UNL     1       7.934   7.983  20.742  1.00  0.00     0.276 C 
HETATM   26 CL1  UNL     1       9.209   8.805  19.782  1.00  0.00    -0.092 Cl
BRANCH  25  27
HETATM   27  C17 UNL     1       8.476   7.859  22.140  1.00  0.00     0.262 C 
HETATM   28  O2  UNL     1       8.159   6.893  22.849  1.00  0.00    -0.269 OA
HETATM   29  N4  UNL     1       9.352   8.856  22.636  1.00  0.00    -0.295 N 
HETATM   30  C18 UNL     1       9.863   8.741  23.955  1.00  0.00     0.220 C 
ATOM     31  H4  UNL     1       9.612   9.650  22.051  1.00  0.00     0.171 HD
HETATM   32  C19 UNL     1      10.782   9.760  24.519  1.00  0.00     0.117 C 
HETATM   33  O3  UNL     1       9.561   7.765  24.709  1.00  0.00    -0.274 OA
ENDBRANCH  25  27
ENDBRANCH  16  25
BRANCH   1  34
HETATM   34  C3  UNL     1       4.048  -0.048  16.919  1.00  0.00     0.085 C 
BRANCH  34  35
HETATM   35  C2  UNL     1       3.003  -0.350  17.939  1.00  0.00     0.007 C 
HETATM   36  C1  UNL     1       2.361  -1.523  17.959  1.00  0.00     0.012 C 
ENDBRANCH  34  35
ENDBRANCH   1  34
TORSDOF 4
ENDMDL
MODEL 2
REMARK VINA RESULT: -9.496038313      2.743      4.435
REMARK  4 active torsions:
REMARK  status: ('A' for Active; 'I' for Inactive)
REMARK    1  A    between atoms: C2_2  and  C3_3 
REMARK    2  A    between atoms: C3_3  and  N1_4 
REMARK       I    between atoms: N2_16  and  C15_17 
REMARK       I    between atoms: C15_17  and  N3_19 
REMARK    3  A    between atoms: N3_19  and  C16_21 
REMARK    4  A    between atoms: C16_21  and  C17_23 
REMARK       I    between atoms: C17_23  and  N4_25 
REMARK       I    between atoms: N4_25  and  C18_27 
ROOT
HETATM    1  N1  UNL     1       7.915   1.260  18.415  1.00  0.00    -0.379 N 
HETATM    2  C4  UNL     1       8.608   2.437  18.767  1.00  0.00     0.093 C 
HETATM    3  C5  UNL     1       8.028   2.845  20.161  1.00  0.00     0.038 C 
HETATM    4  C6  UNL     1       6.866   3.604  19.555  1.00  0.00    -0.008 C 
HETATM    5  C7  UNL     1       7.764   4.532  18.848  1.00  0.00     0.023 C 
HETATM    6  C8  UNL     1       8.397   3.607  17.873  1.00  0.00     0.038 C 
HETATM    7  C9  UNL     1       7.378   3.555  16.764  1.00  0.00    -0.072 C 
HETATM    8  C10 UNL     1       6.707   4.859  16.503  1.00  0.00     0.003 C 
HETATM    9  C11 UNL     1       5.406   5.287  16.959  1.00  0.00     0.000 C 
HETATM   10  C12 UNL     1       4.798   5.401  18.253  1.00  0.00    -0.002 C 
HETATM   11  C13 UNL     1       5.352   5.579  19.583  1.00  0.00    -0.001 C 
HETATM   12  C14 UNL     1       6.070   4.532  20.371  1.00  0.00     0.121 C 
HETATM   13  N2  UNL     1       5.310   3.820  21.357  1.00  0.00    -0.320 N 
HETATM   14  C15 UNL     1       4.849   4.530  22.495  1.00  0.00     0.320 C 
HETATM   15  O1  UNL     1       4.135   3.905  23.358  1.00  0.00    -0.247 OA
HETATM   16  N3  UNL     1       5.116   5.883  22.770  1.00  0.00    -0.317 N 
ATOM     17  H3  UNL     1       5.686   6.406  22.105  1.00  0.00     0.166 HD
HETATM   18  C20 UNL     1       5.009   2.411  21.291  1.00  0.00     0.094 C 
HETATM   19  C21 UNL     1       3.663   2.205  20.636  1.00  0.00     0.026 C 
HETATM   20  C22 UNL     1       4.255   0.984  19.969  1.00  0.00     0.009 C 
HETATM   21  C23 UNL     1       5.632   1.647  20.202  1.00  0.00     0.015 C 
HETATM   22  C24 UNL     1       6.031   2.575  19.029  1.00  0.00     0.026 C 
HETATM   23  C25 UNL     1       6.624   1.600  18.014  1.00  0.00     0.093 C 
HETATM   24  C26 UNL     1       6.515   2.356  16.712  1.00  0.00     0.060 C 
ENDROOT
BRANCH  16  25
HETATM   25  C16 UNL     1       4.627   6.574  23.939  1.00  0.00     0.276 C 
HETATM   26 CL1  UNL     1       3.170   7.517  23.481  1.00  0.00    -0.092 Cl
BRANCH  25  27
HETATM   27  C17 UNL     1       5.645   7.576  24.408  1.00  0.00     0.262 C 
HETATM   28  O2  UNL     1       5.332   8.768  24.546  1.00  0.00    -0.269 OA
HETATM   29  N4  UNL     1       6.965   7.144  24.691  1.00  0.00    -0.295 N 
HETATM   30  C18 UNL     1       7.927   8.090  25.133  1.00  0.00     0.220 C 
ATOM     31  H4  UNL     1       7.221   6.164  24.578  1.00  0.00     0.171 HD
HETATM   32  C19 UNL     1       9.321   7.685  25.441  1.00  0.00     0.117 C 
HETATM   33  O3  UNL     1       7.642   9.317  25.286  1.00  0.00    -0.274 OA
ENDBRANCH  25  27
ENDBRANCH  16  25
BRANCH   1  34
HETATM   34  C3  UNL     1       8.611   0.239  17.757  1.00  0.00     0.085 C 
BRANCH  34  35
HETATM   35  C2  UNL     1      10.032   0.240  18.208  1.00  0.00     0.007 C 
HETATM   36  C1  UNL     1      10.874  -0.742  17.871  1.00  0.00     0.012 C 
ENDBRANCH  34  35
ENDBRANCH   1  34
TORSDOF 4
ENDMDL
MODEL 3
REMARK VINA RESULT: -9.457228999      2.302      4.393
REMARK  4 active torsions:
REMARK  status: ('A' for Active; 'I' for Inactive)
REMARK    1  A    between atoms: C2_2  and  C3_3 
REMARK    2  A    between atoms: C3_3  and  N1_4 
REMARK       I    between atoms: N2_16  and  C15_17 
REMARK       I    between atoms: C15_17  and  N3_19 
REMARK    3  A    between atoms: N3_19  and  C16_21 
REMARK    4  A    between atoms: C16_21  and  C17_23 
REMARK       I    between atoms: C17_23  and  N4_25 
REMARK       I    between atoms: N4_25  and  C18_27 
ROOT
HETATM    1  N1  UNL     1       7.807   1.437  17.413  1.00  0.00    -0.379 N 
HETATM    2  C4  UNL     1       8.144   2.614  16.713  1.00  0.00     0.093 C 
HETATM    3  C5  UNL     1       8.641   3.610  17.811  1.00  0.00     0.038 C 
HETATM    4  C6  UNL     1       7.243   4.094  18.132  1.00  0.00    -0.008 C 
HETATM    5  C7  UNL     1       7.033   4.582  16.758  1.00  0.00     0.023 C 
HETATM    6  C8  UNL     1       7.023   3.297  16.013  1.00  0.00     0.038 C 
HETATM    7  C9  UNL     1       5.603   2.827  16.193  1.00  0.00    -0.072 C 
HETATM    8  C10 UNL     1       4.597   3.926  16.160  1.00  0.00     0.003 C 
HETATM    9  C11 UNL     1       3.964   4.574  17.282  1.00  0.00     0.000 C 
HETATM   10  C12 UNL     1       4.461   5.264  18.438  1.00  0.00    -0.002 C 
HETATM   11  C13 UNL     1       5.704   5.965  18.701  1.00  0.00    -0.001 C 
HETATM   12  C14 UNL     1       7.036   5.322  18.913  1.00  0.00     0.121 C 
HETATM   13  N2  UNL     1       7.466   5.141  20.269  1.00  0.00    -0.320 N 
HETATM   14  C15 UNL     1       7.767   6.294  21.039  1.00  0.00     0.320 C 
HETATM   15  O1  UNL     1       8.112   6.136  22.265  1.00  0.00    -0.247 OA
HETATM   16  N3  UNL     1       7.723   7.618  20.569  1.00  0.00    -0.317 N 
ATOM     17  H3  UNL     1       7.458   7.775  19.597  1.00  0.00     0.166 HD
HETATM   18  C20 UNL     1       7.651   3.858  20.900  1.00  0.00     0.094 C 
HETATM   19  C21 UNL     1       6.391   3.461  21.633  1.00  0.00     0.026 C 
HETATM   20  C22 UNL     1       6.663   2.043  21.182  1.00  0.00     0.009 C 
HETATM   21  C23 UNL     1       7.505   2.670  20.048  1.00  0.00     0.015 C 
HETATM   22  C24 UNL     1       6.647   2.983  18.799  1.00  0.00     0.026 C 
HETATM   23  C25 UNL     1       6.598   1.638  18.077  1.00  0.00     0.093 C 
HETATM   24  C26 UNL     1       5.377   1.767  17.199  1.00  0.00     0.060 C 
ENDROOT
BRANCH  16  25
HETATM   25  C16 UNL     1       8.034   8.768  21.385  1.00  0.00     0.276 C 
HETATM   26 CL1  UNL     1       6.616   9.136  22.421  1.00  0.00    -0.092 Cl
BRANCH  25  27
HETATM   27  C17 UNL     1       8.243   9.976  20.514  1.00  0.00     0.262 C 
HETATM   28  O2  UNL     1       8.590   9.842  19.331  1.00  0.00    -0.269 OA
HETATM   29  N4  UNL     1       8.038  11.268  21.060  1.00  0.00    -0.295 N 
HETATM   30  C18 UNL     1       8.236  12.410  20.239  1.00  0.00     0.220 C 
ATOM     31  H4  UNL     1       7.752  11.377  22.032  1.00  0.00     0.171 HD
HETATM   32  C19 UNL     1       8.034  13.782  20.765  1.00  0.00     0.117 C 
HETATM   33  O3  UNL     1       8.591  12.310  19.025  1.00  0.00    -0.274 OA
ENDBRANCH  25  27
ENDBRANCH  16  25
BRANCH   1  34
HETATM   34  C3  UNL     1       8.090   0.199  16.826  1.00  0.00     0.085 C 
BRANCH  34  35
HETATM   35  C2  UNL     1       9.487  -0.200  17.164  1.00  0.00     0.007 C 
HETATM   36  C1  UNL     1      10.090   0.235  18.275  1.00  0.00     0.012 C 
ENDBRANCH  34  35
ENDBRANCH   1  34
TORSDOF 4
ENDMDL
MODEL 4
REMARK VINA RESULT: -9.333465099      1.899      3.880
REMARK  4 active torsions:
REMARK  status: ('A' for Active; 'I' for Inactive)
REMARK    1  A    between atoms: C2_2  and  C3_3 
REMARK    2  A    between atoms: C3_3  and  N1_4 
REMARK       I    between atoms: N2_16  and  C15_17 
REMARK       I    between atoms: C15_17  and  N3_19 
REMARK    3  A    between atoms: N3_19  and  C16_21 
REMARK    4  A    between atoms: C16_21  and  C17_23 
REMARK       I    between atoms: C17_23  and  N4_25 
REMARK       I    between atoms: N4_25  and  C18_27 
ROOT
HETATM    1  N1  UNL     1       8.599   1.031  17.992  1.00  0.00    -0.379 N 
HETATM    2  C4  UNL     1       9.004   2.134  17.213  1.00  0.00     0.093 C 
HETATM    3  C5  UNL     1       9.139   3.317  18.226  1.00  0.00     0.038 C 
HETATM    4  C6  UNL     1       7.671   3.679  18.137  1.00  0.00    -0.008 C 
HETATM    5  C7  UNL     1       7.765   3.952  16.694  1.00  0.00     0.023 C 
HETATM    6  C8  UNL     1       8.038   2.587  16.176  1.00  0.00     0.038 C 
HETATM    7  C9  UNL     1       6.658   1.987  16.096  1.00  0.00    -0.072 C 
HETATM    8  C10 UNL     1       5.608   2.952  15.661  1.00  0.00     0.003 C 
HETATM    9  C11 UNL     1       4.671   3.667  16.493  1.00  0.00     0.000 C 
HETATM   10  C12 UNL     1       4.816   4.556  17.610  1.00  0.00    -0.002 C 
HETATM   11  C13 UNL     1       5.898   5.422  18.038  1.00  0.00    -0.001 C 
HETATM   12  C14 UNL     1       7.185   4.968  18.648  1.00  0.00     0.121 C 
HETATM   13  N2  UNL     1       7.283   5.019  20.078  1.00  0.00    -0.320 N 
HETATM   14  C15 UNL     1       7.296   6.291  20.707  1.00  0.00     0.320 C 
HETATM   15  O1  UNL     1       7.343   6.338  21.989  1.00  0.00    -0.247 OA
HETATM   16  N3  UNL     1       7.266   7.527  20.039  1.00  0.00    -0.317 N 
ATOM     17  H3  UNL     1       7.234   7.523  19.019  1.00  0.00     0.166 HD
HETATM   18  C20 UNL     1       7.409   3.861  20.927  1.00  0.00     0.094 C 
HETATM   19  C21 UNL     1       6.043   3.424  21.404  1.00  0.00     0.026 C 
HETATM   20  C22 UNL     1       6.526   2.000  21.255  1.00  0.00     0.009 C 
HETATM   21  C23 UNL     1       7.568   2.561  20.261  1.00  0.00     0.015 C 
HETATM   22  C24 UNL     1       7.020   2.606  18.815  1.00  0.00     0.026 C 
HETATM   23  C25 UNL     1       7.253   1.180  18.320  1.00  0.00     0.093 C 
HETATM   24  C26 UNL     1       6.276   1.053  17.176  1.00  0.00     0.060 C 
ENDROOT
BRANCH  16  25
HETATM   25  C16 UNL     1       7.278   8.803  20.714  1.00  0.00     0.276 C 
HETATM   26 CL1  UNL     1       7.349  10.105  19.481  1.00  0.00    -0.092 Cl
BRANCH  25  27
HETATM   27  C17 UNL     1       8.528   8.937  21.539  1.00  0.00     0.262 C 
HETATM   28  O2  UNL     1       9.613   9.190  20.994  1.00  0.00    -0.269 OA
HETATM   29  N4  UNL     1       8.453   8.772  22.945  1.00  0.00    -0.295 N 
HETATM   30  C18 UNL     1       9.633   8.897  23.724  1.00  0.00     0.220 C 
ATOM     31  H4  UNL     1       7.561   8.565  23.392  1.00  0.00     0.171 HD
HETATM   32  C19 UNL     1       9.604   8.732  25.199  1.00  0.00     0.117 C 
HETATM   33  O3  UNL     1      10.760   9.156  23.201  1.00  0.00    -0.274 OA
ENDBRANCH  25  27
ENDBRANCH  16  25
BRANCH   1  34
HETATM   34  C3  UNL     1       9.113  -0.235  17.686  1.00  0.00     0.085 C 
BRANCH  34  35
HETATM   35  C2  UNL     1      10.580  -0.250  17.952  1.00  0.00     0.007 C 
HETATM   36  C1  UNL     1      11.336  -1.310  17.650  1.00  0.00     0.012 C 
ENDBRANCH  34  35
ENDBRANCH   1  34
TORSDOF 4
ENDMDL
MODEL 5
REMARK VINA RESULT: -9.250349928      2.360      4.027
REMARK  4 active torsions:
REMARK  status: ('A' for Active; 'I' for Inactive)
REMARK    1  A    between atoms: C2_2  and  C3_3 
REMARK    2  A    between atoms: C3_3  and  N1_4 
REMARK       I    between atoms: N2_16  and  C15_17 
REMARK       I    between atoms: C15_17  and  N3_19 
REMARK    3  A    between atoms: N3_19  and  C16_21 
REMARK    4  A    between atoms: C16_21  and  C17_23 
REMARK       I    between atoms: C17_23  and  N4_25 
REMARK       I    between atoms: N4_25  and  C18_27 
ROOT
HETATM    1  N1  UNL     1       7.315   1.934  19.083  1.00  0.00    -0.379 N 
HETATM    2  C4  UNL     1       8.351   2.882  18.948  1.00  0.00     0.093 C 
HETATM    3  C5  UNL     1       8.215   3.810  20.199  1.00  0.00     0.038 C 
HETATM    4  C6  UNL     1       7.188   4.704  19.538  1.00  0.00    -0.008 C 
HETATM    5  C7  UNL     1       8.120   5.078  18.461  1.00  0.00     0.023 C 
HETATM    6  C8  UNL     1       8.262   3.775  17.761  1.00  0.00     0.038 C 
HETATM    7  C9  UNL     1       7.048   3.751  16.868  1.00  0.00    -0.072 C 
HETATM    8  C10 UNL     1       6.700   5.080  16.292  1.00  0.00     0.003 C 
HETATM    9  C11 UNL     1       5.687   6.000  16.750  1.00  0.00     0.000 C 
HETATM   10  C12 UNL     1       5.427   6.642  18.007  1.00  0.00    -0.002 C 
HETATM   11  C13 UNL     1       6.284   6.986  19.126  1.00  0.00    -0.001 C 
HETATM   12  C14 UNL     1       6.859   6.018  20.109  1.00  0.00     0.121 C 
HETATM   13  N2  UNL     1       6.173   5.872  21.360  1.00  0.00    -0.320 N 
HETATM   14  C15 UNL     1       6.174   6.969  22.260  1.00  0.00     0.320 C 
HETATM   15  O1  UNL     1       5.526   6.854  23.362  1.00  0.00    -0.247 OA
HETATM   16  N3  UNL     1       6.836   8.191  22.050  1.00  0.00    -0.317 N 
ATOM     17  H3  UNL     1       7.364   8.310  21.185  1.00  0.00     0.166 HD
HETATM   18  C20 UNL     1       5.509   4.666  21.788  1.00  0.00     0.094 C 
HETATM   19  C21 UNL     1       4.046   4.726  21.413  1.00  0.00     0.026 C 
HETATM   20  C22 UNL     1       4.141   3.249  21.103  1.00  0.00     0.009 C 
HETATM   21  C23 UNL     1       5.658   3.483  20.931  1.00  0.00     0.015 C 
HETATM   22  C24 UNL     1       6.020   3.888  19.482  1.00  0.00     0.026 C 
HETATM   23  C25 UNL     1       6.102   2.542  18.765  1.00  0.00     0.093 C 
HETATM   24  C26 UNL     1       5.912   2.916  17.315  1.00  0.00     0.060 C 
ENDROOT
BRANCH  16  25
HETATM   25  C16 UNL     1       6.811   9.287  22.989  1.00  0.00     0.276 C 
HETATM   26 CL1  UNL     1       6.148  10.736  22.162  1.00  0.00    -0.092 Cl
BRANCH  25  27
HETATM   27  C17 UNL     1       8.213   9.643  23.402  1.00  0.00     0.262 C 
HETATM   28  O2  UNL     1       8.810  10.578  22.847  1.00  0.00    -0.269 OA
HETATM   29  N4  UNL     1       8.843   8.900  24.431  1.00  0.00    -0.295 N 
HETATM   30  C18 UNL     1      10.167   9.235  24.820  1.00  0.00     0.220 C 
ATOM     31  H4  UNL     1       8.351   8.132  24.887  1.00  0.00     0.171 HD
HETATM   32  C19 UNL     1      10.868   8.486  25.892  1.00  0.00     0.117 C 
HETATM   33  O3  UNL     1      10.807  10.185  24.275  1.00  0.00    -0.274 OA
ENDBRANCH  25  27
ENDBRANCH  16  25
BRANCH   1  34
HETATM   34  C3  UNL     1       7.561   0.610  18.703  1.00  0.00     0.085 C 
BRANCH  34  35
HETATM   35  C2  UNL     1       9.032   0.379  18.636  1.00  0.00     0.007 C 
HETATM   36  C1  UNL     1       9.612  -0.137  17.547  1.00  0.00     0.012 C 
ENDBRANCH  34  35
ENDBRANCH   1  34
TORSDOF 4
ENDMDL
