MODEL 1
REMARK VINA RESULT: -8.124445954      0.000      0.000
REMARK  6 active torsions:
REMARK  status: ('A' for Active; 'I' for Inactive)
REMARK       I    between atoms: N1_2  and  C2_4 
REMARK    1  A    between atoms: C2_4  and  C3_6 
REMARK    2  A    between atoms: C7_10  and  C8_11 
REMARK       I    between atoms: N2_15  and  C11_16 
REMARK    3  A    between atoms: C11_16  and  C12_18 
REMARK    4  A    between atoms: C12_18  and  C13_19 
REMARK    5  A    between atoms: C18_24  and  C19_25 
REMARK       I    between atoms: C19_25  and  N3_27 
REMARK    6  A    between atoms: N3_27  and  C20_29 
ROOT
HETATM    1  C3  UNL     1       7.718   9.449  22.314  1.00  0.00     0.184 C 
HETATM    2  C4  UNL     1       6.792  10.607  22.087  1.00  0.00     0.027 A 
HETATM    3  C5  UNL     1       5.399  10.113  21.761  1.00  0.00     0.009 A 
HETATM    4  C6  UNL     1       5.525  10.754  20.406  1.00  0.00     0.011 A 
HETATM    5  C7  UNL     1       6.890  11.284  20.794  1.00  0.00    -0.024 A 
HETATM    6  C9  UNL     1       7.997  10.869  19.890  1.00  0.00     0.030 C 
HETATM    7  C10 UNL     1       8.292   9.411  19.865  1.00  0.00     0.127 C 
HETATM    8  N2  UNL     1       8.067   8.748  21.115  1.00  0.00    -0.338 N 
HETATM    9  C11 UNL     1       8.210   7.310  21.121  1.00  0.00     0.221 C 
HETATM   10  O2  UNL     1       8.013   6.729  22.219  1.00  0.00    -0.273 OA
ENDROOT
BRANCH   9  11
HETATM   11  C12 UNL     1       8.566   6.561  19.922  1.00  0.00     0.108 C 
BRANCH  11  12
HETATM   12  C13 UNL     1       7.736   5.390  19.573  1.00  0.00     0.007 C 
HETATM   13  C14 UNL     1       6.274   5.575  19.806  1.00  0.00     0.006 C 
HETATM   14  C15 UNL     1       5.660   6.581  18.848  1.00  0.00     0.000 C 
HETATM   15  C16 UNL     1       6.163   6.397  17.435  1.00  0.00     0.001 C 
HETATM   16  C17 UNL     1       6.732   5.009  17.336  1.00  0.00     0.014 C 
HETATM   17  C18 UNL     1       8.009   4.928  18.136  1.00  0.00     0.082 C 
BRANCH  17  18
HETATM   18  C19 UNL     1       8.502   3.533  18.084  1.00  0.00     0.222 C 
HETATM   19  O3  UNL     1       9.710   3.310  18.337  1.00  0.00    -0.273 OA
HETATM   20  N3  UNL     1       7.613   2.461  17.751  1.00  0.00    -0.353 N 
ATOM     21  H3  UNL     1       6.634   2.661  17.548  1.00  0.00     0.163 HD
BRANCH  20  22
HETATM   22  C20 UNL     1       8.088   1.109  17.699  1.00  0.00     0.022 C 
HETATM   23  C21 UNL     1       7.014   0.204  17.150  1.00  0.00     0.037 C 
HETATM   24  C22 UNL     1       9.336   0.982  16.821  1.00  0.00     0.037 C 
HETATM   25  C23 UNL     1       8.436   0.579  19.086  1.00  0.00     0.037 C 
ENDBRANCH  20  22
ENDBRANCH  17  18
ENDBRANCH  11  12
ENDBRANCH   9  11
BRANCH   1  26
HETATM   26  C2  UNL     1       8.916   9.830  23.103  1.00  0.00     0.240 C 
HETATM   27  N1  UNL     1       9.655   8.824  23.770  1.00  0.00    -0.364 N 
HETATM   28  C1  UNL     1      10.838   9.127  24.560  1.00  0.00     0.149 C 
ATOM     29  H1  UNL     1       9.347   7.854  23.695  1.00  0.00     0.161 HD
HETATM   30  O1  UNL     1       9.316  11.018  23.212  1.00  0.00    -0.271 OA
ENDBRANCH   1  26
BRANCH   5  31
HETATM   31  C8  UNL     1       6.816  12.817  20.831  1.00  0.00     0.095 C 
HETATM   32 BR1  UNL     1       8.586  13.562  20.587  1.00  0.00    -0.096 Br
ENDBRANCH   5  31
TORSDOF 6
ENDMDL
MODEL 2
REMARK VINA RESULT: -8.025740148      0.860      1.199
REMARK  6 active torsions:
REMARK  status: ('A' for Active; 'I' for Inactive)
REMARK       I    between atoms: N1_2  and  C2_4 
REMARK    1  A    between atoms: C2_4  and  C3_6 
REMARK    2  A    between atoms: C7_10  and  C8_11 
REMARK       I    between atoms: N2_15  and  C11_16 
REMARK    3  A    between atoms: C11_16  and  C12_18 
REMARK    4  A    between atoms: C12_18  and  C13_19 
REMARK    5  A    between atoms: C18_24  and  C19_25 
REMARK       I    between atoms: C19_25  and  N3_27 
REMARK    6  A    between atoms: N3_27  and  C20_29 
ROOT
HETATM    1  C3  UNL     1       7.639   9.318  22.382  1.00  0.00     0.184 C 
HETATM    2  C4  UNL     1       6.740  10.508  22.221  1.00  0.00     0.027 A 
HETATM    3  C5  UNL     1       5.306  10.064  22.032  1.00  0.00     0.009 A 
HETATM    4  C6  UNL     1       5.331  10.681  20.660  1.00  0.00     0.011 A 
HETATM    5  C7  UNL     1       6.745  11.163  20.914  1.00  0.00    -0.024 A 
HETATM    6  C9  UNL     1       7.748  10.693  19.920  1.00  0.00     0.030 C 
HETATM    7  C10 UNL     1       7.985   9.225  19.892  1.00  0.00     0.127 C 
HETATM    8  N2  UNL     1       7.851   8.588  21.169  1.00  0.00    -0.338 N 
HETATM    9  C11 UNL     1       7.940   7.146  21.186  1.00  0.00     0.221 C 
HETATM   10  O2  UNL     1       7.823   6.588  22.307  1.00  0.00    -0.273 OA
ENDROOT
BRANCH   9  11
HETATM   11  C12 UNL     1       8.157   6.368  19.973  1.00  0.00     0.108 C 
BRANCH  11  12
HETATM   12  C13 UNL     1       7.072   5.465  19.533  1.00  0.00     0.007 C 
HETATM   13  C14 UNL     1       5.716   6.087  19.520  1.00  0.00     0.006 C 
HETATM   14  C15 UNL     1       5.579   7.148  18.442  1.00  0.00     0.000 C 
HETATM   15  C16 UNL     1       6.202   6.711  17.136  1.00  0.00     0.001 C 
HETATM   16  C17 UNL     1       6.335   5.215  17.178  1.00  0.00     0.014 C 
HETATM   17  C18 UNL     1       7.399   4.829  18.177  1.00  0.00     0.082 C 
BRANCH  17  18
HETATM   18  C19 UNL     1       7.451   3.352  18.252  1.00  0.00     0.222 C 
HETATM   19  O3  UNL     1       6.379   2.717  18.403  1.00  0.00    -0.273 OA
HETATM   20  N3  UNL     1       8.703   2.664  18.155  1.00  0.00    -0.353 N 
ATOM     21  H3  UNL     1       9.564   3.196  18.033  1.00  0.00     0.163 HD
BRANCH  20  22
HETATM   22  C20 UNL     1       8.755   1.233  18.229  1.00  0.00     0.022 C 
HETATM   23  C21 UNL     1      10.189   0.765  18.187  1.00  0.00     0.037 C 
HETATM   24  C22 UNL     1       8.104   0.709  19.512  1.00  0.00     0.037 C 
HETATM   25  C23 UNL     1       8.051   0.580  17.044  1.00  0.00     0.037 C 
ENDBRANCH  20  22
ENDBRANCH  17  18
ENDBRANCH  11  12
ENDBRANCH   9  11
BRANCH   1  26
HETATM   26  C2  UNL     1       8.917   9.663  23.053  1.00  0.00     0.240 C 
HETATM   27  N1  UNL     1       9.735   8.625  23.562  1.00  0.00    -0.364 N 
HETATM   28  C1  UNL     1      11.000   8.892  24.230  1.00  0.00     0.149 C 
ATOM     29  H1  UNL     1       9.427   7.658  23.457  1.00  0.00     0.161 HD
HETATM   30  O1  UNL     1       9.320  10.847  23.195  1.00  0.00    -0.271 OA
ENDBRANCH   1  26
BRANCH   5  31
HETATM   31  C8  UNL     1       6.732  12.698  20.931  1.00  0.00     0.095 C 
HETATM   32 BR1  UNL     1       8.516  13.370  20.599  1.00  0.00    -0.096 Br
ENDBRANCH   5  31
TORSDOF 6
ENDMDL
MODEL 3
REMARK VINA RESULT: -7.896980516      2.078      3.683
REMARK  6 active torsions:
REMARK  status: ('A' for Active; 'I' for Inactive)
REMARK       I    between atoms: N1_2  and  C2_4 
REMARK    1  A    between atoms: C2_4  and  C3_6 
REMARK    2  A    between atoms: C7_10  and  C8_11 
REMARK       I    between atoms: N2_15  and  C11_16 
REMARK    3  A    between atoms: C11_16  and  C12_18 
REMARK    4  A    between atoms: C12_18  and  C13_19 
REMARK    5  A    between atoms: C18_24  and  C19_25 
REMARK       I    between atoms: C19_25  and  N3_27 
REMARK    6  A    between atoms: N3_27  and  C20_29 
ROOT
HETATM    1  C3  UNL     1       7.628   9.275  22.247  1.00  0.00     0.184 C 
HETATM    2  C4  UNL     1       6.694  10.425  22.017  1.00  0.00     0.027 A 
HETATM    3  C5  UNL     1       5.287   9.923  21.777  1.00  0.00     0.009 A 
HETATM    4  C6  UNL     1       5.351  10.508  20.393  1.00  0.00     0.011 A 
HETATM    5  C7  UNL     1       6.733  11.049  20.695  1.00  0.00    -0.024 A 
HETATM    6  C9  UNL     1       7.796  10.595  19.758  1.00  0.00     0.030 C 
HETATM    7  C10 UNL     1       8.088   9.137  19.778  1.00  0.00     0.127 C 
HETATM    8  N2  UNL     1       7.922   8.525  21.063  1.00  0.00    -0.338 N 
HETATM    9  C11 UNL     1       8.064   7.088  21.121  1.00  0.00     0.221 C 
HETATM   10  O2  UNL     1       7.917   6.553  22.249  1.00  0.00    -0.273 OA
ENDROOT
BRANCH   9  11
HETATM   11  C12 UNL     1       8.363   6.291  19.937  1.00  0.00     0.108 C 
BRANCH  11  12
HETATM   12  C13 UNL     1       7.300   5.404  19.420  1.00  0.00     0.007 C 
HETATM   13  C14 UNL     1       7.522   4.918  18.027  1.00  0.00     0.006 C 
HETATM   14  C15 UNL     1       8.689   3.951  17.933  1.00  0.00     0.000 C 
HETATM   15  C16 UNL     1       8.692   2.955  19.070  1.00  0.00     0.001 C 
HETATM   16  C17 UNL     1       7.308   2.934  19.655  1.00  0.00     0.014 C 
HETATM   17  C18 UNL     1       7.044   4.233  20.377  1.00  0.00     0.082 C 
BRANCH  17  18
HETATM   18  C19 UNL     1       5.649   4.214  20.873  1.00  0.00     0.222 C 
HETATM   19  O3  UNL     1       4.819   3.459  20.311  1.00  0.00    -0.273 OA
HETATM   20  N3  UNL     1       5.258   5.042  21.973  1.00  0.00    -0.353 N 
ATOM     21  H3  UNL     1       5.946   5.650  22.417  1.00  0.00     0.163 HD
BRANCH  20  22
HETATM   22  C20 UNL     1       3.908   5.026  22.454  1.00  0.00     0.022 C 
HETATM   23  C21 UNL     1       3.756   5.992  23.603  1.00  0.00     0.037 C 
HETATM   24  C22 UNL     1       2.912   5.406  21.356  1.00  0.00     0.037 C 
HETATM   25  C23 UNL     1       3.515   3.652  22.988  1.00  0.00     0.037 C 
ENDBRANCH  20  22
ENDBRANCH  17  18
ENDBRANCH  11  12
ENDBRANCH   9  11
BRANCH   1  26
HETATM   26  C2  UNL     1       8.862   9.684  22.965  1.00  0.00     0.240 C 
HETATM   27  N1  UNL     1       9.747   8.689  23.445  1.00  0.00    -0.364 N 
HETATM   28  C1  UNL     1      10.973   9.020  24.155  1.00  0.00     0.149 C 
ATOM     29  H1  UNL     1       9.517   7.707  23.288  1.00  0.00     0.161 HD
HETATM   30  O1  UNL     1       9.169  10.888  23.170  1.00  0.00    -0.271 OA
ENDBRANCH   1  26
BRANCH   5  31
HETATM   31  C8  UNL     1       6.662  12.583  20.673  1.00  0.00     0.095 C 
HETATM   32 BR1  UNL     1       8.451  13.318  20.613  1.00  0.00    -0.096 Br
ENDBRANCH   5  31
TORSDOF 6
ENDMDL
MODEL 4
REMARK VINA RESULT: -7.716352146      2.913      5.279
REMARK  6 active torsions:
REMARK  status: ('A' for Active; 'I' for Inactive)
REMARK       I    between atoms: N1_2  and  C2_4 
REMARK    1  A    between atoms: C2_4  and  C3_6 
REMARK    2  A    between atoms: C7_10  and  C8_11 
REMARK       I    between atoms: N2_15  and  C11_16 
REMARK    3  A    between atoms: C11_16  and  C12_18 
REMARK    4  A    between atoms: C12_18  and  C13_19 
REMARK    5  A    between atoms: C18_24  and  C19_25 
REMARK       I    between atoms: C19_25  and  N3_27 
REMARK    6  A    between atoms: N3_27  and  C20_29 
ROOT
HETATM    1  C3  UNL     1       6.591   7.141  19.012  1.00  0.00     0.184 C 
HETATM    2  C4  UNL     1       7.059   8.345  19.774  1.00  0.00     0.027 A 
HETATM    3  C5  UNL     1       8.341   8.882  19.176  1.00  0.00     0.009 A 
HETATM    4  C6  UNL     1       9.037   8.566  20.472  1.00  0.00     0.011 A 
HETATM    5  C7  UNL     1       7.720   8.096  21.054  1.00  0.00    -0.024 A 
HETATM    6  C9  UNL     1       7.728   6.696  21.556  1.00  0.00     0.030 C 
HETATM    7  C10 UNL     1       7.934   5.645  20.524  1.00  0.00     0.127 C 
HETATM    8  N2  UNL     1       7.382   5.970  19.242  1.00  0.00    -0.338 N 
HETATM    9  C11 UNL     1       7.662   5.050  18.163  1.00  0.00     0.221 C 
HETATM   10  O2  UNL     1       7.178   5.336  17.039  1.00  0.00    -0.273 OA
ENDROOT
BRANCH   9  11
HETATM   11  C12 UNL     1       8.463   3.847  18.358  1.00  0.00     0.108 C 
BRANCH  11  12
HETATM   12  C13 UNL     1       8.547   2.889  17.236  1.00  0.00     0.007 C 
HETATM   13  C14 UNL     1       9.862   2.194  17.112  1.00  0.00     0.006 C 
HETATM   14  C15 UNL     1      10.114   1.227  18.256  1.00  0.00     0.000 C 
HETATM   15  C16 UNL     1       8.883   0.419  18.594  1.00  0.00     0.001 C 
HETATM   16  C17 UNL     1       7.960   0.484  17.410  1.00  0.00     0.014 C 
HETATM   17  C18 UNL     1       7.395   1.879  17.286  1.00  0.00     0.082 C 
BRANCH  17  18
HETATM   18  C19 UNL     1       6.554   1.932  16.069  1.00  0.00     0.222 C 
HETATM   19  O3  UNL     1       5.744   0.999  15.852  1.00  0.00    -0.273 OA
HETATM   20  N3  UNL     1       6.666   3.031  15.157  1.00  0.00    -0.353 N 
ATOM     21  H3  UNL     1       7.330   3.781  15.349  1.00  0.00     0.163 HD
BRANCH  20  22
HETATM   22  C20 UNL     1       5.854   3.085  13.977  1.00  0.00     0.022 C 
HETATM   23  C21 UNL     1       6.068   4.395  13.261  1.00  0.00     0.037 C 
HETATM   24  C22 UNL     1       6.178   1.939  13.015  1.00  0.00     0.037 C 
HETATM   25  C23 UNL     1       4.367   3.010  14.311  1.00  0.00     0.037 C 
ENDBRANCH  20  22
ENDBRANCH  17  18
ENDBRANCH  11  12
ENDBRANCH   9  11
BRANCH   1  26
HETATM   26  C2  UNL     1       5.143   6.878  19.205  1.00  0.00     0.240 C 
HETATM   27  N1  UNL     1       4.390   6.328  18.139  1.00  0.00    -0.364 N 
HETATM   28  C1  UNL     1       2.968   6.045  18.261  1.00  0.00     0.149 C 
ATOM     29  H1  UNL     1       4.860   6.124  17.257  1.00  0.00     0.161 HD
HETATM   30  O1  UNL     1       4.539   7.120  20.283  1.00  0.00    -0.271 OA
ENDBRANCH   1  26
BRANCH   5  31
HETATM   31  C8  UNL     1       7.339   9.042  22.202  1.00  0.00     0.095 C 
HETATM   32 BR1  UNL     1       7.236   8.049  23.859  1.00  0.00    -0.096 Br
ENDBRANCH   5  31
TORSDOF 6
ENDMDL
MODEL 5
REMARK VINA RESULT: -7.715567961      3.738      8.539
REMARK  6 active torsions:
REMARK  status: ('A' for Active; 'I' for Inactive)
REMARK       I    between atoms: N1_2  and  C2_4 
REMARK    1  A    between atoms: C2_4  and  C3_6 
REMARK    2  A    between atoms: C7_10  and  C8_11 
REMARK       I    between atoms: N2_15  and  C11_16 
REMARK    3  A    between atoms: C11_16  and  C12_18 
REMARK    4  A    between atoms: C12_18  and  C13_19 
REMARK    5  A    between atoms: C18_24  and  C19_25 
REMARK       I    between atoms: C19_25  and  N3_27 
REMARK    6  A    between atoms: N3_27  and  C20_29 
ROOT
HETATM    1  C3  UNL     1       6.853   3.006  17.298  1.00  0.00     0.184 C 
HETATM    2  C4  UNL     1       7.058   1.548  17.583  1.00  0.00     0.027 A 
HETATM    3  C5  UNL     1       6.444   1.179  18.916  1.00  0.00     0.009 A 
HETATM    4  C6  UNL     1       7.819   0.830  19.415  1.00  0.00     0.011 A 
HETATM    5  C7  UNL     1       8.386   1.149  18.047  1.00  0.00    -0.024 A 
HETATM    6  C9  UNL     1       9.450   2.189  18.043  1.00  0.00     0.030 C 
HETATM    7  C10 UNL     1       9.017   3.551  18.458  1.00  0.00     0.127 C 
HETATM    8  N2  UNL     1       7.667   3.869  18.099  1.00  0.00    -0.338 N 
HETATM    9  C11 UNL     1       7.145   5.125  18.587  1.00  0.00     0.221 C 
HETATM   10  O2  UNL     1       5.961   5.404  18.271  1.00  0.00    -0.273 OA
ENDROOT
BRANCH   9  11
HETATM   11  C12 UNL     1       7.944   6.031  19.404  1.00  0.00     0.108 C 
BRANCH  11  12
HETATM   12  C13 UNL     1       7.328   7.312  19.810  1.00  0.00     0.007 C 
HETATM   13  C14 UNL     1       6.810   7.334  21.209  1.00  0.00     0.006 C 
HETATM   14  C15 UNL     1       7.926   7.283  22.238  1.00  0.00     0.000 C 
HETATM   15  C16 UNL     1       9.081   8.184  21.866  1.00  0.00     0.001 C 
HETATM   16  C17 UNL     1       8.570   9.183  20.866  1.00  0.00     0.014 C 
HETATM   17  C18 UNL     1       8.281   8.487  19.558  1.00  0.00     0.082 C 
BRANCH  17  18
HETATM   18  C19 UNL     1       7.706   9.479  18.621  1.00  0.00     0.222 C 
HETATM   19  O3  UNL     1       8.085  10.672  18.699  1.00  0.00    -0.273 OA
HETATM   20  N3  UNL     1       6.736   9.080  17.647  1.00  0.00    -0.353 N 
ATOM     21  H3  UNL     1       6.440   8.105  17.598  1.00  0.00     0.163 HD
BRANCH  20  22
HETATM   22  C20 UNL     1       6.178  10.039  16.739  1.00  0.00     0.022 C 
HETATM   23  C21 UNL     1       5.058   9.411  15.947  1.00  0.00     0.037 C 
HETATM   24  C22 UNL     1       5.633  11.265  17.477  1.00  0.00     0.037 C 
HETATM   25  C23 UNL     1       7.209  10.523  15.724  1.00  0.00     0.037 C 
ENDBRANCH  20  22
ENDBRANCH  17  18
ENDBRANCH  11  12
ENDBRANCH   9  11
BRANCH   1  26
HETATM   26  C2  UNL     1       6.967   3.320  15.851  1.00  0.00     0.240 C 
HETATM   27  N1  UNL     1       6.531   4.582  15.379  1.00  0.00    -0.364 N 
HETATM   28  C1  UNL     1       6.615   4.955  13.976  1.00  0.00     0.149 C 
ATOM     29  H1  UNL     1       6.146   5.251  16.046  1.00  0.00     0.161 HD
HETATM   30  O1  UNL     1       7.440   2.513  15.009  1.00  0.00    -0.271 OA
ENDBRANCH   1  26
BRANCH   5  31
HETATM   31  C8  UNL     1       8.946  -0.148  17.447  1.00  0.00     0.095 C 
HETATM   32 BR1  UNL     1      10.828  -0.304  17.871  1.00  0.00    -0.096 Br
ENDBRANCH   5  31
TORSDOF 6
ENDMDL
