MODEL 1
REMARK VINA RESULT: -8.814985122      0.000      0.000
REMARK  7 active torsions:
REMARK  status: ('A' for Active; 'I' for Inactive)
REMARK    1  A    between atoms: C2_2  and  C3_3 
REMARK       I    between atoms: N1_7  and  C7_8 
REMARK       I    between atoms: C7_8  and  N2_10 
REMARK    2  A    between atoms: N2_10  and  C8_12 
REMARK       I    between atoms: N3_15  and  C11_16 
REMARK       I    between atoms: C11_16  and  N4_18 
REMARK    3  A    between atoms: N4_18  and  C12_20 
REMARK    4  A    between atoms: C12_20  and  C13_21 
REMARK    5  A    between atoms: C12_20  and  C22_34 
REMARK    6  A    between atoms: C13_21  and  O3_22 
REMARK    7  A    between atoms: C13_21  and  N5_24 
ROOT
HETATM    1  C8  UNL     1       8.659   9.335  22.205  1.00  0.00     0.105 C 
HETATM    2  C9  UNL     1       7.392  10.142  22.400  1.00  0.00     0.047 C 
HETATM    3  C10 UNL     1       6.346   9.028  22.355  1.00  0.00     0.129 C 
HETATM    4  N3  UNL     1       6.833   8.167  21.278  1.00  0.00    -0.332 N 
HETATM    5  C11 UNL     1       6.061   7.217  20.571  1.00  0.00     0.319 C 
HETATM    6  O2  UNL     1       4.854   7.074  20.863  1.00  0.00    -0.247 OA
HETATM    7  N4  UNL     1       6.638   6.451  19.562  1.00  0.00    -0.331 N 
ATOM      8  H4  UNL     1       7.626   6.601  19.355  1.00  0.00     0.165 HD
HETATM    9  C25 UNL     1       8.258   8.448  21.046  1.00  0.00     0.152 C 
ENDROOT
BRANCH   7  10
HETATM   10  C12 UNL     1       5.911   5.429  18.766  1.00  0.00     0.164 C 
BRANCH  10  11
HETATM   11  C13 UNL     1       6.853   4.773  17.877  1.00  0.00     0.137 C 
BRANCH  11  12
HETATM   12  O3  UNL     1       6.851   5.382  16.697  1.00  0.00    -0.348 OA
ATOM     13  H3  UNL     1       6.644   4.754  16.014  1.00  0.00     0.219 HD
ENDBRANCH  11  12
BRANCH  11  14
HETATM   14  N5  UNL     1       7.727   3.714  17.941  1.00  0.00    -0.363 N 
HETATM   15  C14 UNL     1       8.963   3.548  18.653  1.00  0.00     0.128 C 
HETATM   16  C15 UNL     1       9.951   2.683  17.868  1.00  0.00     0.064 C 
HETATM   17  C16 UNL     1       9.441   1.323  17.546  1.00  0.00     0.110 C 
HETATM   18  C17 UNL     1      10.118   0.196  18.283  1.00  0.00     0.053 C 
HETATM   19  F1  UNL     1       9.651   1.084  16.175  1.00  0.00    -0.242 F 
HETATM   20  C18 UNL     1       7.925   1.254  17.713  1.00  0.00     0.004 C 
HETATM   21  C19 UNL     1       7.457   0.115  16.830  1.00  0.00     0.020 C 
HETATM   22  C20 UNL     1       7.517   0.934  19.112  1.00  0.00     0.020 C 
HETATM   23  C21 UNL     1       7.334   2.506  17.157  1.00  0.00     0.136 C 
ENDBRANCH  11  14
ENDBRANCH  10  11
BRANCH  10  24
HETATM   24  C22 UNL     1       5.036   4.680  19.673  1.00  0.00     0.008 C 
HETATM   25  C23 UNL     1       4.261   3.582  18.866  1.00  0.00     0.012 C 
HETATM   26  C24 UNL     1       5.931   3.786  20.578  1.00  0.00     0.012 C 
ENDBRANCH  10  24
ENDBRANCH   7  10
BRANCH   1  27
HETATM   27  N2  UNL     1       9.034   8.610  23.378  1.00  0.00    -0.337 N 
HETATM   28  C7  UNL     1      10.289   8.825  24.036  1.00  0.00     0.319 C 
HETATM   29  N1  UNL     1      10.641   8.092  25.206  1.00  0.00    -0.330 N 
HETATM   30  O1  UNL     1      11.118   9.664  23.602  1.00  0.00    -0.247 OA
HETATM   31  C3  UNL     1      11.870   8.214  25.960  1.00  0.00     0.088 C 
HETATM   32  C6  UNL     1       9.793   7.088  25.833  1.00  0.00     0.128 C 
HETATM   33  C4  UNL     1      11.413   7.926  27.361  1.00  0.00     0.027 C 
HETATM   34  C5  UNL     1      10.383   6.833  27.194  1.00  0.00     0.022 C 
ATOM     35  H2  UNL     1       8.388   7.919  23.760  1.00  0.00     0.164 HD
BRANCH  31  36
HETATM   36  C2  UNL     1      12.893   7.185  25.499  1.00  0.00     0.021 C 
HETATM   37  C1  UNL     1      14.166   7.429  26.275  1.00  0.00     0.007 C 
ENDBRANCH  31  36
ENDBRANCH   1  27
TORSDOF 7
ENDMDL
MODEL 2
REMARK VINA RESULT: -8.667498373      1.214      1.943
REMARK  7 active torsions:
REMARK  status: ('A' for Active; 'I' for Inactive)
REMARK    1  A    between atoms: C2_2  and  C3_3 
REMARK       I    between atoms: N1_7  and  C7_8 
REMARK       I    between atoms: C7_8  and  N2_10 
REMARK    2  A    between atoms: N2_10  and  C8_12 
REMARK       I    between atoms: N3_15  and  C11_16 
REMARK       I    between atoms: C11_16  and  N4_18 
REMARK    3  A    between atoms: N4_18  and  C12_20 
REMARK    4  A    between atoms: C12_20  and  C13_21 
REMARK    5  A    between atoms: C12_20  and  C22_34 
REMARK    6  A    between atoms: C13_21  and  O3_22 
REMARK    7  A    between atoms: C13_21  and  N5_24 
ROOT
HETATM    1  C8  UNL     1       8.460   9.615  22.486  1.00  0.00     0.105 C 
HETATM    2  C9  UNL     1       7.098  10.222  22.750  1.00  0.00     0.047 C 
HETATM    3  C10 UNL     1       6.205   8.999  22.540  1.00  0.00     0.129 C 
HETATM    4  N3  UNL     1       6.809   8.353  21.375  1.00  0.00    -0.332 N 
HETATM    5  C11 UNL     1       6.172   7.410  20.536  1.00  0.00     0.319 C 
HETATM    6  O2  UNL     1       4.990   7.079  20.777  1.00  0.00    -0.247 OA
HETATM    7  N4  UNL     1       6.851   6.859  19.452  1.00  0.00    -0.331 N 
ATOM      8  H4  UNL     1       7.812   7.159  19.290  1.00  0.00     0.165 HD
HETATM    9  C25 UNL     1       8.187   8.840  21.216  1.00  0.00     0.152 C 
ENDROOT
BRANCH   7  10
HETATM   10  C12 UNL     1       6.269   5.863  18.516  1.00  0.00     0.164 C 
BRANCH  10  11
HETATM   11  C13 UNL     1       6.465   4.535  19.068  1.00  0.00     0.137 C 
BRANCH  11  12
HETATM   12  O3  UNL     1       6.039   4.507  20.326  1.00  0.00    -0.348 OA
ATOM     13  H3  UNL     1       6.735   4.194  20.892  1.00  0.00     0.219 HD
ENDBRANCH  11  12
BRANCH  11  14
HETATM   14  N5  UNL     1       6.961   3.328  18.635  1.00  0.00    -0.363 N 
HETATM   15  C14 UNL     1       6.301   2.167  18.108  1.00  0.00     0.128 C 
HETATM   16  C15 UNL     1       7.017   0.879  18.523  1.00  0.00     0.064 C 
HETATM   17  C16 UNL     1       8.439   0.812  18.092  1.00  0.00     0.110 C 
HETATM   18  C17 UNL     1       8.733  -0.199  17.013  1.00  0.00     0.053 C 
HETATM   19  F1  UNL     1       9.222   0.446  19.202  1.00  0.00    -0.242 F 
HETATM   20  C18 UNL     1       8.958   2.194  17.703  1.00  0.00     0.004 C 
HETATM   21  C19 UNL     1      10.463   2.139  17.870  1.00  0.00     0.020 C 
HETATM   22  C20 UNL     1       8.678   2.531  16.277  1.00  0.00     0.020 C 
HETATM   23  C21 UNL     1       8.446   3.184  18.695  1.00  0.00     0.136 C 
ENDBRANCH  11  14
ENDBRANCH  10  11
BRANCH  10  24
HETATM   24  C22 UNL     1       4.953   6.350  18.091  1.00  0.00     0.008 C 
HETATM   25  C23 UNL     1       5.132   7.457  16.995  1.00  0.00     0.012 C 
HETATM   26  C24 UNL     1       4.272   5.231  17.253  1.00  0.00     0.012 C 
ENDBRANCH  10  24
ENDBRANCH   7  10
BRANCH   1  27
HETATM   27  N2  UNL     1       8.916   8.800  23.568  1.00  0.00    -0.337 N 
HETATM   28  C7  UNL     1      10.194   9.001  24.185  1.00  0.00     0.319 C 
HETATM   29  N1  UNL     1      10.627   8.177  25.263  1.00  0.00    -0.330 N 
HETATM   30  O1  UNL     1      10.971   9.908  23.795  1.00  0.00    -0.247 OA
HETATM   31  C3  UNL     1      11.886   8.277  25.969  1.00  0.00     0.088 C 
HETATM   32  C6  UNL     1       9.845   7.088  25.831  1.00  0.00     0.128 C 
HETATM   33  C4  UNL     1      11.509   7.843  27.356  1.00  0.00     0.027 C 
HETATM   34  C5  UNL     1      10.509   6.731  27.134  1.00  0.00     0.022 C 
ATOM     35  H2  UNL     1       8.314   8.052  23.911  1.00  0.00     0.164 HD
BRANCH  31  36
HETATM   36  C2  UNL     1      12.921   7.335  25.368  1.00  0.00     0.021 C 
HETATM   37  C1  UNL     1      14.144   7.378  26.252  1.00  0.00     0.007 C 
ENDBRANCH  31  36
ENDBRANCH   1  27
TORSDOF 7
ENDMDL
MODEL 3
REMARK VINA RESULT: -8.366710825      0.954      1.546
REMARK  7 active torsions:
REMARK  status: ('A' for Active; 'I' for Inactive)
REMARK    1  A    between atoms: C2_2  and  C3_3 
REMARK       I    between atoms: N1_7  and  C7_8 
REMARK       I    between atoms: C7_8  and  N2_10 
REMARK    2  A    between atoms: N2_10  and  C8_12 
REMARK       I    between atoms: N3_15  and  C11_16 
REMARK       I    between atoms: C11_16  and  N4_18 
REMARK    3  A    between atoms: N4_18  and  C12_20 
REMARK    4  A    between atoms: C12_20  and  C13_21 
REMARK    5  A    between atoms: C12_20  and  C22_34 
REMARK    6  A    between atoms: C13_21  and  O3_22 
REMARK    7  A    between atoms: C13_21  and  N5_24 
ROOT
HETATM    1  C8  UNL     1       8.370   9.095  22.438  1.00  0.00     0.105 C 
HETATM    2  C9  UNL     1       7.095   9.857  22.735  1.00  0.00     0.047 C 
HETATM    3  C10 UNL     1       6.102   8.700  22.846  1.00  0.00     0.129 C 
HETATM    4  N3  UNL     1       6.512   7.813  21.758  1.00  0.00    -0.332 N 
HETATM    5  C11 UNL     1       5.714   6.802  21.176  1.00  0.00     0.319 C 
HETATM    6  O2  UNL     1       4.552   6.622  21.601  1.00  0.00    -0.247 OA
HETATM    7  N4  UNL     1       6.216   6.016  20.142  1.00  0.00    -0.331 N 
ATOM      8  H4  UNL     1       7.169   6.197  19.826  1.00  0.00     0.165 HD
HETATM    9  C25 UNL     1       7.890   8.142  21.365  1.00  0.00     0.152 C 
ENDROOT
BRANCH   7  10
HETATM   10  C12 UNL     1       5.457   4.931  19.470  1.00  0.00     0.164 C 
BRANCH  10  11
HETATM   11  C13 UNL     1       6.264   4.399  18.386  1.00  0.00     0.137 C 
BRANCH  11  12
HETATM   12  O3  UNL     1       6.475   5.347  17.480  1.00  0.00    -0.348 OA
ATOM     13  H3  UNL     1       6.199   5.038  16.625  1.00  0.00     0.219 HD
ENDBRANCH  11  12
BRANCH  11  14
HETATM   14  N5  UNL     1       6.854   3.199  18.066  1.00  0.00    -0.363 N 
HETATM   15  C14 UNL     1       6.323   2.018  17.446  1.00  0.00     0.128 C 
HETATM   16  C15 UNL     1       6.977   0.751  18.000  1.00  0.00     0.064 C 
HETATM   17  C16 UNL     1       8.455   0.710  17.833  1.00  0.00     0.110 C 
HETATM   18  C17 UNL     1       8.958  -0.305  16.839  1.00  0.00     0.053 C 
HETATM   19  F1  UNL     1       9.032   0.373  19.071  1.00  0.00    -0.242 F 
HETATM   20  C18 UNL     1       9.008   2.100  17.525  1.00  0.00     0.004 C 
HETATM   21  C19 UNL     1      10.459   2.080  17.961  1.00  0.00     0.020 C 
HETATM   22  C20 UNL     1       8.983   2.416  16.067  1.00  0.00     0.020 C 
HETATM   23  C21 UNL     1       8.306   3.088  18.395  1.00  0.00     0.136 C 
ENDBRANCH  11  14
ENDBRANCH  10  11
BRANCH  10  24
HETATM   24  C22 UNL     1       4.870   4.074  20.504  1.00  0.00     0.008 C 
HETATM   25  C23 UNL     1       3.853   3.079  19.847  1.00  0.00     0.012 C 
HETATM   26  C24 UNL     1       5.965   3.080  20.987  1.00  0.00     0.012 C 
ENDBRANCH  10  24
ENDBRANCH   7  10
BRANCH   1  27
HETATM   27  N2  UNL     1       8.899   8.439  23.592  1.00  0.00    -0.337 N 
HETATM   28  C7  UNL     1      10.194   8.753  24.118  1.00  0.00     0.319 C 
HETATM   29  N1  UNL     1      10.700   8.088  25.272  1.00  0.00    -0.330 N 
HETATM   30  O1  UNL     1      10.924   9.623  23.579  1.00  0.00    -0.247 OA
HETATM   31  C3  UNL     1      11.984   8.312  25.899  1.00  0.00     0.088 C 
HETATM   32  C6  UNL     1       9.979   7.060  26.010  1.00  0.00     0.128 C 
HETATM   33  C4  UNL     1      11.681   8.050  27.346  1.00  0.00     0.027 C 
HETATM   34  C5  UNL     1      10.710   6.892  27.315  1.00  0.00     0.022 C 
ATOM     35  H2  UNL     1       8.336   7.726  24.056  1.00  0.00     0.164 HD
BRANCH  31  36
HETATM   36  C2  UNL     1      13.023   7.329  25.375  1.00  0.00     0.021 C 
HETATM   37  C1  UNL     1      14.212   7.384  26.303  1.00  0.00     0.007 C 
ENDBRANCH  31  36
ENDBRANCH   1  27
TORSDOF 7
ENDMDL
MODEL 4
REMARK VINA RESULT: -8.338766718      2.831      4.569
REMARK  7 active torsions:
REMARK  status: ('A' for Active; 'I' for Inactive)
REMARK    1  A    between atoms: C2_2  and  C3_3 
REMARK       I    between atoms: N1_7  and  C7_8 
REMARK       I    between atoms: C7_8  and  N2_10 
REMARK    2  A    between atoms: N2_10  and  C8_12 
REMARK       I    between atoms: N3_15  and  C11_16 
REMARK       I    between atoms: C11_16  and  N4_18 
REMARK    3  A    between atoms: N4_18  and  C12_20 
REMARK    4  A    between atoms: C12_20  and  C13_21 
REMARK    5  A    between atoms: C12_20  and  C22_34 
REMARK    6  A    between atoms: C13_21  and  O3_22 
REMARK    7  A    between atoms: C13_21  and  N5_24 
ROOT
HETATM    1  C8  UNL     1       7.921   7.424  22.894  1.00  0.00     0.105 C 
HETATM    2  C9  UNL     1       8.965   8.345  22.296  1.00  0.00     0.047 C 
HETATM    3  C10 UNL     1       8.238   8.799  21.029  1.00  0.00     0.129 C 
HETATM    4  N3  UNL     1       7.598   7.570  20.564  1.00  0.00    -0.332 N 
HETATM    5  C11 UNL     1       7.124   7.335  19.253  1.00  0.00     0.319 C 
HETATM    6  O2  UNL     1       7.248   8.232  18.390  1.00  0.00    -0.247 OA
HETATM    7  N4  UNL     1       6.527   6.120  18.926  1.00  0.00    -0.331 N 
ATOM      8  H4  UNL     1       6.447   5.416  19.659  1.00  0.00     0.165 HD
HETATM    9  C25 UNL     1       7.525   6.614  21.679  1.00  0.00     0.152 C 
ENDROOT
BRANCH   7  10
HETATM   10  C12 UNL     1       5.999   5.781  17.580  1.00  0.00     0.164 C 
BRANCH  10  11
HETATM   11  C13 UNL     1       6.917   4.858  16.937  1.00  0.00     0.137 C 
BRANCH  11  12
HETATM   12  O3  UNL     1       7.006   5.145  15.644  1.00  0.00    -0.348 OA
ATOM     13  H3  UNL     1       6.402   4.599  15.153  1.00  0.00     0.219 HD
ENDBRANCH  11  12
BRANCH  11  14
HETATM   14  N5  UNL     1       7.700   3.792  17.314  1.00  0.00    -0.363 N 
HETATM   15  C14 UNL     1       8.782   3.697  18.252  1.00  0.00     0.128 C 
HETATM   16  C15 UNL     1       9.835   2.686  17.793  1.00  0.00     0.064 C 
HETATM   17  C16 UNL     1       9.306   1.311  17.590  1.00  0.00     0.110 C 
HETATM   18  C17 UNL     1       9.775   0.291  18.595  1.00  0.00     0.053 C 
HETATM   19  F1  UNL     1       9.733   0.853  16.331  1.00  0.00    -0.242 F 
HETATM   20  C18 UNL     1       7.782   1.322  17.491  1.00  0.00     0.004 C 
HETATM   21  C19 UNL     1       7.403   0.075  16.717  1.00  0.00     0.020 C 
HETATM   22  C20 UNL     1       7.120   1.239  18.826  1.00  0.00     0.020 C 
HETATM   23  C21 UNL     1       7.374   2.491  16.659  1.00  0.00     0.136 C 
ENDBRANCH  11  14
ENDBRANCH  10  11
BRANCH  10  24
HETATM   24  C22 UNL     1       4.566   5.501  17.708  1.00  0.00     0.008 C 
HETATM   25  C23 UNL     1       4.277   4.879  19.118  1.00  0.00     0.012 C 
HETATM   26  C24 UNL     1       3.818   6.859  17.841  1.00  0.00     0.012 C 
ENDBRANCH  10  24
ENDBRANCH   7  10
BRANCH   1  27
HETATM   27  N2  UNL     1       6.835   8.138  23.487  1.00  0.00    -0.337 N 
HETATM   28  C7  UNL     1       5.671   7.470  23.992  1.00  0.00     0.319 C 
HETATM   29  N1  UNL     1       4.601   8.202  24.581  1.00  0.00    -0.330 N 
HETATM   30  O1  UNL     1       5.559   6.220  23.929  1.00  0.00    -0.247 OA
HETATM   31  C3  UNL     1       3.379   7.650  25.125  1.00  0.00     0.088 C 
HETATM   32  C6  UNL     1       4.579   9.651  24.729  1.00  0.00     0.128 C 
HETATM   33  C4  UNL     1       3.068   8.605  26.241  1.00  0.00     0.027 C 
HETATM   34  C5  UNL     1       3.461   9.956  25.689  1.00  0.00     0.022 C 
ATOM     35  H2  UNL     1       6.889   9.154  23.554  1.00  0.00     0.164 HD
BRANCH  31  36
HETATM   36  C2  UNL     1       2.270   7.654  24.082  1.00  0.00     0.021 C 
HETATM   37  C1  UNL     1       0.987   7.268  24.778  1.00  0.00     0.007 C 
ENDBRANCH  31  36
ENDBRANCH   1  27
TORSDOF 7
ENDMDL
MODEL 5
REMARK VINA RESULT: -8.280497674      2.486      3.608
REMARK  7 active torsions:
REMARK  status: ('A' for Active; 'I' for Inactive)
REMARK    1  A    between atoms: C2_2  and  C3_3 
REMARK       I    between atoms: N1_7  and  C7_8 
REMARK       I    between atoms: C7_8  and  N2_10 
REMARK    2  A    between atoms: N2_10  and  C8_12 
REMARK       I    between atoms: N3_15  and  C11_16 
REMARK       I    between atoms: C11_16  and  N4_18 
REMARK    3  A    between atoms: N4_18  and  C12_20 
REMARK    4  A    between atoms: C12_20  and  C13_21 
REMARK    5  A    between atoms: C12_20  and  C22_34 
REMARK    6  A    between atoms: C13_21  and  O3_22 
REMARK    7  A    between atoms: C13_21  and  N5_24 
ROOT
HETATM    1  C8  UNL     1       6.892   9.673  19.458  1.00  0.00     0.105 C 
HETATM    2  C9  UNL     1       5.455  10.137  19.340  1.00  0.00     0.047 C 
HETATM    3  C10 UNL     1       4.760   8.808  19.039  1.00  0.00     0.129 C 
HETATM    4  N3  UNL     1       5.687   8.159  18.112  1.00  0.00    -0.332 N 
HETATM    5  C11 UNL     1       5.365   7.097  17.237  1.00  0.00     0.319 C 
HETATM    6  O2  UNL     1       4.197   6.649  17.225  1.00  0.00    -0.247 OA
HETATM    7  N4  UNL     1       6.335   6.557  16.397  1.00  0.00    -0.331 N 
ATOM      8  H4  UNL     1       7.274   6.953  16.438  1.00  0.00     0.165 HD
HETATM    9  C25 UNL     1       7.010   8.790  18.236  1.00  0.00     0.152 C 
ENDROOT
BRANCH   7  10
HETATM   10  C12 UNL     1       6.095   5.441  15.447  1.00  0.00     0.164 C 
BRANCH  10  11
HETATM   11  C13 UNL     1       5.882   4.221  16.204  1.00  0.00     0.137 C 
BRANCH  11  12
HETATM   12  O3  UNL     1       4.580   4.025  16.377  1.00  0.00    -0.348 OA
ATOM     13  H3  UNL     1       4.443   3.358  17.040  1.00  0.00     0.219 HD
ENDBRANCH  11  12
BRANCH  11  14
HETATM   14  N5  UNL     1       6.661   3.239  16.771  1.00  0.00    -0.363 N 
HETATM   15  C14 UNL     1       7.447   2.194  16.178  1.00  0.00     0.128 C 
HETATM   16  C15 UNL     1       7.447   0.933  17.045  1.00  0.00     0.064 C 
HETATM   17  C16 UNL     1       7.965   1.146  18.423  1.00  0.00     0.110 C 
HETATM   18  C17 UNL     1       9.296   0.503  18.713  1.00  0.00     0.053 C 
HETATM   19  F1  UNL     1       7.047   0.588  19.332  1.00  0.00    -0.242 F 
HETATM   20  C18 UNL     1       7.987   2.632  18.774  1.00  0.00     0.004 C 
HETATM   21  C19 UNL     1       7.932   2.707  20.286  1.00  0.00     0.020 C 
HETATM   22  C20 UNL     1       9.246   3.305  18.338  1.00  0.00     0.020 C 
HETATM   23  C21 UNL     1       6.732   3.255  18.262  1.00  0.00     0.136 C 
ENDBRANCH  11  14
ENDBRANCH  10  11
BRANCH  10  24
HETATM   24  C22 UNL     1       5.151   5.906  14.426  1.00  0.00     0.008 C 
HETATM   25  C23 UNL     1       5.650   7.268  13.831  1.00  0.00     0.012 C 
HETATM   26  C24 UNL     1       5.294   4.985  13.180  1.00  0.00     0.012 C 
ENDBRANCH  10  24
ENDBRANCH   7  10
BRANCH   1  27
HETATM   27  N2  UNL     1       7.148   8.989  20.686  1.00  0.00    -0.337 N 
HETATM   28  C7  UNL     1       7.953   9.564  21.724  1.00  0.00     0.319 C 
HETATM   29  N1  UNL     1       8.193   8.863  22.941  1.00  0.00    -0.330 N 
HETATM   30  O1  UNL     1       8.471  10.701  21.592  1.00  0.00    -0.247 OA
HETATM   31  C3  UNL     1       8.982   9.331  24.060  1.00  0.00     0.088 C 
HETATM   32  C6  UNL     1       7.664   7.542  23.247  1.00  0.00     0.128 C 
HETATM   33  C4  UNL     1       8.276   8.708  25.229  1.00  0.00     0.027 C 
HETATM   34  C5  UNL     1       7.865   7.343  24.726  1.00  0.00     0.022 C 
ATOM     35  H2  UNL     1       6.746   8.062  20.829  1.00  0.00     0.164 HD
BRANCH  31  36
HETATM   36  C2  UNL     1      10.416   8.828  23.960  1.00  0.00     0.021 C 
HETATM   37  C1  UNL     1      11.050   8.986  25.321  1.00  0.00     0.007 C 
ENDBRANCH  31  36
ENDBRANCH   1  27
TORSDOF 7
ENDMDL
