MODEL 1
REMARK VINA RESULT: -9.521461373      0.000      0.000
REMARK  7 active torsions:
REMARK  status: ('A' for Active; 'I' for Inactive)
REMARK       I    between atoms: C2_2  and  N1_4 
REMARK    1  A    between atoms: N1_4  and  C3_6 
REMARK    2  A    between atoms: N2_9  and  C6_10 
REMARK    3  A    between atoms: C6_10  and  O2_11 
REMARK    4  A    between atoms: C7_13  and  N3_14 
REMARK       I    between atoms: N3_14  and  C8_16 
REMARK    5  A    between atoms: C8_16  and  C9_18 
REMARK    6  A    between atoms: C9_18  and  C10_19 
REMARK    7  A    between atoms: C21_30  and  C22_31 
ROOT
HETATM    1  C6  UNL     1       8.688   8.804  20.520  1.00  0.00     0.153 C 
HETATM    2  C7  UNL     1       8.729   7.731  19.574  1.00  0.00     0.146 C 
ENDROOT
BRANCH   1   3
HETATM    3  N2  UNL     1       8.458   8.846  21.889  1.00  0.00    -0.360 N 
HETATM    4  C5  UNL     1       9.538   9.463  22.715  1.00  0.00     0.127 C 
HETATM    5  C4  UNL     1       8.997   9.779  24.064  1.00  0.00     0.045 C 
HETATM    6  C3  UNL     1       8.531   8.526  24.784  1.00  0.00     0.092 C 
HETATM    7  C21 UNL     1       7.687   7.665  23.891  1.00  0.00     0.036 C 
HETATM    8  C20 UNL     1       7.328   8.309  22.560  1.00  0.00     0.132 C 
BRANCH   6   9
HETATM    9  N1  UNL     1       9.711   7.775  25.183  1.00  0.00    -0.356 N 
HETATM   10  C2  UNL     1       9.884   7.383  26.528  1.00  0.00     0.213 C 
HETATM   11  C1  UNL     1      11.067   6.621  26.969  1.00  0.00     0.117 C 
HETATM   12  O1  UNL     1       9.010   7.685  27.392  1.00  0.00    -0.274 OA
ATOM     13  H1  UNL     1      10.416   7.530  24.489  1.00  0.00     0.162 HD
ENDBRANCH   6   9
BRANCH   7  14
HETATM   14  C22 UNL     1       6.365   7.301  24.562  1.00  0.00     0.093 C 
HETATM   15 BR1  UNL     1       5.142   8.790  24.559  1.00  0.00    -0.096 Br
ENDBRANCH   7  14
ENDBRANCH   1   3
BRANCH   1  16
HETATM   16  O2  UNL     1       8.918   9.981  19.983  1.00  0.00    -0.345 OA
ATOM     17  H2  UNL     1       9.707  10.015  19.456  1.00  0.00     0.219 HD
ENDBRANCH   1  16
BRANCH   2  18
HETATM   18  N3  UNL     1       8.386   6.405  19.868  1.00  0.00    -0.333 N 
HETATM   19  C8  UNL     1       7.645   5.550  18.960  1.00  0.00     0.222 C 
HETATM   20  O3  UNL     1       7.291   5.986  17.841  1.00  0.00    -0.273 OA
ATOM     21  H3  UNL     1       8.672   6.020  20.768  1.00  0.00     0.168 HD
BRANCH  19  22
HETATM   22  C9  UNL     1       7.309   4.175  19.346  1.00  0.00     0.112 C 
BRANCH  22  23
HETATM   23  C10 UNL     1       7.967   3.072  18.601  1.00  0.00    -0.031 C 
HETATM   24  C11 UNL     1       7.879   1.789  19.482  1.00  0.00     0.014 C 
HETATM   25  C12 UNL     1       8.523   0.652  18.756  1.00  0.00    -0.013 C 
HETATM   26  C13 UNL     1       7.754   0.390  17.457  1.00  0.00     0.009 C 
HETATM   27  C17 UNL     1       9.954   0.889  18.384  1.00  0.00     0.009 C 
HETATM   28  C14 UNL     1       7.845   1.600  16.574  1.00  0.00    -0.013 C 
HETATM   29  C15 UNL     1       9.248   2.043  16.278  1.00  0.00     0.009 C 
HETATM   30  C19 UNL     1       7.190   2.755  17.349  1.00  0.00     0.014 C 
HETATM   31  C16 UNL     1      10.018   2.150  17.567  1.00  0.00    -0.013 C 
HETATM   32  C18 UNL     1       9.432   3.280  18.389  1.00  0.00     0.014 C 
ENDBRANCH  22  23
ENDBRANCH  19  22
ENDBRANCH   2  18
TORSDOF 7
ENDMDL
MODEL 2
REMARK VINA RESULT: -9.360500960      0.077      1.358
REMARK  7 active torsions:
REMARK  status: ('A' for Active; 'I' for Inactive)
REMARK       I    between atoms: C2_2  and  N1_4 
REMARK    1  A    between atoms: N1_4  and  C3_6 
REMARK    2  A    between atoms: N2_9  and  C6_10 
REMARK    3  A    between atoms: C6_10  and  O2_11 
REMARK    4  A    between atoms: C7_13  and  N3_14 
REMARK       I    between atoms: N3_14  and  C8_16 
REMARK    5  A    between atoms: C8_16  and  C9_18 
REMARK    6  A    between atoms: C9_18  and  C10_19 
REMARK    7  A    between atoms: C21_30  and  C22_31 
ROOT
HETATM    1  C6  UNL     1       8.703   8.772  20.507  1.00  0.00     0.153 C 
HETATM    2  C7  UNL     1       8.729   7.687  19.574  1.00  0.00     0.146 C 
ENDROOT
BRANCH   1   3
HETATM    3  N2  UNL     1       8.480   8.833  21.877  1.00  0.00    -0.360 N 
HETATM    4  C5  UNL     1       9.567   9.455  22.689  1.00  0.00     0.127 C 
HETATM    5  C4  UNL     1       9.034   9.792  24.037  1.00  0.00     0.045 C 
HETATM    6  C3  UNL     1       8.565   8.551  24.775  1.00  0.00     0.092 C 
HETATM    7  C21 UNL     1       7.713   7.683  23.897  1.00  0.00     0.036 C 
HETATM    8  C20 UNL     1       7.350   8.311  22.560  1.00  0.00     0.132 C 
BRANCH   6   9
HETATM    9  N1  UNL     1       9.743   7.799  25.179  1.00  0.00    -0.356 N 
HETATM   10  C2  UNL     1       9.903   7.395  26.521  1.00  0.00     0.213 C 
HETATM   11  C1  UNL     1      11.084   6.631  26.967  1.00  0.00     0.117 C 
HETATM   12  O1  UNL     1       9.020   7.686  27.380  1.00  0.00    -0.274 OA
ATOM     13  H1  UNL     1      10.456   7.562  24.489  1.00  0.00     0.162 HD
ENDBRANCH   6   9
BRANCH   7  14
HETATM   14  C22 UNL     1       6.391   7.335  24.580  1.00  0.00     0.093 C 
HETATM   15 BR1  UNL     1       5.186   8.838  24.585  1.00  0.00    -0.096 Br
ENDBRANCH   7  14
ENDBRANCH   1   3
BRANCH   1  16
HETATM   16  O2  UNL     1       8.944   9.939  19.955  1.00  0.00    -0.345 OA
ATOM     17  H2  UNL     1       9.253   9.884  19.059  1.00  0.00     0.219 HD
ENDBRANCH   1  16
BRANCH   2  18
HETATM   18  N3  UNL     1       8.372   6.368  19.886  1.00  0.00    -0.333 N 
HETATM   19  C8  UNL     1       7.625   5.508  18.989  1.00  0.00     0.222 C 
HETATM   20  O3  UNL     1       7.277   5.931  17.864  1.00  0.00    -0.273 OA
ATOM     21  H3  UNL     1       8.654   5.994  20.792  1.00  0.00     0.168 HD
BRANCH  19  22
HETATM   22  C9  UNL     1       7.276   4.142  19.393  1.00  0.00     0.112 C 
BRANCH  22  23
HETATM   23  C10 UNL     1       7.863   3.022  18.615  1.00  0.00    -0.031 C 
HETATM   24  C11 UNL     1       9.366   3.352  18.374  1.00  0.00     0.014 C 
HETATM   25  C12 UNL     1       9.994   2.236  17.600  1.00  0.00    -0.013 C 
HETATM   26  C13 UNL     1       9.915   0.950  18.427  1.00  0.00     0.009 C 
HETATM   27  C17 UNL     1       9.340   1.956  16.282  1.00  0.00     0.009 C 
HETATM   28  C14 UNL     1       8.476   0.590  18.653  1.00  0.00    -0.013 C 
HETATM   29  C15 UNL     1       7.669   0.459  17.394  1.00  0.00     0.009 C 
HETATM   30  C19 UNL     1       7.853   1.758  19.436  1.00  0.00     0.014 C 
HETATM   31  C16 UNL     1       7.884   1.678  16.537  1.00  0.00    -0.013 C 
HETATM   32  C18 UNL     1       7.287   2.878  17.243  1.00  0.00     0.014 C 
ENDBRANCH  22  23
ENDBRANCH  19  22
ENDBRANCH   2  18
TORSDOF 7
ENDMDL
MODEL 3
REMARK VINA RESULT: -9.331853043      0.101      1.379
REMARK  7 active torsions:
REMARK  status: ('A' for Active; 'I' for Inactive)
REMARK       I    between atoms: C2_2  and  N1_4 
REMARK    1  A    between atoms: N1_4  and  C3_6 
REMARK    2  A    between atoms: N2_9  and  C6_10 
REMARK    3  A    between atoms: C6_10  and  O2_11 
REMARK    4  A    between atoms: C7_13  and  N3_14 
REMARK       I    between atoms: N3_14  and  C8_16 
REMARK    5  A    between atoms: C8_16  and  C9_18 
REMARK    6  A    between atoms: C9_18  and  C10_19 
REMARK    7  A    between atoms: C21_30  and  C22_31 
ROOT
HETATM    1  C6  UNL     1       8.706   8.732  20.497  1.00  0.00     0.153 C 
HETATM    2  C7  UNL     1       8.737   7.635  19.578  1.00  0.00     0.146 C 
ENDROOT
BRANCH   1   3
HETATM    3  N2  UNL     1       8.489   8.808  21.867  1.00  0.00    -0.360 N 
HETATM    4  C5  UNL     1       9.575   9.449  22.666  1.00  0.00     0.127 C 
HETATM    5  C4  UNL     1       9.046   9.798  24.012  1.00  0.00     0.045 C 
HETATM    6  C3  UNL     1       8.591   8.562  24.768  1.00  0.00     0.092 C 
HETATM    7  C21 UNL     1       7.742   7.676  23.906  1.00  0.00     0.036 C 
HETATM    8  C20 UNL     1       7.367   8.285  22.563  1.00  0.00     0.132 C 
BRANCH   6   9
HETATM    9  N1  UNL     1       9.777   7.825  25.175  1.00  0.00    -0.356 N 
HETATM   10  C2  UNL     1       9.928   7.400  26.512  1.00  0.00     0.213 C 
HETATM   11  C1  UNL     1      11.116   6.651  26.961  1.00  0.00     0.117 C 
HETATM   12  O1  UNL     1       9.028   7.660  27.364  1.00  0.00    -0.274 OA
ATOM     13  H1  UNL     1      10.504   7.614  24.491  1.00  0.00     0.162 HD
ENDBRANCH   6   9
BRANCH   7  14
HETATM   14  C22 UNL     1       6.427   7.326  24.599  1.00  0.00     0.093 C 
HETATM   15 BR1  UNL     1       5.199   8.809  24.570  1.00  0.00    -0.096 Br
ENDBRANCH   7  14
ENDBRANCH   1   3
BRANCH   1  16
HETATM   16  O2  UNL     1       8.932   9.895  19.929  1.00  0.00    -0.345 OA
ATOM     17  H2  UNL     1       9.849  10.141  19.909  1.00  0.00     0.219 HD
ENDBRANCH   1  16
BRANCH   2  18
HETATM   18  N3  UNL     1       8.396   6.317  19.908  1.00  0.00    -0.333 N 
HETATM   19  C8  UNL     1       7.666   5.433  19.020  1.00  0.00     0.222 C 
HETATM   20  O3  UNL     1       7.319   5.835  17.886  1.00  0.00    -0.273 OA
ATOM     21  H3  UNL     1       8.676   5.960  20.821  1.00  0.00     0.168 HD
BRANCH  19  22
HETATM   22  C9  UNL     1       7.331   4.069  19.443  1.00  0.00     0.112 C 
BRANCH  22  23
HETATM   23  C10 UNL     1       7.964   2.946  18.707  1.00  0.00    -0.031 C 
HETATM   24  C11 UNL     1       7.193   2.767  17.365  1.00  0.00     0.014 C 
HETATM   25  C12 UNL     1       7.814   1.648  16.590  1.00  0.00    -0.013 C 
HETATM   26  C13 UNL     1       9.264   2.013  16.261  1.00  0.00     0.009 C 
HETATM   27  C17 UNL     1       7.839   0.337  17.314  1.00  0.00     0.009 C 
HETATM   28  C14 UNL     1      10.040   2.165  17.536  1.00  0.00    -0.013 C 
HETATM   29  C15 UNL     1       9.987   0.965  18.436  1.00  0.00     0.009 C 
HETATM   30  C19 UNL     1       9.374   3.309  18.318  1.00  0.00     0.014 C 
HETATM   31  C16 UNL     1       8.554   0.544  18.622  1.00  0.00    -0.013 C 
HETATM   32  C18 UNL     1       7.828   1.626  19.395  1.00  0.00     0.014 C 
ENDBRANCH  22  23
ENDBRANCH  19  22
ENDBRANCH   2  18
TORSDOF 7
ENDMDL
MODEL 4
REMARK VINA RESULT: -9.027650929      2.576      4.009
REMARK  7 active torsions:
REMARK  status: ('A' for Active; 'I' for Inactive)
REMARK       I    between atoms: C2_2  and  N1_4 
REMARK    1  A    between atoms: N1_4  and  C3_6 
REMARK    2  A    between atoms: N2_9  and  C6_10 
REMARK    3  A    between atoms: C6_10  and  O2_11 
REMARK    4  A    between atoms: C7_13  and  N3_14 
REMARK       I    between atoms: N3_14  and  C8_16 
REMARK    5  A    between atoms: C8_16  and  C9_18 
REMARK    6  A    between atoms: C9_18  and  C10_19 
REMARK    7  A    between atoms: C21_30  and  C22_31 
ROOT
HETATM    1  C6  UNL     1       5.037   6.268  22.288  1.00  0.00     0.153 C 
HETATM    2  C7  UNL     1       5.272   5.125  21.459  1.00  0.00     0.146 C 
ENDROOT
BRANCH   1   3
HETATM    3  N2  UNL     1       5.833   7.343  22.661  1.00  0.00    -0.360 N 
HETATM    4  C5  UNL     1       5.118   8.628  22.914  1.00  0.00     0.127 C 
HETATM    5  C4  UNL     1       6.022   9.548  23.656  1.00  0.00     0.045 C 
HETATM    6  C3  UNL     1       7.269   9.870  22.853  1.00  0.00     0.092 C 
HETATM    7  C21 UNL     1       7.880   8.629  22.272  1.00  0.00     0.036 C 
HETATM    8  C20 UNL     1       7.249   7.334  22.762  1.00  0.00     0.132 C 
BRANCH   6   9
HETATM    9  N1  UNL     1       6.885  10.758  21.767  1.00  0.00    -0.356 N 
HETATM   10  C2  UNL     1       7.666  11.894  21.467  1.00  0.00     0.213 C 
HETATM   11  C1  UNL     1       7.308  12.816  20.373  1.00  0.00     0.117 C 
HETATM   12  O1  UNL     1       8.705  12.144  22.144  1.00  0.00    -0.274 OA
ATOM     13  H1  UNL     1       6.048  10.558  21.220  1.00  0.00     0.162 HD
ENDBRANCH   6   9
BRANCH   7  14
HETATM   14  C22 UNL     1       9.367   8.535  22.608  1.00  0.00     0.093 C 
HETATM   15 BR1  UNL     1       9.726   9.165  24.393  1.00  0.00    -0.096 Br
ENDBRANCH   7  14
ENDBRANCH   1   3
BRANCH   1  16
HETATM   16  O2  UNL     1       3.823   6.305  22.791  1.00  0.00    -0.345 OA
ATOM     17  H2  UNL     1       3.744   5.875  23.634  1.00  0.00     0.219 HD
ENDBRANCH   1  16
BRANCH   2  18
HETATM   18  N3  UNL     1       6.519   4.785  20.917  1.00  0.00    -0.333 N 
HETATM   19  C8  UNL     1       6.834   4.892  19.505  1.00  0.00     0.222 C 
HETATM   20  O3  UNL     1       5.972   5.320  18.705  1.00  0.00    -0.273 OA
ATOM     21  H3  UNL     1       7.243   4.445  21.549  1.00  0.00     0.168 HD
BRANCH  19  22
HETATM   22  C9  UNL     1       8.158   4.502  19.011  1.00  0.00     0.112 C 
BRANCH  22  23
HETATM   23  C10 UNL     1       8.314   3.129  18.469  1.00  0.00    -0.031 C 
HETATM   24  C11 UNL     1       9.831   2.892  18.208  1.00  0.00     0.014 C 
HETATM   25  C12 UNL     1      10.026   1.510  17.671  1.00  0.00    -0.013 C 
HETATM   26  C13 UNL     1       9.561   0.497  18.721  1.00  0.00     0.009 C 
HETATM   27  C17 UNL     1       9.266   1.225  16.412  1.00  0.00     0.009 C 
HETATM   28  C14 UNL     1       8.093   0.681  18.974  1.00  0.00    -0.013 C 
HETATM   29  C15 UNL     1       7.240   0.596  17.742  1.00  0.00     0.009 C 
HETATM   30  C19 UNL     1       7.920   2.112  19.510  1.00  0.00     0.014 C 
HETATM   31  C16 UNL     1       7.810   1.496  16.679  1.00  0.00    -0.013 C 
HETATM   32  C18 UNL     1       7.670   2.934  17.134  1.00  0.00     0.014 C 
ENDBRANCH  22  23
ENDBRANCH  19  22
ENDBRANCH   2  18
TORSDOF 7
ENDMDL
MODEL 5
REMARK VINA RESULT: -8.985384312      2.571      4.041
REMARK  7 active torsions:
REMARK  status: ('A' for Active; 'I' for Inactive)
REMARK       I    between atoms: C2_2  and  N1_4 
REMARK    1  A    between atoms: N1_4  and  C3_6 
REMARK    2  A    between atoms: N2_9  and  C6_10 
REMARK    3  A    between atoms: C6_10  and  O2_11 
REMARK    4  A    between atoms: C7_13  and  N3_14 
REMARK       I    between atoms: N3_14  and  C8_16 
REMARK    5  A    between atoms: C8_16  and  C9_18 
REMARK    6  A    between atoms: C9_18  and  C10_19 
REMARK    7  A    between atoms: C21_30  and  C22_31 
ROOT
HETATM    1  C6  UNL     1       5.090   6.245  22.309  1.00  0.00     0.153 C 
HETATM    2  C7  UNL     1       5.334   5.104  21.479  1.00  0.00     0.146 C 
ENDROOT
BRANCH   1   3
HETATM    3  N2  UNL     1       5.878   7.327  22.681  1.00  0.00    -0.360 N 
HETATM    4  C5  UNL     1       5.151   8.604  22.944  1.00  0.00     0.127 C 
HETATM    5  C4  UNL     1       6.050   9.530  23.684  1.00  0.00     0.045 C 
HETATM    6  C3  UNL     1       7.289   9.868  22.874  1.00  0.00     0.092 C 
HETATM    7  C21 UNL     1       7.909   8.635  22.284  1.00  0.00     0.036 C 
HETATM    8  C20 UNL     1       7.294   7.332  22.773  1.00  0.00     0.132 C 
BRANCH   6   9
HETATM    9  N1  UNL     1       6.889  10.755  21.793  1.00  0.00    -0.356 N 
HETATM   10  C2  UNL     1       7.675  11.882  21.471  1.00  0.00     0.213 C 
HETATM   11  C1  UNL     1       7.301  12.805  20.382  1.00  0.00     0.117 C 
HETATM   12  O1  UNL     1       8.732  12.124  22.122  1.00  0.00    -0.274 OA
ATOM     13  H1  UNL     1       6.037  10.563  21.267  1.00  0.00     0.162 HD
ENDBRANCH   6   9
BRANCH   7  14
HETATM   14  C22 UNL     1       9.398   8.555  22.610  1.00  0.00     0.093 C 
HETATM   15 BR1  UNL     1       9.761   9.172  24.399  1.00  0.00    -0.096 Br
ENDBRANCH   7  14
ENDBRANCH   1   3
BRANCH   1  16
HETATM   16  O2  UNL     1       3.877   6.272  22.813  1.00  0.00    -0.345 OA
ATOM     17  H2  UNL     1       3.735   5.639  23.507  1.00  0.00     0.219 HD
ENDBRANCH   1  16
BRANCH   2  18
HETATM   18  N3  UNL     1       6.583   4.775  20.936  1.00  0.00    -0.333 N 
HETATM   19  C8  UNL     1       6.897   4.890  19.525  1.00  0.00     0.222 C 
HETATM   20  O3  UNL     1       6.032   5.315  18.726  1.00  0.00    -0.273 OA
ATOM     21  H3  UNL     1       7.310   4.437  21.566  1.00  0.00     0.168 HD
BRANCH  19  22
HETATM   22  C9  UNL     1       8.224   4.511  19.028  1.00  0.00     0.112 C 
BRANCH  22  23
HETATM   23  C10 UNL     1       8.402   3.124  18.530  1.00  0.00    -0.031 C 
HETATM   24  C11 UNL     1       7.665   3.014  17.162  1.00  0.00     0.014 C 
HETATM   25  C12 UNL     1       7.834   1.629  16.624  1.00  0.00    -0.013 C 
HETATM   26  C13 UNL     1       9.324   1.366  16.385  1.00  0.00     0.009 C 
HETATM   27  C17 UNL     1       7.335   0.549  17.535  1.00  0.00     0.009 C 
HETATM   28  C14 UNL     1      10.059   1.437  17.691  1.00  0.00    -0.013 C 
HETATM   29  C15 UNL     1       9.523   0.518  18.750  1.00  0.00     0.009 C 
HETATM   30  C19 UNL     1       9.856   2.864  18.228  1.00  0.00     0.014 C 
HETATM   31  C16 UNL     1       8.033   0.699  18.858  1.00  0.00    -0.013 C 
HETATM   32  C18 UNL     1       7.751   2.090  19.390  1.00  0.00     0.014 C 
ENDBRANCH  22  23
ENDBRANCH  19  22
ENDBRANCH   2  18
TORSDOF 7
ENDMDL
