MODEL 1
REMARK VINA RESULT: -9.743849013      0.000      0.000
REMARK  7 active torsions:
REMARK  status: ('A' for Active; 'I' for Inactive)
REMARK    1  A    between atoms: N1_2  and  C3_4 
REMARK    2  A    between atoms: C3_4  and  O1_5 
REMARK    3  A    between atoms: C3_4  and  C4_7 
REMARK    4  A    between atoms: C12_15  and  N2_16 
REMARK    5  A    between atoms: C12_15  and  C26_35 
REMARK       I    between atoms: N2_16  and  C13_18 
REMARK    6  A    between atoms: C13_18  and  C14_20 
REMARK       I    between atoms: C14_20  and  N3_22 
REMARK    7  A    between atoms: N3_22  and  C15_24 
ROOT
HETATM    1  C4  UNL     1       7.960   7.825  23.615  1.00  0.00     0.072 A 
HETATM    2  C5  UNL     1       6.674   7.815  24.253  1.00  0.00     0.005 A 
HETATM    3  C6  UNL     1       6.000   8.715  25.189  1.00  0.00     0.010 C 
HETATM    4  C7  UNL     1       4.502   8.616  25.272  1.00  0.00    -0.013 C 
HETATM    5  C8  UNL     1       3.837   9.516  24.229  1.00  0.00     0.009 C 
HETATM    6  C9  UNL     1       3.706   8.376  23.350  1.00  0.00    -0.011 C 
HETATM    7  C10 UNL     1       3.824   7.496  24.613  1.00  0.00     0.009 C 
HETATM    8  C11 UNL     1       4.560   8.004  22.266  1.00  0.00     0.042 C 
HETATM    9  C12 UNL     1       5.932   8.409  22.011  1.00  0.00     0.097 C 
HETATM   10  C27 UNL     1       6.922   8.691  23.026  1.00  0.00     0.036 A 
ENDROOT
BRANCH   9  11
HETATM   11  N2  UNL     1       6.495   7.585  20.960  1.00  0.00    -0.338 N 
HETATM   12  C13 UNL     1       6.462   6.182  20.821  1.00  0.00     0.310 C 
HETATM   13  O2  UNL     1       5.922   5.352  21.592  1.00  0.00    -0.262 OA
ATOM     14  H2  UNL     1       6.982   8.089  20.218  1.00  0.00     0.164 HD
BRANCH  12  15
HETATM   15  C14 UNL     1       7.121   5.545  19.652  1.00  0.00     0.309 C 
HETATM   16  O3  UNL     1       7.473   6.268  18.699  1.00  0.00    -0.262 OA
HETATM   17  N3  UNL     1       7.347   4.166  19.609  1.00  0.00    -0.348 N 
ATOM     18  H3  UNL     1       7.056   3.584  20.394  1.00  0.00     0.163 HD
BRANCH  17  19
HETATM   19  C15 UNL     1       7.991   3.549  18.465  1.00  0.00     0.089 C 
HETATM   20  C16 UNL     1       6.973   3.369  17.404  1.00  0.00     0.030 C 
HETATM   21  C17 UNL     1       7.198   2.254  16.454  1.00  0.00    -0.012 C 
HETATM   22  C18 UNL     1       8.622   2.091  16.003  1.00  0.00     0.009 C 
HETATM   23  C22 UNL     1       6.594   0.990  17.003  1.00  0.00     0.009 C 
HETATM   24  C19 UNL     1       9.444   1.195  16.854  1.00  0.00    -0.013 C 
HETATM   25  C20 UNL     1       8.763  -0.082  17.243  1.00  0.00     0.009 C 
HETATM   26  C25 UNL     1       9.848   1.930  18.096  1.00  0.00     0.011 C 
HETATM   27  C21 UNL     1       7.490   0.276  17.975  1.00  0.00    -0.013 C 
HETATM   28  C23 UNL     1       7.708   1.146  19.158  1.00  0.00     0.011 C 
HETATM   29  C24 UNL     1       8.643   2.286  18.951  1.00  0.00     0.009 C 
ENDBRANCH  17  19
ENDBRANCH  12  15
ENDBRANCH   9  11
BRANCH   9  30
HETATM   30  C26 UNL     1       5.774   9.804  21.239  1.00  0.00     0.381 C 
HETATM   31  F1  UNL     1       6.615   9.779  20.145  1.00  0.00    -0.212 F 
HETATM   32  F2  UNL     1       6.222  10.806  22.075  1.00  0.00    -0.212 F 
ENDBRANCH   9  30
BRANCH   1  33
HETATM   33  C3  UNL     1       9.268   8.238  24.072  1.00  0.00     0.117 C 
BRANCH  33  34
HETATM   34  N1  UNL     1       9.986   8.164  25.253  1.00  0.00    -0.374 N 
HETATM   35  C1  UNL     1      11.436   8.509  25.201  1.00  0.00     0.150 C 
HETATM   36  C2  UNL     1       9.499   7.791  26.527  1.00  0.00     0.150 C 
ENDBRANCH  33  34
BRANCH  33  37
HETATM   37  O1  UNL     1       9.958   8.850  23.090  1.00  0.00    -0.349 OA
ATOM     38  H1  UNL     1      10.800   8.441  22.931  1.00  0.00     0.219 HD
ENDBRANCH  33  37
ENDBRANCH   1  33
TORSDOF 7
ENDMDL
MODEL 2
REMARK VINA RESULT: -9.339048113      0.938      1.079
REMARK  7 active torsions:
REMARK  status: ('A' for Active; 'I' for Inactive)
REMARK    1  A    between atoms: N1_2  and  C3_4 
REMARK    2  A    between atoms: C3_4  and  O1_5 
REMARK    3  A    between atoms: C3_4  and  C4_7 
REMARK    4  A    between atoms: C12_15  and  N2_16 
REMARK    5  A    between atoms: C12_15  and  C26_35 
REMARK       I    between atoms: N2_16  and  C13_18 
REMARK    6  A    between atoms: C13_18  and  C14_20 
REMARK       I    between atoms: C14_20  and  N3_22 
REMARK    7  A    between atoms: N3_22  and  C15_24 
ROOT
HETATM    1  C4  UNL     1       7.129   7.370  24.124  1.00  0.00     0.072 A 
HETATM    2  C5  UNL     1       5.739   7.355  24.482  1.00  0.00     0.005 A 
HETATM    3  C6  UNL     1       4.899   8.214  25.318  1.00  0.00     0.010 C 
HETATM    4  C7  UNL     1       3.415   8.151  25.086  1.00  0.00    -0.013 C 
HETATM    5  C8  UNL     1       2.992   9.132  23.991  1.00  0.00     0.009 C 
HETATM    6  C9  UNL     1       3.029   8.052  23.030  1.00  0.00    -0.011 C 
HETATM    7  C10 UNL     1       2.872   7.093  24.230  1.00  0.00     0.009 C 
HETATM    8  C11 UNL     1       4.083   7.725  22.122  1.00  0.00     0.042 C 
HETATM    9  C12 UNL     1       5.484   8.107  22.181  1.00  0.00     0.097 C 
HETATM   10  C27 UNL     1       6.247   8.298  23.393  1.00  0.00     0.036 A 
ENDROOT
BRANCH   9  11
HETATM   11  N2  UNL     1       6.240   7.334  21.215  1.00  0.00    -0.338 N 
HETATM   12  C13 UNL     1       6.252   5.939  21.011  1.00  0.00     0.310 C 
HETATM   13  O2  UNL     1       5.592   5.072  21.634  1.00  0.00    -0.262 OA
ATOM     14  H2  UNL     1       6.846   7.874  20.597  1.00  0.00     0.164 HD
BRANCH  12  15
HETATM   15  C14 UNL     1       7.121   5.358  19.956  1.00  0.00     0.309 C 
HETATM   16  O3  UNL     1       8.066   6.046  19.517  1.00  0.00    -0.262 OA
HETATM   17  N3  UNL     1       6.896   4.072  19.456  1.00  0.00    -0.348 N 
ATOM     18  H3  UNL     1       6.121   3.520  19.822  1.00  0.00     0.163 HD
BRANCH  17  19
HETATM   19  C15 UNL     1       7.748   3.511  18.425  1.00  0.00     0.089 C 
HETATM   20  C16 UNL     1       6.929   3.309  17.208  1.00  0.00     0.030 C 
HETATM   21  C17 UNL     1       7.360   2.228  16.292  1.00  0.00    -0.012 C 
HETATM   22  C18 UNL     1       8.845   2.139  16.080  1.00  0.00     0.009 C 
HETATM   23  C22 UNL     1       6.734   0.926  16.714  1.00  0.00     0.009 C 
HETATM   24  C19 UNL     1       9.557   1.261  17.042  1.00  0.00    -0.013 C 
HETATM   25  C20 UNL     1       8.883  -0.053  17.294  1.00  0.00     0.009 C 
HETATM   26  C25 UNL     1       9.716   1.985  18.345  1.00  0.00     0.011 C 
HETATM   27  C21 UNL     1       7.491   0.231  17.811  1.00  0.00    -0.013 C 
HETATM   28  C23 UNL     1       7.470   1.082  19.026  1.00  0.00     0.011 C 
HETATM   29  C24 UNL     1       8.371   2.268  18.993  1.00  0.00     0.009 C 
ENDBRANCH  17  19
ENDBRANCH  12  15
ENDBRANCH   9  11
BRANCH   9  30
HETATM   30  C26 UNL     1       5.508   9.550  21.487  1.00  0.00     0.381 C 
HETATM   31  F1  UNL     1       6.519   9.551  20.548  1.00  0.00    -0.212 F 
HETATM   32  F2  UNL     1       5.845  10.480  22.449  1.00  0.00    -0.212 F 
ENDBRANCH   9  30
BRANCH   1  33
HETATM   33  C3  UNL     1       8.321   7.717  24.865  1.00  0.00     0.117 C 
BRANCH  33  34
HETATM   34  N1  UNL     1       9.320   8.670  24.766  1.00  0.00    -0.374 N 
HETATM   35  C1  UNL     1      10.618   8.381  25.442  1.00  0.00     0.150 C 
HETATM   36  C2  UNL     1       9.254   9.910  24.088  1.00  0.00     0.150 C 
ENDBRANCH  33  34
BRANCH  33  37
HETATM   37  O1  UNL     1       8.495   6.899  25.921  1.00  0.00    -0.349 OA
ATOM     38  H1  UNL     1       7.671   6.629  26.309  1.00  0.00     0.219 HD
ENDBRANCH  33  37
ENDBRANCH   1  33
TORSDOF 7
ENDMDL
MODEL 3
REMARK VINA RESULT: -9.173305765      1.998      3.900
REMARK  7 active torsions:
REMARK  status: ('A' for Active; 'I' for Inactive)
REMARK    1  A    between atoms: N1_2  and  C3_4 
REMARK    2  A    between atoms: C3_4  and  O1_5 
REMARK    3  A    between atoms: C3_4  and  C4_7 
REMARK    4  A    between atoms: C12_15  and  N2_16 
REMARK    5  A    between atoms: C12_15  and  C26_35 
REMARK       I    between atoms: N2_16  and  C13_18 
REMARK    6  A    between atoms: C13_18  and  C14_20 
REMARK       I    between atoms: C14_20  and  N3_22 
REMARK    7  A    between atoms: N3_22  and  C15_24 
ROOT
HETATM    1  C4  UNL     1       7.713   9.408  20.741  1.00  0.00     0.072 A 
HETATM    2  C5  UNL     1       8.319   9.340  22.041  1.00  0.00     0.005 A 
HETATM    3  C6  UNL     1       8.281  10.201  23.223  1.00  0.00     0.010 C 
HETATM    4  C7  UNL     1       8.664   9.576  24.535  1.00  0.00    -0.013 C 
HETATM    5  C8  UNL     1       7.451   8.929  25.206  1.00  0.00     0.009 C 
HETATM    6  C9  UNL     1       7.850   7.650  24.661  1.00  0.00    -0.011 C 
HETATM    7  C10 UNL     1       9.271   8.242  24.539  1.00  0.00     0.009 C 
HETATM    8  C11 UNL     1       7.354   7.008  23.484  1.00  0.00     0.042 C 
HETATM    9  C12 UNL     1       6.650   7.596  22.357  1.00  0.00     0.097 C 
HETATM   10  C27 UNL     1       6.860   8.931  21.845  1.00  0.00     0.036 A 
ENDROOT
BRANCH   9  11
HETATM   11  N2  UNL     1       6.579   6.636  21.273  1.00  0.00    -0.338 N 
HETATM   12  C13 UNL     1       5.671   6.582  20.196  1.00  0.00     0.310 C 
HETATM   13  O2  UNL     1       4.729   7.375  19.952  1.00  0.00    -0.262 OA
ATOM     14  H2  UNL     1       7.282   5.897  21.292  1.00  0.00     0.164 HD
BRANCH  12  15
HETATM   15  C14 UNL     1       5.782   5.490  19.195  1.00  0.00     0.309 C 
HETATM   16  O3  UNL     1       5.389   5.706  18.031  1.00  0.00    -0.262 OA
HETATM   17  N3  UNL     1       6.314   4.243  19.538  1.00  0.00    -0.348 N 
ATOM     18  H3  UNL     1       6.632   4.078  20.492  1.00  0.00     0.163 HD
BRANCH  17  19
HETATM   19  C15 UNL     1       6.419   3.180  18.556  1.00  0.00     0.089 C 
HETATM   20  C16 UNL     1       6.469   1.888  19.277  1.00  0.00     0.030 C 
HETATM   21  C17 UNL     1       7.180   0.778  18.600  1.00  0.00    -0.012 C 
HETATM   22  C18 UNL     1       6.918   0.673  17.124  1.00  0.00     0.009 C 
HETATM   23  C22 UNL     1       8.643   0.827  18.948  1.00  0.00     0.009 C 
HETATM   24  C19 UNL     1       7.849   1.453  16.271  1.00  0.00    -0.013 C 
HETATM   25  C20 UNL     1       9.291   1.329  16.659  1.00  0.00     0.009 C 
HETATM   26  C25 UNL     1       7.457   2.899  16.308  1.00  0.00     0.011 C 
HETATM   27  C21 UNL     1       9.426   1.784  18.094  1.00  0.00    -0.013 C 
HETATM   28  C23 UNL     1       8.927   3.161  18.331  1.00  0.00     0.011 C 
HETATM   29  C24 UNL     1       7.617   3.485  17.701  1.00  0.00     0.009 C 
ENDBRANCH  17  19
ENDBRANCH  12  15
ENDBRANCH   9  11
BRANCH   9  30
HETATM   30  C26 UNL     1       5.122   7.611  22.837  1.00  0.00     0.381 C 
HETATM   31  F1  UNL     1       4.840   8.876  23.310  1.00  0.00    -0.212 F 
HETATM   32  F2  UNL     1       5.002   6.741  23.902  1.00  0.00    -0.212 F 
ENDBRANCH   9  30
BRANCH   1  33
HETATM   33  C3  UNL     1       7.435  10.516  19.855  1.00  0.00     0.117 C 
BRANCH  33  34
HETATM   34  N1  UNL     1       6.465  10.832  18.919  1.00  0.00    -0.374 N 
HETATM   35  C1  UNL     1       5.638  12.048  19.166  1.00  0.00     0.150 C 
HETATM   36  C2  UNL     1       6.160  10.123  17.734  1.00  0.00     0.150 C 
ENDBRANCH  33  34
BRANCH  33  37
HETATM   37  O1  UNL     1       8.363  11.485  19.979  1.00  0.00    -0.349 OA
ATOM     38  H1  UNL     1       8.063  12.206  20.520  1.00  0.00     0.219 HD
ENDBRANCH  33  37
ENDBRANCH   1  33
TORSDOF 7
ENDMDL
MODEL 4
REMARK VINA RESULT: -9.036396719      1.556      2.133
REMARK  7 active torsions:
REMARK  status: ('A' for Active; 'I' for Inactive)
REMARK    1  A    between atoms: N1_2  and  C3_4 
REMARK    2  A    between atoms: C3_4  and  O1_5 
REMARK    3  A    between atoms: C3_4  and  C4_7 
REMARK    4  A    between atoms: C12_15  and  N2_16 
REMARK    5  A    between atoms: C12_15  and  C26_35 
REMARK       I    between atoms: N2_16  and  C13_18 
REMARK    6  A    between atoms: C13_18  and  C14_20 
REMARK       I    between atoms: C14_20  and  N3_22 
REMARK    7  A    between atoms: N3_22  and  C15_24 
ROOT
HETATM    1  C4  UNL     1       6.579   7.280  23.343  1.00  0.00     0.072 A 
HETATM    2  C5  UNL     1       5.538   7.475  24.312  1.00  0.00     0.005 A 
HETATM    3  C6  UNL     1       5.177   8.578  25.204  1.00  0.00     0.010 C 
HETATM    4  C7  UNL     1       3.769   8.597  25.731  1.00  0.00    -0.013 C 
HETATM    5  C8  UNL     1       2.834   9.327  24.765  1.00  0.00     0.009 C 
HETATM    6  C9  UNL     1       2.440   8.053  24.207  1.00  0.00    -0.011 C 
HETATM    7  C10 UNL     1       2.918   7.421  25.531  1.00  0.00     0.009 C 
HETATM    8  C11 UNL     1       2.934   7.429  23.020  1.00  0.00     0.042 C 
HETATM    9  C12 UNL     1       4.174   7.686  22.306  1.00  0.00     0.097 C 
HETATM   10  C27 UNL     1       5.421   8.086  22.917  1.00  0.00     0.036 A 
ENDROOT
BRANCH   9  11
HETATM   11  N2  UNL     1       4.395   6.643  21.323  1.00  0.00    -0.338 N 
HETATM   12  C13 UNL     1       4.522   5.253  21.521  1.00  0.00     0.310 C 
HETATM   13  O2  UNL     1       4.461   4.628  22.608  1.00  0.00    -0.262 OA
ATOM     14  H2  UNL     1       4.468   6.958  20.356  1.00  0.00     0.164 HD
BRANCH  12  15
HETATM   15  C14 UNL     1       4.756   4.363  20.354  1.00  0.00     0.309 C 
HETATM   16  O3  UNL     1       3.783   4.052  19.639  1.00  0.00    -0.262 OA
HETATM   17  N3  UNL     1       6.033   3.880  20.054  1.00  0.00    -0.348 N 
ATOM     18  H3  UNL     1       6.821   4.142  20.646  1.00  0.00     0.163 HD
BRANCH  17  19
HETATM   19  C15 UNL     1       6.254   3.012  18.914  1.00  0.00     0.089 C 
HETATM   20  C16 UNL     1       6.483   1.638  19.416  1.00  0.00     0.030 C 
HETATM   21  C17 UNL     1       7.316   0.753  18.569  1.00  0.00    -0.012 C 
HETATM   22  C18 UNL     1       7.041   0.853  17.095  1.00  0.00     0.009 C 
HETATM   23  C22 UNL     1       8.767   0.933  18.922  1.00  0.00     0.009 C 
HETATM   24  C19 UNL     1       7.848   1.874  16.381  1.00  0.00    -0.013 C 
HETATM   25  C20 UNL     1       9.301   1.877  16.745  1.00  0.00     0.009 C 
HETATM   26  C25 UNL     1       7.275   3.232  16.651  1.00  0.00     0.011 C 
HETATM   27  C21 UNL     1       9.405   2.108  18.235  1.00  0.00    -0.013 C 
HETATM   28  C23 UNL     1       8.739   3.353  18.692  1.00  0.00     0.011 C 
HETATM   29  C24 UNL     1       7.386   3.602  18.121  1.00  0.00     0.009 C 
ENDBRANCH  17  19
ENDBRANCH  12  15
ENDBRANCH   9  11
BRANCH   9  30
HETATM   30  C26 UNL     1       3.807   8.917  21.350  1.00  0.00     0.381 C 
HETATM   31  F1  UNL     1       4.536   8.781  20.187  1.00  0.00    -0.212 F 
HETATM   32  F2  UNL     1       4.235  10.076  21.966  1.00  0.00    -0.212 F 
ENDBRANCH   9  30
BRANCH   1  33
HETATM   33  C3  UNL     1       7.967   7.683  23.313  1.00  0.00     0.117 C 
BRANCH  33  34
HETATM   34  N1  UNL     1       8.915   8.083  24.240  1.00  0.00    -0.374 N 
HETATM   35  C1  UNL     1      10.089   8.852  23.737  1.00  0.00     0.150 C 
HETATM   36  C2  UNL     1       8.900   7.843  25.634  1.00  0.00     0.150 C 
ENDBRANCH  33  34
BRANCH  33  37
HETATM   37  O1  UNL     1       8.456   7.660  22.058  1.00  0.00    -0.349 OA
ATOM     38  H1  UNL     1       9.190   8.252  21.945  1.00  0.00     0.219 HD
ENDBRANCH  33  37
ENDBRANCH   1  33
TORSDOF 7
ENDMDL
MODEL 5
REMARK VINA RESULT: -8.958688087      1.497      1.700
REMARK  7 active torsions:
REMARK  status: ('A' for Active; 'I' for Inactive)
REMARK    1  A    between atoms: N1_2  and  C3_4 
REMARK    2  A    between atoms: C3_4  and  O1_5 
REMARK    3  A    between atoms: C3_4  and  C4_7 
REMARK    4  A    between atoms: C12_15  and  N2_16 
REMARK    5  A    between atoms: C12_15  and  C26_35 
REMARK       I    between atoms: N2_16  and  C13_18 
REMARK    6  A    between atoms: C13_18  and  C14_20 
REMARK       I    between atoms: C14_20  and  N3_22 
REMARK    7  A    between atoms: N3_22  and  C15_24 
ROOT
HETATM    1  C4  UNL     1       6.641   7.332  24.131  1.00  0.00     0.072 A 
HETATM    2  C5  UNL     1       5.302   7.214  24.636  1.00  0.00     0.005 A 
HETATM    3  C6  UNL     1       4.496   8.007  25.565  1.00  0.00     0.010 C 
HETATM    4  C7  UNL     1       3.004   7.836  25.492  1.00  0.00    -0.013 C 
HETATM    5  C8  UNL     1       2.395   8.785  24.458  1.00  0.00     0.009 C 
HETATM    6  C9  UNL     1       2.408   7.712  23.488  1.00  0.00    -0.011 C 
HETATM    7  C10 UNL     1       2.451   6.742  24.689  1.00  0.00     0.009 C 
HETATM    8  C11 UNL     1       3.380   7.465  22.470  1.00  0.00     0.042 C 
HETATM    9  C12 UNL     1       4.747   7.949  22.382  1.00  0.00     0.097 C 
HETATM   10  C27 UNL     1       5.620   8.194  23.508  1.00  0.00     0.036 A 
ENDROOT
BRANCH   9  11
HETATM   11  N2  UNL     1       5.449   7.236  21.333  1.00  0.00    -0.338 N 
HETATM   12  C13 UNL     1       5.035   6.973  20.011  1.00  0.00     0.310 C 
HETATM   13  O2  UNL     1       3.958   7.317  19.467  1.00  0.00    -0.262 OA
ATOM     14  H2  UNL     1       6.369   6.875  21.586  1.00  0.00     0.164 HD
BRANCH  12  15
HETATM   15  C14 UNL     1       5.925   6.207  19.102  1.00  0.00     0.309 C 
HETATM   16  O3  UNL     1       6.442   6.802  18.134  1.00  0.00    -0.262 OA
HETATM   17  N3  UNL     1       6.186   4.850  19.314  1.00  0.00    -0.348 N 
ATOM     18  H3  UNL     1       5.758   4.375  20.107  1.00  0.00     0.163 HD
BRANCH  17  19
HETATM   19  C15 UNL     1       7.056   4.108  18.421  1.00  0.00     0.089 C 
HETATM   20  C16 UNL     1       6.209   3.279  17.534  1.00  0.00     0.030 C 
HETATM   21  C17 UNL     1       6.817   2.032  17.014  1.00  0.00    -0.012 C 
HETATM   22  C18 UNL     1       8.250   2.165  16.582  1.00  0.00     0.009 C 
HETATM   23  C22 UNL     1       6.586   0.910  17.989  1.00  0.00     0.009 C 
HETATM   24  C19 UNL     1       9.247   1.905  17.650  1.00  0.00    -0.013 C 
HETATM   25  C20 UNL     1       8.957   0.694  18.483  1.00  0.00     0.009 C 
HETATM   26  C25 UNL     1       9.333   3.104  18.546  1.00  0.00     0.011 C 
HETATM   27  C21 UNL     1       7.592   0.875  19.105  1.00  0.00    -0.013 C 
HETATM   28  C23 UNL     1       7.463   2.117  19.908  1.00  0.00     0.011 C 
HETATM   29  C24 UNL     1       8.025   3.346  19.280  1.00  0.00     0.009 C 
ENDBRANCH  17  19
ENDBRANCH  12  15
ENDBRANCH   9  11
BRANCH   9  30
HETATM   30  C26 UNL     1       4.591   9.392  21.703  1.00  0.00     0.381 C 
HETATM   31  F1  UNL     1       5.795   9.713  21.112  1.00  0.00    -0.212 F 
HETATM   32  F2  UNL     1       4.371  10.313  22.707  1.00  0.00    -0.212 F 
ENDBRANCH   9  30
BRANCH   1  33
HETATM   33  C3  UNL     1       7.876   7.765  24.744  1.00  0.00     0.117 C 
BRANCH  33  34
HETATM   34  N1  UNL     1       8.767   8.811  24.573  1.00  0.00    -0.374 N 
HETATM   35  C1  UNL     1      10.032   8.776  25.362  1.00  0.00     0.150 C 
HETATM   36  C2  UNL     1       8.615   9.931  23.722  1.00  0.00     0.150 C 
ENDBRANCH  33  34
BRANCH  33  37
HETATM   37  O1  UNL     1       8.248   6.932  25.735  1.00  0.00    -0.349 OA
ATOM     38  H1  UNL     1       9.187   6.791  25.755  1.00  0.00     0.219 HD
ENDBRANCH  33  37
ENDBRANCH   1  33
TORSDOF 7
ENDMDL
