MODEL 1
REMARK VINA RESULT: -8.374473704      0.000      0.000
REMARK  7 active torsions:
REMARK  status: ('A' for Active; 'I' for Inactive)
REMARK       I    between atoms: C2_2  and  N1_4 
REMARK    1  A    between atoms: C7_11  and  C8_12 
REMARK    2  A    between atoms: C8_12  and  C9_13 
REMARK    3  A    between atoms: C12_18  and  N3_19 
REMARK       I    between atoms: N3_19  and  C13_21 
REMARK    4  A    between atoms: C13_21  and  C14_23 
REMARK    5  A    between atoms: C14_23  and  C15_24 
REMARK    6  A    between atoms: C15_24  and  C16_25 
REMARK    7  A    between atoms: C16_25  and  C17_26 
ROOT
HETATM    1  C9  UNL     1       7.477   6.840  19.538  1.00  0.00     0.109 A 
HETATM    2  N2  UNL     1       7.160   8.192  19.203  1.00  0.00    -0.343 N 
ATOM      3  H2  UNL     1       6.503   8.458  18.470  1.00  0.00     0.167 HD
HETATM    4  C10 UNL     1       7.795   9.029  19.927  1.00  0.00     0.051 A 
HETATM    5  C11 UNL     1       7.635  10.505  19.770  1.00  0.00     0.072 C 
HETATM    6  C12 UNL     1       8.631   8.318  20.853  1.00  0.00     0.132 A 
HETATM    7  N4  UNL     1       8.406   6.913  20.581  1.00  0.00    -0.327 N 
ATOM      8  H4  UNL     1       8.844   6.126  21.059  1.00  0.00     0.169 HD
ENDROOT
BRANCH   1   9
HETATM    9  C8  UNL     1       6.912   5.818  18.945  1.00  0.00     0.079 C 
BRANCH   9  10
HETATM   10  C7  UNL     1       7.254   4.418  19.133  1.00  0.00     0.054 A 
HETATM   11  C6  UNL     1       6.655   3.635  20.095  1.00  0.00     0.037 A 
HETATM   12  C5  UNL     1       6.981   2.295  20.199  1.00  0.00     0.025 A 
HETATM   13 BR1  UNL     1       5.403   4.347  21.372  1.00  0.00    -0.049 Br
HETATM   14  C4  UNL     1       7.911   1.691  19.359  1.00  0.00     0.050 A 
HETATM   15  C3  UNL     1       8.486   2.517  18.413  1.00  0.00     0.108 A 
HETATM   16  N1  UNL     1       9.355   2.003  17.610  1.00  0.00    -0.314 N 
HETATM   17  N5  UNL     1       8.166   3.818  18.313  1.00  0.00    -0.341 N 
HETATM   18  C2  UNL     1       9.728   0.649  17.668  1.00  0.00     0.219 C 
ATOM     19  H1  UNL     1       9.788   2.602  16.907  1.00  0.00     0.170 HD
HETATM   20  C1  UNL     1       8.894  -0.399  17.050  1.00  0.00     0.117 C 
HETATM   21  O1  UNL     1      10.791   0.327  18.258  1.00  0.00    -0.274 OA
ATOM     22  H5  UNL     1       8.622   4.380  17.595  1.00  0.00     0.167 HD
ENDBRANCH   9  10
ENDBRANCH   1   9
BRANCH   6  23
HETATM   23  N3  UNL     1       9.418   8.760  21.738  1.00  0.00    -0.311 N 
HETATM   24  C13 UNL     1       9.149   9.198  23.038  1.00  0.00     0.223 C 
HETATM   25  O2  UNL     1       8.664  10.355  23.217  1.00  0.00    -0.273 OA
ATOM     26  H3  UNL     1      10.399   8.803  21.461  1.00  0.00     0.170 HD
BRANCH  24  27
HETATM   27  C14 UNL     1       9.403   8.373  24.239  1.00  0.00     0.103 C 
BRANCH  27  28
HETATM   28  C15 UNL     1      10.770   8.476  24.800  1.00  0.00     0.010 C 
BRANCH  28  29
HETATM   29  C16 UNL     1      10.886   8.460  26.282  1.00  0.00     0.011 C 
BRANCH  29  30
HETATM   30  C17 UNL     1      11.639   7.212  26.761  1.00  0.00     0.085 C 
HETATM   31 BR2  UNL     1      13.522   7.346  26.325  1.00  0.00    -0.097 Br
ENDBRANCH  29  30
ENDBRANCH  28  29
ENDBRANCH  27  28
ENDBRANCH  24  27
ENDBRANCH   6  23
TORSDOF 7
ENDMDL
MODEL 2
REMARK VINA RESULT: -8.363849444      2.778      8.246
REMARK  7 active torsions:
REMARK  status: ('A' for Active; 'I' for Inactive)
REMARK       I    between atoms: C2_2  and  N1_4 
REMARK    1  A    between atoms: C7_11  and  C8_12 
REMARK    2  A    between atoms: C8_12  and  C9_13 
REMARK    3  A    between atoms: C12_18  and  N3_19 
REMARK       I    between atoms: N3_19  and  C13_21 
REMARK    4  A    between atoms: C13_21  and  C14_23 
REMARK    5  A    between atoms: C14_23  and  C15_24 
REMARK    6  A    between atoms: C15_24  and  C16_25 
REMARK    7  A    between atoms: C16_25  and  C17_26 
ROOT
HETATM    1  C9  UNL     1       7.364   7.533  19.920  1.00  0.00     0.109 A 
HETATM    2  N2  UNL     1       6.473   7.523  18.803  1.00  0.00    -0.343 N 
ATOM      3  H2  UNL     1       6.043   8.361  18.410  1.00  0.00     0.167 HD
HETATM    4  C10 UNL     1       6.277   6.346  18.353  1.00  0.00     0.051 A 
HETATM    5  C11 UNL     1       5.385   6.073  17.187  1.00  0.00     0.072 C 
HETATM    6  C12 UNL     1       7.031   5.408  19.135  1.00  0.00     0.132 A 
HETATM    7  N4  UNL     1       7.720   6.198  20.134  1.00  0.00    -0.327 N 
ATOM      8  H4  UNL     1       8.346   5.847  20.859  1.00  0.00     0.169 HD
ENDROOT
BRANCH   1   9
HETATM    9  C8  UNL     1       7.733   8.640  20.514  1.00  0.00     0.079 C 
BRANCH   9  10
HETATM   10  C7  UNL     1       7.887   8.835  21.947  1.00  0.00     0.054 A 
HETATM   11  C6  UNL     1       6.831   9.172  22.763  1.00  0.00     0.037 A 
HETATM   12  C5  UNL     1       7.022   9.297  24.127  1.00  0.00     0.025 A 
HETATM   13 BR1  UNL     1       5.073   9.549  22.074  1.00  0.00    -0.049 Br
HETATM   14  C4  UNL     1       8.263   9.097  24.723  1.00  0.00     0.050 A 
HETATM   15  C3  UNL     1       9.291   8.763  23.864  1.00  0.00     0.108 A 
HETATM   16  N1  UNL     1      10.462   8.567  24.369  1.00  0.00    -0.314 N 
HETATM   17  N5  UNL     1       9.102   8.640  22.539  1.00  0.00    -0.341 N 
HETATM   18  C2  UNL     1      10.718   8.681  25.746  1.00  0.00     0.219 C 
ATOM     19  H1  UNL     1      11.230   8.320  23.745  1.00  0.00     0.170 HD
HETATM   20  C1  UNL     1      10.398   7.581  26.675  1.00  0.00     0.117 C 
HETATM   21  O1  UNL     1      11.229   9.740  26.193  1.00  0.00    -0.274 OA
ATOM     22  H5  UNL     1       9.898   8.391  21.952  1.00  0.00     0.167 HD
ENDBRANCH   9  10
ENDBRANCH   1   9
BRANCH   6  23
HETATM   23  N3  UNL     1       7.118   4.150  19.030  1.00  0.00    -0.311 N 
HETATM   24  C13 UNL     1       7.867   3.376  18.138  1.00  0.00     0.223 C 
HETATM   25  O2  UNL     1       7.453   3.217  16.952  1.00  0.00    -0.273 OA
ATOM     26  H3  UNL     1       6.557   3.622  19.697  1.00  0.00     0.170 HD
BRANCH  24  27
HETATM   27  C14 UNL     1       9.139   2.718  18.510  1.00  0.00     0.103 C 
BRANCH  27  28
HETATM   28  C15 UNL     1       9.052   1.258  18.743  1.00  0.00     0.010 C 
BRANCH  28  29
HETATM   29  C16 UNL     1      10.130   0.422  18.151  1.00  0.00     0.011 C 
BRANCH  29  30
HETATM   30  C17 UNL     1       9.584  -0.454  17.015  1.00  0.00     0.085 C 
HETATM   31 BR2  UNL     1       7.657  -0.293  16.900  1.00  0.00    -0.097 Br
ENDBRANCH  29  30
ENDBRANCH  28  29
ENDBRANCH  27  28
ENDBRANCH  24  27
ENDBRANCH   6  23
TORSDOF 7
ENDMDL
MODEL 3
REMARK VINA RESULT: -8.272405196      1.695      2.106
REMARK  7 active torsions:
REMARK  status: ('A' for Active; 'I' for Inactive)
REMARK       I    between atoms: C2_2  and  N1_4 
REMARK    1  A    between atoms: C7_11  and  C8_12 
REMARK    2  A    between atoms: C8_12  and  C9_13 
REMARK    3  A    between atoms: C12_18  and  N3_19 
REMARK       I    between atoms: N3_19  and  C13_21 
REMARK    4  A    between atoms: C13_21  and  C14_23 
REMARK    5  A    between atoms: C14_23  and  C15_24 
REMARK    6  A    between atoms: C15_24  and  C16_25 
REMARK    7  A    between atoms: C16_25  and  C17_26 
ROOT
HETATM    1  C9  UNL     1       7.010   6.529  21.876  1.00  0.00     0.109 A 
HETATM    2  N2  UNL     1       6.665   6.795  23.237  1.00  0.00    -0.343 N 
ATOM      3  H2  UNL     1       5.848   6.402  23.704  1.00  0.00     0.167 HD
HETATM    4  C10 UNL     1       7.497   7.581  23.801  1.00  0.00     0.051 A 
HETATM    5  C11 UNL     1       7.355   8.009  25.224  1.00  0.00     0.072 C 
HETATM    6  C12 UNL     1       8.521   7.941  22.860  1.00  0.00     0.132 A 
HETATM    7  N4  UNL     1       8.182   7.252  21.633  1.00  0.00    -0.327 N 
ATOM      8  H4  UNL     1       8.701   7.286  20.755  1.00  0.00     0.169 HD
ENDROOT
BRANCH   1   9
HETATM    9  C8  UNL     1       6.313   5.719  21.120  1.00  0.00     0.079 C 
BRANCH   9  10
HETATM   10  C7  UNL     1       6.725   4.402  20.663  1.00  0.00     0.054 A 
HETATM   11  C6  UNL     1       6.113   3.246  21.094  1.00  0.00     0.037 A 
HETATM   12  C5  UNL     1       6.511   2.022  20.589  1.00  0.00     0.025 A 
HETATM   13 BR1  UNL     1       4.742   3.247  22.445  1.00  0.00    -0.049 Br
HETATM   14  C4  UNL     1       7.528   1.904  19.646  1.00  0.00     0.050 A 
HETATM   15  C3  UNL     1       8.112   3.090  19.247  1.00  0.00     0.108 A 
HETATM   16  N1  UNL     1       9.060   3.033  18.374  1.00  0.00    -0.314 N 
HETATM   17  N5  UNL     1       7.722   4.278  19.737  1.00  0.00    -0.341 N 
HETATM   18  C2  UNL     1       9.509   1.819  17.826  1.00  0.00     0.219 C 
ATOM     19  H1  UNL     1       9.500   3.901  18.070  1.00  0.00     0.170 HD
HETATM   20  C1  UNL     1       8.781   1.164  16.722  1.00  0.00     0.117 C 
HETATM   21  O1  UNL     1      10.550   1.282  18.285  1.00  0.00    -0.274 OA
ATOM     22  H5  UNL     1       8.189   5.122  19.406  1.00  0.00     0.167 HD
ENDBRANCH   9  10
ENDBRANCH   1   9
BRANCH   6  23
HETATM   23  N3  UNL     1       9.525   8.695  23.006  1.00  0.00    -0.311 N 
HETATM   24  C13 UNL     1       9.739   9.737  23.913  1.00  0.00     0.223 C 
HETATM   25  O2  UNL     1       9.209  10.868  23.699  1.00  0.00    -0.273 OA
ATOM     26  H3  UNL     1      10.297   8.515  22.364  1.00  0.00     0.170 HD
BRANCH  24  27
HETATM   27  C14 UNL     1      10.566   9.592  25.132  1.00  0.00     0.103 C 
BRANCH  27  28
HETATM   28  C15 UNL     1      11.138   8.244  25.352  1.00  0.00     0.010 C 
BRANCH  28  29
HETATM   29  C16 UNL     1      10.721   7.537  26.591  1.00  0.00     0.011 C 
BRANCH  29  30
HETATM   30  C17 UNL     1      11.926   6.889  27.286  1.00  0.00     0.085 C 
HETATM   31 BR2  UNL     1      13.566   7.331  26.354  1.00  0.00    -0.097 Br
ENDBRANCH  29  30
ENDBRANCH  28  29
ENDBRANCH  27  28
ENDBRANCH  24  27
ENDBRANCH   6  23
TORSDOF 7
ENDMDL
MODEL 4
REMARK VINA RESULT: -8.261228703      3.090      8.396
REMARK  7 active torsions:
REMARK  status: ('A' for Active; 'I' for Inactive)
REMARK       I    between atoms: C2_2  and  N1_4 
REMARK    1  A    between atoms: C7_11  and  C8_12 
REMARK    2  A    between atoms: C8_12  and  C9_13 
REMARK    3  A    between atoms: C12_18  and  N3_19 
REMARK       I    between atoms: N3_19  and  C13_21 
REMARK    4  A    between atoms: C13_21  and  C14_23 
REMARK    5  A    between atoms: C14_23  and  C15_24 
REMARK    6  A    between atoms: C15_24  and  C16_25 
REMARK    7  A    between atoms: C16_25  and  C17_26 
ROOT
HETATM    1  C9  UNL     1       5.901   5.622  21.455  1.00  0.00     0.109 A 
HETATM    2  N2  UNL     1       5.458   4.463  22.163  1.00  0.00    -0.343 N 
ATOM      3  H2  UNL     1       5.009   4.492  23.078  1.00  0.00     0.167 HD
HETATM    4  C10 UNL     1       5.687   3.387  21.517  1.00  0.00     0.051 A 
HETATM    5  C11 UNL     1       5.316   2.042  22.046  1.00  0.00     0.072 C 
HETATM    6  C12 UNL     1       6.327   3.709  20.272  1.00  0.00     0.132 A 
HETATM    7  N4  UNL     1       6.452   5.151  20.259  1.00  0.00    -0.327 N 
ATOM      8  H4  UNL     1       6.864   5.717  19.517  1.00  0.00     0.169 HD
ENDROOT
BRANCH   1   9
HETATM    9  C8  UNL     1       5.732   6.835  21.918  1.00  0.00     0.079 C 
BRANCH   9  10
HETATM   10  C7  UNL     1       6.512   7.472  22.966  1.00  0.00     0.054 A 
HETATM   11  C6  UNL     1       6.007   7.698  24.227  1.00  0.00     0.037 A 
HETATM   12  C5  UNL     1       6.808   8.262  25.203  1.00  0.00     0.025 A 
HETATM   13 BR1  UNL     1       4.178   7.317  24.690  1.00  0.00    -0.049 Br
HETATM   14  C4  UNL     1       8.130   8.622  24.961  1.00  0.00     0.050 A 
HETATM   15  C3  UNL     1       8.590   8.378  23.682  1.00  0.00     0.108 A 
HETATM   16  N1  UNL     1       9.810   8.695  23.407  1.00  0.00    -0.314 N 
HETATM   17  N5  UNL     1       7.810   7.828  22.735  1.00  0.00    -0.341 N 
HETATM   18  C2  UNL     1      10.671   9.272  24.356  1.00  0.00     0.219 C 
ATOM     19  H1  UNL     1      10.162   8.520  22.466  1.00  0.00     0.170 HD
HETATM   20  C1  UNL     1      11.367   8.443  25.359  1.00  0.00     0.117 C 
HETATM   21  O1  UNL     1      10.852  10.517  24.349  1.00  0.00    -0.274 OA
ATOM     22  H5  UNL     1       8.203   7.670  21.808  1.00  0.00     0.167 HD
ENDBRANCH   9  10
ENDBRANCH   1   9
BRANCH   6  23
HETATM   23  N3  UNL     1       6.724   2.946  19.345  1.00  0.00    -0.311 N 
HETATM   24  C13 UNL     1       7.721   3.146  18.385  1.00  0.00     0.223 C 
HETATM   25  O2  UNL     1       7.477   3.871  17.375  1.00  0.00    -0.273 OA
ATOM     26  H3  UNL     1       6.243   2.049  19.288  1.00  0.00     0.170 HD
BRANCH  24  27
HETATM   27  C14 UNL     1       9.071   2.549  18.485  1.00  0.00     0.103 C 
BRANCH  27  28
HETATM   28  C15 UNL     1       9.101   1.093  18.756  1.00  0.00     0.010 C 
BRANCH  28  29
HETATM   29  C16 UNL     1      10.189   0.316  18.108  1.00  0.00     0.011 C 
BRANCH  29  30
HETATM   30  C17 UNL     1       9.649  -0.515  16.936  1.00  0.00     0.085 C 
HETATM   31 BR2  UNL     1       7.722  -0.357  16.824  1.00  0.00    -0.097 Br
ENDBRANCH  29  30
ENDBRANCH  28  29
ENDBRANCH  27  28
ENDBRANCH  24  27
ENDBRANCH   6  23
TORSDOF 7
ENDMDL
MODEL 5
REMARK VINA RESULT: -8.133859748      1.986      2.554
REMARK  7 active torsions:
REMARK  status: ('A' for Active; 'I' for Inactive)
REMARK       I    between atoms: C2_2  and  N1_4 
REMARK    1  A    between atoms: C7_11  and  C8_12 
REMARK    2  A    between atoms: C8_12  and  C9_13 
REMARK    3  A    between atoms: C12_18  and  N3_19 
REMARK       I    between atoms: N3_19  and  C13_21 
REMARK    4  A    between atoms: C13_21  and  C14_23 
REMARK    5  A    between atoms: C14_23  and  C15_24 
REMARK    6  A    between atoms: C15_24  and  C16_25 
REMARK    7  A    between atoms: C16_25  and  C17_26 
ROOT
HETATM    1  C9  UNL     1       6.935   6.579  22.109  1.00  0.00     0.109 A 
HETATM    2  N2  UNL     1       6.604   6.961  23.445  1.00  0.00    -0.343 N 
ATOM      3  H2  UNL     1       5.778   6.628  23.944  1.00  0.00     0.167 HD
HETATM    4  C10 UNL     1       7.459   7.766  23.942  1.00  0.00     0.051 A 
HETATM    5  C11 UNL     1       7.336   8.309  25.327  1.00  0.00     0.072 C 
HETATM    6  C12 UNL     1       8.487   8.023  22.973  1.00  0.00     0.132 A 
HETATM    7  N4  UNL     1       8.125   7.247  21.805  1.00  0.00    -0.327 N 
ATOM      8  H4  UNL     1       8.640   7.199  20.926  1.00  0.00     0.169 HD
ENDROOT
BRANCH   1   9
HETATM    9  C8  UNL     1       6.212   5.730  21.421  1.00  0.00     0.079 C 
BRANCH   9  10
HETATM   10  C7  UNL     1       6.650   4.972  20.261  1.00  0.00     0.054 A 
HETATM   11  C6  UNL     1       6.571   5.473  18.980  1.00  0.00     0.037 A 
HETATM   12  C5  UNL     1       7.047   4.730  17.916  1.00  0.00     0.025 A 
HETATM   13 BR1  UNL     1       5.754   7.170  18.585  1.00  0.00    -0.049 Br
HETATM   14  C4  UNL     1       7.612   3.469  18.084  1.00  0.00     0.050 A 
HETATM   15  C3  UNL     1       7.666   3.009  19.385  1.00  0.00     0.108 A 
HETATM   16  N1  UNL     1       8.180   1.845  19.594  1.00  0.00    -0.314 N 
HETATM   17  N5  UNL     1       7.204   3.734  20.418  1.00  0.00    -0.341 N 
HETATM   18  C2  UNL     1       8.679   1.043  18.553  1.00  0.00     0.219 C 
ATOM     19  H1  UNL     1       8.226   1.493  20.550  1.00  0.00     0.170 HD
HETATM   20  C1  UNL     1      10.025   1.270  17.992  1.00  0.00     0.117 C 
HETATM   21  O1  UNL     1       7.965   0.116  18.092  1.00  0.00    -0.274 OA
ATOM     22  H5  UNL     1       7.270   3.344  21.359  1.00  0.00     0.167 HD
ENDBRANCH   9  10
ENDBRANCH   1   9
BRANCH   6  23
HETATM   23  N3  UNL     1       9.513   8.758  23.056  1.00  0.00    -0.311 N 
HETATM   24  C13 UNL     1       9.791   9.811  23.932  1.00  0.00     0.223 C 
HETATM   25  O2  UNL     1       9.273  10.949  23.723  1.00  0.00    -0.273 OA
ATOM     26  H3  UNL     1      10.248   8.551  22.380  1.00  0.00     0.170 HD
BRANCH  24  27
HETATM   27  C14 UNL     1      10.673   9.671  25.111  1.00  0.00     0.103 C 
BRANCH  27  28
HETATM   28  C15 UNL     1      11.198   8.307  25.351  1.00  0.00     0.010 C 
BRANCH  28  29
HETATM   29  C16 UNL     1      10.749   7.629  26.595  1.00  0.00     0.011 C 
BRANCH  29  30
HETATM   30  C17 UNL     1      11.898   6.838  27.235  1.00  0.00     0.085 C 
HETATM   31 BR2  UNL     1      13.591   7.328  26.429  1.00  0.00    -0.097 Br
ENDBRANCH  29  30
ENDBRANCH  28  29
ENDBRANCH  27  28
ENDBRANCH  24  27
ENDBRANCH   6  23
TORSDOF 7
ENDMDL
