MODEL 1
REMARK VINA RESULT: -7.480343832      0.000      0.000
REMARK  7 active torsions:
REMARK  status: ('A' for Active; 'I' for Inactive)
REMARK    1  A    between atoms: C2_2  and  C3_3 
REMARK    2  A    between atoms: C3_3  and  C4_5 
REMARK    3  A    between atoms: C4_5  and  N1_6 
REMARK    4  A    between atoms: C4_5  and  C6_10 
REMARK       I    between atoms: C6_10  and  N2_12 
REMARK       I    between atoms: N2_12  and  C7_14 
REMARK    5  A    between atoms: C7_14  and  C8_16 
REMARK    6  A    between atoms: C8_16  and  C9_17 
REMARK    7  A    between atoms: C10_18  and  C11_19 
ROOT
HETATM    1  C6  UNL     1       7.638  10.544  20.884  1.00  0.00     0.256 C 
HETATM    2  O1  UNL     1       8.771  10.021  20.751  1.00  0.00    -0.271 OA
HETATM    3  N2  UNL     1       6.683  10.016  21.777  1.00  0.00    -0.295 N 
ATOM      4  H2  UNL     1       5.772  10.466  21.861  1.00  0.00     0.171 HD
HETATM    5  C7  UNL     1       6.965   8.885  22.549  1.00  0.00     0.235 C 
HETATM    6  O2  UNL     1       6.033   8.476  23.334  1.00  0.00    -0.272 OA
ENDROOT
BRANCH   5   7
HETATM    7  C8  UNL     1       8.249   8.125  22.534  1.00  0.00     0.197 C 
BRANCH   7   8
HETATM    8  C9  UNL     1       8.054   6.866  21.766  1.00  0.00    -0.095 C 
HETATM    9  C10 UNL     1       7.916   5.844  21.141  1.00  0.00    -0.074 C 
BRANCH   9  10
HETATM   10  C11 UNL     1       7.776   4.600  20.383  1.00  0.00     0.202 C 
HETATM   11  C12 UNL     1       6.809   3.628  21.076  1.00  0.00     0.061 C 
HETATM   12  C13 UNL     1       5.691   3.285  20.116  1.00  0.00     0.071 C 
HETATM   13 BR2  UNL     1       4.539   4.807  19.845  1.00  0.00    -0.090 Br
HETATM   14  C14 UNL     1       6.285   2.827  18.787  1.00  0.00     0.055 A 
HETATM   15  C15 UNL     1       6.768   1.450  19.015  1.00  0.00    -0.018 A 
HETATM   16  C20 UNL     1       7.295   3.786  18.279  1.00  0.00     0.155 A 
HETATM   17  C16 UNL     1       8.006   1.092  18.789  1.00  0.00     0.003 A 
HETATM   18  C17 UNL     1       9.004   2.027  18.291  1.00  0.00    -0.064 A 
HETATM   19  C18 UNL     1      10.416   1.558  18.048  1.00  0.00     0.048 C 
HETATM   20  C19 UNL     1       8.644   3.266  18.066  1.00  0.00     0.012 A 
HETATM   21  O3  UNL     1       7.298   4.913  19.112  1.00  0.00    -0.364 OA
ENDBRANCH   9  10
ENDBRANCH   7   8
ENDBRANCH   5   7
BRANCH   1  22
HETATM   22  C4  UNL     1       7.332  11.765  20.051  1.00  0.00     0.291 C 
BRANCH  22  23
HETATM   23  C3  UNL     1       6.028  11.527  19.314  1.00  0.00     0.097 C 
HETATM   24 BR1  UNL     1       5.095  13.235  19.259  1.00  0.00    -0.088 Br
BRANCH  23  25
HETATM   25  C2  UNL     1       6.250  11.082  17.904  1.00  0.00     0.014 C 
HETATM   26  C1  UNL     1       5.424  11.891  16.925  1.00  0.00     0.006 C 
ENDBRANCH  23  25
ENDBRANCH  22  23
BRANCH  22  27
HETATM   27  N1  UNL     1       7.186  12.905  20.907  1.00  0.00    -0.065 N 
HETATM   28  C5  UNL     1       8.496  13.509  21.125  1.00  0.00     0.267 C 
ATOM     29  H12 UNL     1       6.504  13.574  20.548  1.00  0.00     0.277 HD
ATOM     30  H11 UNL     1       6.714  12.676  21.781  1.00  0.00     0.277 HD
ENDBRANCH  22  27
ENDBRANCH   1  22
TORSDOF 7
ENDMDL
MODEL 2
REMARK VINA RESULT: -7.379939155      2.469      4.008
REMARK  7 active torsions:
REMARK  status: ('A' for Active; 'I' for Inactive)
REMARK    1  A    between atoms: C2_2  and  C3_3 
REMARK    2  A    between atoms: C3_3  and  C4_5 
REMARK    3  A    between atoms: C4_5  and  N1_6 
REMARK    4  A    between atoms: C4_5  and  C6_10 
REMARK       I    between atoms: C6_10  and  N2_12 
REMARK       I    between atoms: N2_12  and  C7_14 
REMARK    5  A    between atoms: C7_14  and  C8_16 
REMARK    6  A    between atoms: C8_16  and  C9_17 
REMARK    7  A    between atoms: C10_18  and  C11_19 
ROOT
HETATM    1  C6  UNL     1       6.452   9.168  22.892  1.00  0.00     0.256 C 
HETATM    2  O1  UNL     1       5.575   8.794  22.077  1.00  0.00    -0.271 OA
HETATM    3  N2  UNL     1       7.745   9.536  22.465  1.00  0.00    -0.295 N 
ATOM      4  H2  UNL     1       8.435   9.836  23.154  1.00  0.00     0.171 HD
HETATM    5  C7  UNL     1       8.098   9.495  21.113  1.00  0.00     0.235 C 
HETATM    6  O2  UNL     1       9.298   9.847  20.820  1.00  0.00    -0.272 OA
ENDROOT
BRANCH   5   7
HETATM    7  C8  UNL     1       7.199   9.080  19.997  1.00  0.00     0.197 C 
BRANCH   7   8
HETATM    8  C9  UNL     1       7.328   7.612  19.794  1.00  0.00    -0.095 C 
HETATM    9  C10 UNL     1       7.416   6.420  19.640  1.00  0.00    -0.074 C 
BRANCH   9  10
HETATM   10  C11 UNL     1       7.495   4.969  19.459  1.00  0.00     0.202 C 
HETATM   11  C12 UNL     1       6.907   4.221  20.665  1.00  0.00     0.061 C 
HETATM   12  C13 UNL     1       5.794   3.316  20.182  1.00  0.00     0.071 C 
HETATM   13 BR2  UNL     1       4.268   4.356  19.624  1.00  0.00    -0.090 Br
HETATM   14  C14 UNL     1       6.301   2.459  19.026  1.00  0.00     0.055 A 
HETATM   15  C15 UNL     1       7.144   1.412  19.641  1.00  0.00    -0.018 A 
HETATM   16  C20 UNL     1       6.960   3.281  17.982  1.00  0.00     0.155 A 
HETATM   17  C16 UNL     1       8.390   1.218  19.295  1.00  0.00     0.003 A 
HETATM   18  C17 UNL     1       9.043   2.021  18.271  1.00  0.00    -0.064 A 
HETATM   19  C18 UNL     1      10.483   1.751  17.913  1.00  0.00     0.048 C 
HETATM   20  C19 UNL     1       8.355   2.967  17.683  1.00  0.00     0.012 A 
HETATM   21  O3  UNL     1       6.788   4.633  18.306  1.00  0.00    -0.364 OA
ENDBRANCH   9  10
ENDBRANCH   7   8
ENDBRANCH   5   7
BRANCH   1  22
HETATM   22  C4  UNL     1       6.074   9.212  24.352  1.00  0.00     0.291 C 
BRANCH  22  23
HETATM   23  C3  UNL     1       4.562   9.152  24.457  1.00  0.00     0.097 C 
HETATM   24 BR1  UNL     1       4.099   7.299  24.835  1.00  0.00    -0.088 Br
BRANCH  23  25
HETATM   25  C2  UNL     1       4.040   9.991  25.580  1.00  0.00     0.014 C 
HETATM   26  C1  UNL     1       2.525  10.000  25.616  1.00  0.00     0.006 C 
ENDBRANCH  23  25
ENDBRANCH  22  23
BRANCH  22  27
HETATM   27  N1  UNL     1       6.636   8.081  25.029  1.00  0.00    -0.065 N 
HETATM   28  C5  UNL     1       7.891   8.478  25.658  1.00  0.00     0.267 C 
ATOM     29  H12 UNL     1       5.984   7.663  25.692  1.00  0.00     0.277 HD
ATOM     30  H11 UNL     1       6.748   7.277  24.412  1.00  0.00     0.277 HD
ENDBRANCH  22  27
ENDBRANCH   1  22
TORSDOF 7
ENDMDL
MODEL 3
REMARK VINA RESULT: -7.360681797      3.248      4.225
REMARK  7 active torsions:
REMARK  status: ('A' for Active; 'I' for Inactive)
REMARK    1  A    between atoms: C2_2  and  C3_3 
REMARK    2  A    between atoms: C3_3  and  C4_5 
REMARK    3  A    between atoms: C4_5  and  N1_6 
REMARK    4  A    between atoms: C4_5  and  C6_10 
REMARK       I    between atoms: C6_10  and  N2_12 
REMARK       I    between atoms: N2_12  and  C7_14 
REMARK    5  A    between atoms: C7_14  and  C8_16 
REMARK    6  A    between atoms: C8_16  and  C9_17 
REMARK    7  A    between atoms: C10_18  and  C11_19 
ROOT
HETATM    1  C6  UNL     1       5.202   8.494  23.398  1.00  0.00     0.256 C 
HETATM    2  O1  UNL     1       5.478   8.752  22.202  1.00  0.00    -0.271 OA
HETATM    3  N2  UNL     1       6.183   8.024  24.296  1.00  0.00    -0.295 N 
ATOM      4  H2  UNL     1       5.925   7.824  25.262  1.00  0.00     0.171 HD
HETATM    5  C7  UNL     1       7.504   7.827  23.883  1.00  0.00     0.235 C 
HETATM    6  O2  UNL     1       8.327   7.396  24.770  1.00  0.00    -0.272 OA
ENDROOT
BRANCH   5   7
HETATM    7  C8  UNL     1       8.027   8.076  22.508  1.00  0.00     0.197 C 
BRANCH   7   8
HETATM    8  C9  UNL     1       7.912   6.823  21.715  1.00  0.00    -0.095 C 
HETATM    9  C10 UNL     1       7.833   5.799  21.084  1.00  0.00    -0.074 C 
BRANCH   9  10
HETATM   10  C11 UNL     1       7.748   4.542  20.339  1.00  0.00     0.202 C 
HETATM   11  C12 UNL     1       6.832   3.532  21.047  1.00  0.00     0.061 C 
HETATM   12  C13 UNL     1       5.726   3.127  20.096  1.00  0.00     0.071 C 
HETATM   13 BR2  UNL     1       4.501   4.590  19.818  1.00  0.00    -0.090 Br
HETATM   14  C14 UNL     1       6.334   2.685  18.768  1.00  0.00     0.055 A 
HETATM   15  C15 UNL     1       6.884   1.334  19.006  1.00  0.00    -0.018 A 
HETATM   16  C20 UNL     1       7.294   3.686  18.245  1.00  0.00     0.155 A 
HETATM   17  C16 UNL     1       8.136   1.033  18.775  1.00  0.00     0.003 A 
HETATM   18  C17 UNL     1       9.085   2.011  18.263  1.00  0.00    -0.064 A 
HETATM   19  C18 UNL     1      10.516   1.607  18.016  1.00  0.00     0.048 C 
HETATM   20  C19 UNL     1       8.666   3.228  18.029  1.00  0.00     0.012 A 
HETATM   21  O3  UNL     1       7.248   4.819  19.068  1.00  0.00    -0.364 OA
ENDBRANCH   9  10
ENDBRANCH   7   8
ENDBRANCH   5   7
BRANCH   1  22
HETATM   22  C4  UNL     1       3.777   8.706  23.846  1.00  0.00     0.291 C 
BRANCH  22  23
HETATM   23  C3  UNL     1       3.698   8.436  25.337  1.00  0.00     0.097 C 
HETATM   24 BR1  UNL     1       3.427  10.158  26.205  1.00  0.00    -0.088 Br
BRANCH  23  25
HETATM   25  C2  UNL     1       2.540   7.558  25.691  1.00  0.00     0.014 C 
HETATM   26  C1  UNL     1       1.286   8.365  25.957  1.00  0.00     0.006 C 
ENDBRANCH  23  25
ENDBRANCH  22  23
BRANCH  22  27
HETATM   27  N1  UNL     1       3.391  10.063  23.595  1.00  0.00    -0.065 N 
HETATM   28  C5  UNL     1       2.295  10.076  22.632  1.00  0.00     0.267 C 
ATOM     29  H12 UNL     1       3.161  10.566  24.452  1.00  0.00     0.277 HD
ATOM     30  H11 UNL     1       4.176  10.641  23.296  1.00  0.00     0.277 HD
ENDBRANCH  22  27
ENDBRANCH   1  22
TORSDOF 7
ENDMDL
MODEL 4
REMARK VINA RESULT: -7.343776259      2.588      4.058
REMARK  7 active torsions:
REMARK  status: ('A' for Active; 'I' for Inactive)
REMARK    1  A    between atoms: C2_2  and  C3_3 
REMARK    2  A    between atoms: C3_3  and  C4_5 
REMARK    3  A    between atoms: C4_5  and  N1_6 
REMARK    4  A    between atoms: C4_5  and  C6_10 
REMARK       I    between atoms: C6_10  and  N2_12 
REMARK       I    between atoms: N2_12  and  C7_14 
REMARK    5  A    between atoms: C7_14  and  C8_16 
REMARK    6  A    between atoms: C8_16  and  C9_17 
REMARK    7  A    between atoms: C10_18  and  C11_19 
ROOT
HETATM    1  C6  UNL     1       8.737   9.234  22.909  1.00  0.00     0.256 C 
HETATM    2  O1  UNL     1       9.607   8.868  22.083  1.00  0.00    -0.271 OA
HETATM    3  N2  UNL     1       7.443   9.616  22.495  1.00  0.00    -0.295 N 
ATOM      4  H2  UNL     1       6.759   9.908  23.193  1.00  0.00     0.171 HD
HETATM    5  C7  UNL     1       7.083   9.601  21.144  1.00  0.00     0.235 C 
HETATM    6  O2  UNL     1       5.884   9.966  20.863  1.00  0.00    -0.272 OA
ENDROOT
BRANCH   5   7
HETATM    7  C8  UNL     1       7.973   9.198  20.017  1.00  0.00     0.197 C 
BRANCH   7   8
HETATM    8  C9  UNL     1       7.865   7.728  19.819  1.00  0.00    -0.095 C 
HETATM    9  C10 UNL     1       7.798   6.535  19.662  1.00  0.00    -0.074 C 
BRANCH   9  10
HETATM   10  C11 UNL     1       7.740   5.083  19.484  1.00  0.00     0.202 C 
HETATM   11  C12 UNL     1       7.063   4.398  20.681  1.00  0.00     0.061 C 
HETATM   12  C13 UNL     1       5.876   3.603  20.181  1.00  0.00     0.071 C 
HETATM   13 BR2  UNL     1       4.467   4.784  19.598  1.00  0.00    -0.090 Br
HETATM   14  C14 UNL     1       6.317   2.698  19.034  1.00  0.00     0.055 A 
HETATM   15  C15 UNL     1       7.045   1.577  19.663  1.00  0.00    -0.018 A 
HETATM   16  C20 UNL     1       7.067   3.450  18.000  1.00  0.00     0.155 A 
HETATM   17  C16 UNL     1       8.272   1.262  19.336  1.00  0.00     0.003 A 
HETATM   18  C17 UNL     1       9.015   1.996  18.323  1.00  0.00    -0.064 A 
HETATM   19  C18 UNL     1      10.427   1.588  17.987  1.00  0.00     0.048 C 
HETATM   20  C19 UNL     1       8.431   3.003  17.723  1.00  0.00     0.012 A 
HETATM   21  O3  UNL     1       7.021   4.814  18.320  1.00  0.00    -0.364 OA
ENDBRANCH   9  10
ENDBRANCH   7   8
ENDBRANCH   5   7
BRANCH   1  22
HETATM   22  C4  UNL     1       9.122   9.251  24.367  1.00  0.00     0.291 C 
BRANCH  22  23
HETATM   23  C3  UNL     1       8.439   8.086  25.057  1.00  0.00     0.097 C 
HETATM   24 BR1  UNL     1       9.489   7.682  26.647  1.00  0.00    -0.088 Br
BRANCH  23  25
HETATM   25  C2  UNL     1       7.052   8.427  25.500  1.00  0.00     0.014 C 
HETATM   26  C1  UNL     1       6.027   7.479  24.911  1.00  0.00     0.006 C 
ENDBRANCH  23  25
ENDBRANCH  22  23
BRANCH  22  27
HETATM   27  N1  UNL     1      10.542   9.102  24.490  1.00  0.00    -0.065 N 
HETATM   28  C5  UNL     1      11.115  10.361  24.955  1.00  0.00     0.267 C 
ATOM     29  H12 UNL     1      10.800   8.315  25.086  1.00  0.00     0.277 HD
ATOM     30  H11 UNL     1      10.974   8.775  23.627  1.00  0.00     0.277 HD
ENDBRANCH  22  27
ENDBRANCH   1  22
TORSDOF 7
ENDMDL
MODEL 5
REMARK VINA RESULT: -7.320661474      1.374      1.880
REMARK  7 active torsions:
REMARK  status: ('A' for Active; 'I' for Inactive)
REMARK    1  A    between atoms: C2_2  and  C3_3 
REMARK    2  A    between atoms: C3_3  and  C4_5 
REMARK    3  A    between atoms: C4_5  and  N1_6 
REMARK    4  A    between atoms: C4_5  and  C6_10 
REMARK       I    between atoms: C6_10  and  N2_12 
REMARK       I    between atoms: N2_12  and  C7_14 
REMARK    5  A    between atoms: C7_14  and  C8_16 
REMARK    6  A    between atoms: C8_16  and  C9_17 
REMARK    7  A    between atoms: C10_18  and  C11_19 
ROOT
HETATM    1  C6  UNL     1       6.911   9.971  20.958  1.00  0.00     0.256 C 
HETATM    2  O1  UNL     1       6.028   9.186  21.380  1.00  0.00    -0.271 OA
HETATM    3  N2  UNL     1       8.252   9.868  21.383  1.00  0.00    -0.295 N 
ATOM      4  H2  UNL     1       8.945  10.523  21.020  1.00  0.00     0.171 HD
HETATM    5  C7  UNL     1       8.648   8.884  22.294  1.00  0.00     0.235 C 
HETATM    6  O2  UNL     1       9.889   8.868  22.622  1.00  0.00    -0.272 OA
ENDROOT
BRANCH   5   7
HETATM    7  C8  UNL     1       7.750   7.862  22.906  1.00  0.00     0.197 C 
BRANCH   7   8
HETATM    8  C9  UNL     1       7.722   6.659  22.031  1.00  0.00    -0.095 C 
HETATM    9  C10 UNL     1       7.693   5.673  21.338  1.00  0.00    -0.074 C 
BRANCH   9  10
HETATM   10  C11 UNL     1       7.643   4.463  20.516  1.00  0.00     0.202 C 
HETATM   11  C12 UNL     1       6.736   3.395  21.145  1.00  0.00     0.061 C 
HETATM   12  C13 UNL     1       5.652   3.029  20.153  1.00  0.00     0.071 C 
HETATM   13 BR2  UNL     1       4.404   4.485  19.946  1.00  0.00    -0.090 Br
HETATM   14  C14 UNL     1       6.288   2.682  18.810  1.00  0.00     0.055 A 
HETATM   15  C15 UNL     1       6.860   1.330  18.974  1.00  0.00    -0.018 A 
HETATM   16  C20 UNL     1       7.238   3.731  18.366  1.00  0.00     0.155 A 
HETATM   17  C16 UNL     1       8.121   1.066  18.745  1.00  0.00     0.003 A 
HETATM   18  C17 UNL     1       9.059   2.090  18.310  1.00  0.00    -0.064 A 
HETATM   19  C18 UNL     1      10.501   1.728  18.061  1.00  0.00     0.048 C 
HETATM   20  C19 UNL     1       8.620   3.312  18.144  1.00  0.00     0.012 A 
HETATM   21  O3  UNL     1       7.157   4.810  19.256  1.00  0.00    -0.364 OA
ENDBRANCH   9  10
ENDBRANCH   7   8
ENDBRANCH   5   7
BRANCH   1  22
HETATM   22  C4  UNL     1       6.487  11.035  19.976  1.00  0.00     0.291 C 
BRANCH  22  23
HETATM   23  C3  UNL     1       6.299  12.337  20.731  1.00  0.00     0.097 C 
HETATM   24 BR1  UNL     1       8.078  13.069  21.035  1.00  0.00    -0.088 Br
BRANCH  23  25
HETATM   25  C2  UNL     1       5.522  13.340  19.940  1.00  0.00     0.014 C 
HETATM   26  C1  UNL     1       4.193  12.780  19.476  1.00  0.00     0.006 C 
ENDBRANCH  23  25
ENDBRANCH  22  23
BRANCH  22  27
HETATM   27  N1  UNL     1       7.508  11.209  18.986  1.00  0.00    -0.065 N 
HETATM   28  C5  UNL     1       7.129  10.485  17.777  1.00  0.00     0.267 C 
ATOM     29  H12 UNL     1       7.708  12.193  18.803  1.00  0.00     0.277 HD
ATOM     30  H11 UNL     1       8.430  10.938  19.328  1.00  0.00     0.277 HD
ENDBRANCH  22  27
ENDBRANCH   1  22
TORSDOF 7
ENDMDL
