MODEL 1
REMARK VINA RESULT: -10.430660967      0.000      0.000
REMARK  5 active torsions:
REMARK  status: ('A' for Active; 'I' for Inactive)
REMARK    1  A    between atoms: N2_6  and  C4_7 
REMARK    2  A    between atoms: C7_10  and  N3_11 
REMARK    3  A    between atoms: C7_10  and  C19_27 
REMARK       I    between atoms: N3_11  and  C8_13 
REMARK    4  A    between atoms: C8_13  and  C9_15 
REMARK       I    between atoms: C19_27  and  N4_29 
REMARK    5  A    between atoms: N4_29  and  C20_31 
ROOT
HETATM    1  C4  UNL     1       8.180   8.651  22.545  1.00  0.00     0.083 C 
HETATM    2  C5  UNL     1       9.021   8.504  21.297  1.00  0.00     0.028 C 
HETATM    3  C6  UNL     1       8.263   7.925  20.124  1.00  0.00     0.043 C 
HETATM    4  C7  UNL     1       7.484   6.709  20.471  1.00  0.00     0.114 C 
HETATM    5  C24 UNL     1       7.761   6.304  21.925  1.00  0.00     0.043 C 
HETATM    6  C25 UNL     1       7.359   7.454  22.817  1.00  0.00     0.028 C 
ENDROOT
BRANCH   4   7
HETATM    7  N3  UNL     1       7.788   5.563  19.603  1.00  0.00    -0.342 N 
HETATM    8  C8  UNL     1       7.569   4.214  19.946  1.00  0.00     0.233 C 
HETATM    9  O1  UNL     1       7.083   3.905  21.062  1.00  0.00    -0.272 OA
ATOM     10  H3  UNL     1       8.186   5.759  18.685  1.00  0.00     0.163 HD
BRANCH   8  11
HETATM   11  C9  UNL     1       7.899   3.111  19.013  1.00  0.00     0.107 C 
HETATM   12  C10 UNL     1       9.361   3.225  18.626  1.00  0.00     0.030 C 
HETATM   13  C11 UNL     1       9.828   2.118  17.743  1.00  0.00    -0.012 C 
HETATM   14  C12 UNL     1       9.563   0.804  18.439  1.00  0.00     0.009 C 
HETATM   15  C16 UNL     1       9.058   2.223  16.434  1.00  0.00     0.015 C 
HETATM   16  C13 UNL     1       8.082   0.670  18.709  1.00  0.00    -0.012 C 
HETATM   17  C14 UNL     1       7.376   0.724  17.357  1.00  0.00     0.015 C 
HETATM   18  C18 UNL     1       7.572   1.752  19.608  1.00  0.00     0.030 C 
HETATM   19  C15 UNL     1       7.603   2.111  16.786  1.00  0.00     0.060 C 
HETATM   20  C17 UNL     1       7.119   3.206  17.703  1.00  0.00     0.263 C 
HETATM   21  F2  UNL     1       5.776   3.044  17.859  1.00  0.00    -0.205 F 
HETATM   22  F3  UNL     1       7.346   4.401  17.058  1.00  0.00    -0.205 F 
ENDBRANCH   8  11
ENDBRANCH   4   7
BRANCH   4  23
HETATM   23  C19 UNL     1       6.039   6.964  20.286  1.00  0.00     0.246 C 
HETATM   24  O2  UNL     1       5.701   8.001  19.662  1.00  0.00    -0.271 OA
HETATM   25  N4  UNL     1       5.016   6.131  20.759  1.00  0.00    -0.354 N 
ATOM     26  H4  UNL     1       5.278   5.288  21.271  1.00  0.00     0.162 HD
BRANCH  25  27
HETATM   27  C20 UNL     1       3.602   6.403  20.562  1.00  0.00     0.084 C 
HETATM   28  C21 UNL     1       2.941   7.093  21.736  1.00  0.00     0.025 C 
HETATM   29  C22 UNL     1       1.994   5.936  21.946  1.00  0.00     0.004 C 
HETATM   30  C23 UNL     1       2.794   5.172  20.896  1.00  0.00     0.025 C 
ENDBRANCH  25  27
ENDBRANCH   4  23
BRANCH   1  31
HETATM   31  N2  UNL     1       9.005   9.139  23.591  1.00  0.00    -0.385 N 
HETATM   32  C3  UNL     1      10.397   9.122  23.454  1.00  0.00     0.089 C 
HETATM   33  C2  UNL     1      11.222   8.628  24.585  1.00  0.00     0.322 C 
HETATM   34  N1  UNL     1      10.571   8.496  25.848  1.00  0.00     0.085 N 
HETATM   35  C1  UNL     1      11.290   7.453  26.598  1.00  0.00     0.317 C 
HETATM   36  F1  UNL     1      10.672   9.661  26.554  1.00  0.00    -0.018 F 
HETATM   37  C27 UNL     1       9.197   8.083  25.787  1.00  0.00     0.298 C 
HETATM   38  C26 UNL     1       8.477   9.073  24.899  1.00  0.00     0.153 C 
ENDBRANCH   1  31
TORSDOF 5
ENDMDL
MODEL 2
REMARK VINA RESULT: -10.289008968      1.961      2.679
REMARK  5 active torsions:
REMARK  status: ('A' for Active; 'I' for Inactive)
REMARK    1  A    between atoms: N2_6  and  C4_7 
REMARK    2  A    between atoms: C7_10  and  N3_11 
REMARK    3  A    between atoms: C7_10  and  C19_27 
REMARK       I    between atoms: N3_11  and  C8_13 
REMARK    4  A    between atoms: C8_13  and  C9_15 
REMARK       I    between atoms: C19_27  and  N4_29 
REMARK    5  A    between atoms: N4_29  and  C20_31 
ROOT
HETATM    1  C4  UNL     1       7.527   8.880  22.180  1.00  0.00     0.083 C 
HETATM    2  C5  UNL     1       8.731   8.271  21.499  1.00  0.00     0.028 C 
HETATM    3  C6  UNL     1       8.480   7.892  20.056  1.00  0.00     0.043 C 
HETATM    4  C7  UNL     1       7.226   7.121  19.862  1.00  0.00     0.114 C 
HETATM    5  C24 UNL     1       6.579   6.819  21.220  1.00  0.00     0.043 C 
HETATM    6  C25 UNL     1       6.283   8.133  21.901  1.00  0.00     0.028 C 
ENDROOT
BRANCH   4   7
HETATM    7  N3  UNL     1       7.435   5.851  19.153  1.00  0.00    -0.342 N 
HETATM    8  C8  UNL     1       7.743   4.625  19.774  1.00  0.00     0.233 C 
HETATM    9  O1  UNL     1       7.864   4.548  21.022  1.00  0.00    -0.272 OA
ATOM     10  H3  UNL     1       7.351   5.858  18.137  1.00  0.00     0.163 HD
BRANCH   8  11
HETATM   11  C9  UNL     1       7.938   3.383  18.990  1.00  0.00     0.107 C 
HETATM   12  C10 UNL     1       9.380   3.323  18.525  1.00  0.00     0.030 C 
HETATM   13  C11 UNL     1       9.712   2.072  17.785  1.00  0.00    -0.012 C 
HETATM   14  C12 UNL     1       9.388   0.890  18.667  1.00  0.00     0.009 C 
HETATM   15  C16 UNL     1       8.881   2.063  16.510  1.00  0.00     0.015 C 
HETATM   16  C13 UNL     1       7.919   0.916  19.019  1.00  0.00    -0.012 C 
HETATM   17  C14 UNL     1       7.145   0.845  17.706  1.00  0.00     0.015 C 
HETATM   18  C18 UNL     1       7.542   2.147  19.782  1.00  0.00     0.030 C 
HETATM   19  C15 UNL     1       7.444   2.119  16.938  1.00  0.00     0.060 C 
HETATM   20  C17 UNL     1       7.095   3.364  17.715  1.00  0.00     0.263 C 
HETATM   21  F2  UNL     1       5.755   3.335  17.952  1.00  0.00    -0.205 F 
HETATM   22  F3  UNL     1       7.376   4.438  16.901  1.00  0.00    -0.205 F 
ENDBRANCH   8  11
ENDBRANCH   4   7
BRANCH   4  23
HETATM   23  C19 UNL     1       6.286   7.888  19.015  1.00  0.00     0.246 C 
HETATM   24  O2  UNL     1       5.141   7.407  18.828  1.00  0.00    -0.271 OA
HETATM   25  N4  UNL     1       6.583   9.113  18.403  1.00  0.00    -0.354 N 
ATOM     26  H4  UNL     1       7.512   9.511  18.545  1.00  0.00     0.162 HD
BRANCH  25  27
HETATM   27  C20 UNL     1       5.639   9.848  17.576  1.00  0.00     0.084 C 
HETATM   28  C21 UNL     1       6.018   9.897  16.111  1.00  0.00     0.025 C 
HETATM   29  C22 UNL     1       6.124  11.403  16.139  1.00  0.00     0.004 C 
HETATM   30  C23 UNL     1       5.939  11.325  17.651  1.00  0.00     0.025 C 
ENDBRANCH  25  27
ENDBRANCH   4  23
BRANCH   1  31
HETATM   31  N2  UNL     1       7.856   9.135  23.536  1.00  0.00    -0.385 N 
HETATM   32  C3  UNL     1       8.950   9.947  23.853  1.00  0.00     0.089 C 
HETATM   33  C2  UNL     1       9.897   9.496  24.904  1.00  0.00     0.322 C 
HETATM   34  N1  UNL     1       9.466   8.423  25.741  1.00  0.00     0.085 N 
HETATM   35  C1  UNL     1      10.677   7.733  26.218  1.00  0.00     0.317 C 
HETATM   36  F1  UNL     1       8.808   8.911  26.833  1.00  0.00    -0.018 F 
HETATM   37  C27 UNL     1       8.658   7.428  25.093  1.00  0.00     0.298 C 
HETATM   38  C26 UNL     1       7.480   8.150  24.476  1.00  0.00     0.153 C 
ENDBRANCH   1  31
TORSDOF 5
ENDMDL
MODEL 3
REMARK VINA RESULT: -10.185891640      2.750      4.063
REMARK  5 active torsions:
REMARK  status: ('A' for Active; 'I' for Inactive)
REMARK    1  A    between atoms: N2_6  and  C4_7 
REMARK    2  A    between atoms: C7_10  and  N3_11 
REMARK    3  A    between atoms: C7_10  and  C19_27 
REMARK       I    between atoms: N3_11  and  C8_13 
REMARK    4  A    between atoms: C8_13  and  C9_15 
REMARK       I    between atoms: C19_27  and  N4_29 
REMARK    5  A    between atoms: N4_29  and  C20_31 
ROOT
HETATM    1  C4  UNL     1       6.375   8.414  22.924  1.00  0.00     0.083 C 
HETATM    2  C5  UNL     1       7.452   7.355  22.989  1.00  0.00     0.028 C 
HETATM    3  C6  UNL     1       8.229   7.205  21.700  1.00  0.00     0.043 C 
HETATM    4  C7  UNL     1       7.361   7.106  20.500  1.00  0.00     0.114 C 
HETATM    5  C24 UNL     1       5.885   7.069  20.920  1.00  0.00     0.043 C 
HETATM    6  C25 UNL     1       5.582   8.336  21.680  1.00  0.00     0.028 C 
ENDROOT
BRANCH   4   7
HETATM    7  N3  UNL     1       7.643   5.919  19.682  1.00  0.00    -0.342 N 
HETATM    8  C8  UNL     1       7.362   4.592  20.066  1.00  0.00     0.233 C 
HETATM    9  O1  UNL     1       6.836   4.342  21.178  1.00  0.00    -0.272 OA
ATOM     10  H3  UNL     1       8.072   6.065  18.768  1.00  0.00     0.163 HD
BRANCH   8  11
HETATM   11  C9  UNL     1       7.674   3.445  19.183  1.00  0.00     0.107 C 
HETATM   12  C10 UNL     1       9.126   3.540  18.758  1.00  0.00     0.030 C 
HETATM   13  C11 UNL     1       9.576   2.390  17.921  1.00  0.00    -0.012 C 
HETATM   14  C12 UNL     1       9.328   1.113  18.688  1.00  0.00     0.009 C 
HETATM   15  C16 UNL     1       8.777   2.429  16.626  1.00  0.00     0.015 C 
HETATM   16  C13 UNL     1       7.855   0.991  18.997  1.00  0.00    -0.012 C 
HETATM   17  C14 UNL     1       7.119   0.977  17.660  1.00  0.00     0.015 C 
HETATM   18  C18 UNL     1       7.362   2.116  19.852  1.00  0.00     0.030 C 
HETATM   19  C15 UNL     1       7.330   2.334  17.015  1.00  0.00     0.060 C 
HETATM   20  C17 UNL     1       6.865   3.473  17.887  1.00  0.00     0.263 C 
HETATM   21  F2  UNL     1       5.526   3.318  18.081  1.00  0.00    -0.205 F 
HETATM   22  F3  UNL     1       7.076   4.634  17.178  1.00  0.00    -0.205 F 
ENDBRANCH   8  11
ENDBRANCH   4   7
BRANCH   4  23
HETATM   23  C19 UNL     1       7.601   8.260  19.606  1.00  0.00     0.246 C 
HETATM   24  O2  UNL     1       8.697   8.864  19.710  1.00  0.00    -0.271 OA
HETATM   25  N4  UNL     1       6.690   8.730  18.650  1.00  0.00    -0.354 N 
ATOM     26  H4  UNL     1       5.795   8.249  18.559  1.00  0.00     0.162 HD
BRANCH  25  27
HETATM   27  C20 UNL     1       6.952   9.865  17.780  1.00  0.00     0.084 C 
HETATM   28  C21 UNL     1       6.335  11.161  18.263  1.00  0.00     0.025 C 
HETATM   29  C22 UNL     1       5.482  11.274  17.022  1.00  0.00     0.004 C 
HETATM   30  C23 UNL     1       5.960   9.876  16.643  1.00  0.00     0.025 C 
ENDBRANCH  25  27
ENDBRANCH   4  23
BRANCH   1  31
HETATM   31  N2  UNL     1       5.674   8.422  24.157  1.00  0.00    -0.385 N 
HETATM   32  C3  UNL     1       5.029   7.265  24.606  1.00  0.00     0.089 C 
HETATM   33  C2  UNL     1       3.646   7.375  25.134  1.00  0.00     0.322 C 
HETATM   34  N1  UNL     1       3.177   8.687  25.442  1.00  0.00     0.085 N 
HETATM   35  C1  UNL     1       1.710   8.664  25.313  1.00  0.00     0.317 C 
HETATM   36  F1  UNL     1       3.475   9.003  26.737  1.00  0.00    -0.018 F 
HETATM   37  C27 UNL     1       3.647   9.726  24.569  1.00  0.00     0.298 C 
HETATM   38  C26 UNL     1       5.159   9.665  24.585  1.00  0.00     0.153 C 
ENDBRANCH   1  31
TORSDOF 5
ENDMDL
MODEL 4
REMARK VINA RESULT: -10.185636646      2.225      3.136
REMARK  5 active torsions:
REMARK  status: ('A' for Active; 'I' for Inactive)
REMARK    1  A    between atoms: N2_6  and  C4_7 
REMARK    2  A    between atoms: C7_10  and  N3_11 
REMARK    3  A    between atoms: C7_10  and  C19_27 
REMARK       I    between atoms: N3_11  and  C8_13 
REMARK    4  A    between atoms: C8_13  and  C9_15 
REMARK       I    between atoms: C19_27  and  N4_29 
REMARK    5  A    between atoms: N4_29  and  C20_31 
ROOT
HETATM    1  C4  UNL     1       7.209   8.829  21.801  1.00  0.00     0.083 C 
HETATM    2  C5  UNL     1       8.442   8.216  21.177  1.00  0.00     0.028 C 
HETATM    3  C6  UNL     1       8.253   7.822  19.729  1.00  0.00     0.043 C 
HETATM    4  C7  UNL     1       7.010   7.046  19.490  1.00  0.00     0.114 C 
HETATM    5  C24 UNL     1       6.306   6.756  20.823  1.00  0.00     0.043 C 
HETATM    6  C25 UNL     1       5.979   8.076  21.477  1.00  0.00     0.028 C 
ENDROOT
BRANCH   4   7
HETATM    7  N3  UNL     1       7.251   5.769  18.804  1.00  0.00    -0.342 N 
HETATM    8  C8  UNL     1       7.794   4.619  19.411  1.00  0.00     0.233 C 
HETATM    9  O1  UNL     1       8.117   4.625  20.625  1.00  0.00    -0.272 OA
ATOM     10  H3  UNL     1       7.008   5.711  17.815  1.00  0.00     0.163 HD
BRANCH   8  11
HETATM   11  C9  UNL     1       8.005   3.365  18.652  1.00  0.00     0.107 C 
HETATM   12  C10 UNL     1       7.454   3.547  17.251  1.00  0.00     0.030 C 
HETATM   13  C11 UNL     1       7.680   2.367  16.368  1.00  0.00    -0.012 C 
HETATM   14  C12 UNL     1       9.161   2.076  16.323  1.00  0.00     0.009 C 
HETATM   15  C16 UNL     1       6.898   1.201  16.956  1.00  0.00     0.015 C 
HETATM   16  C13 UNL     1       9.657   1.787  17.720  1.00  0.00    -0.012 C 
HETATM   17  C14 UNL     1       8.879   0.577  18.228  1.00  0.00     0.015 C 
HETATM   18  C18 UNL     1       9.468   2.953  18.639  1.00  0.00     0.030 C 
HETATM   19  C15 UNL     1       7.425   0.995  18.347  1.00  0.00     0.060 C 
HETATM   20  C17 UNL     1       7.233   2.189  19.247  1.00  0.00     0.263 C 
HETATM   21  F2  UNL     1       7.659   1.835  20.491  1.00  0.00    -0.205 F 
HETATM   22  F3  UNL     1       5.880   2.440  19.299  1.00  0.00    -0.205 F 
ENDBRANCH   8  11
ENDBRANCH   4   7
BRANCH   4  23
HETATM   23  C19 UNL     1       6.105   7.802  18.597  1.00  0.00     0.246 C 
HETATM   24  O2  UNL     1       5.006   7.274  18.293  1.00  0.00    -0.271 OA
HETATM   25  N4  UNL     1       6.387   9.065  18.061  1.00  0.00    -0.354 N 
ATOM     26  H4  UNL     1       7.278   9.502  18.298  1.00  0.00     0.162 HD
BRANCH  25  27
HETATM   27  C20 UNL     1       5.478   9.788  17.186  1.00  0.00     0.084 C 
HETATM   28  C21 UNL     1       5.981   9.931  15.765  1.00  0.00     0.025 C 
HETATM   29  C22 UNL     1       5.996  11.438  15.870  1.00  0.00     0.004 C 
HETATM   30  C23 UNL     1       5.683  11.274  17.354  1.00  0.00     0.025 C 
ENDBRANCH  25  27
ENDBRANCH   4  23
BRANCH   1  31
HETATM   31  N2  UNL     1       7.480   9.098  23.167  1.00  0.00    -0.385 N 
HETATM   32  C3  UNL     1       8.467  10.024  23.518  1.00  0.00     0.089 C 
HETATM   33  C2  UNL     1       9.438   9.667  24.583  1.00  0.00     0.322 C 
HETATM   34  N1  UNL     1       9.116   8.539  25.396  1.00  0.00     0.085 N 
HETATM   35  C1  UNL     1      10.387   7.984  25.890  1.00  0.00     0.317 C 
HETATM   36  F1  UNL     1       8.385   8.933  26.481  1.00  0.00    -0.018 F 
HETATM   37  C27 UNL     1       8.439   7.470  24.718  1.00  0.00     0.298 C 
HETATM   38  C26 UNL     1       7.199   8.062  24.085  1.00  0.00     0.153 C 
ENDBRANCH   1  31
TORSDOF 5
ENDMDL
MODEL 5
REMARK VINA RESULT: -10.079155638      1.284      1.555
REMARK  5 active torsions:
REMARK  status: ('A' for Active; 'I' for Inactive)
REMARK    1  A    between atoms: N2_6  and  C4_7 
REMARK    2  A    between atoms: C7_10  and  N3_11 
REMARK    3  A    between atoms: C7_10  and  C19_27 
REMARK       I    between atoms: N3_11  and  C8_13 
REMARK    4  A    between atoms: C8_13  and  C9_15 
REMARK       I    between atoms: C19_27  and  N4_29 
REMARK    5  A    between atoms: N4_29  and  C20_31 
ROOT
HETATM    1  C4  UNL     1       8.141   8.696  22.467  1.00  0.00     0.083 C 
HETATM    2  C5  UNL     1       9.006   8.507  21.242  1.00  0.00     0.028 C 
HETATM    3  C6  UNL     1       8.254   7.951  20.053  1.00  0.00     0.043 C 
HETATM    4  C7  UNL     1       7.419   6.770  20.387  1.00  0.00     0.114 C 
HETATM    5  C24 UNL     1       7.643   6.364  21.850  1.00  0.00     0.043 C 
HETATM    6  C25 UNL     1       7.265   7.534  22.725  1.00  0.00     0.028 C 
ENDROOT
BRANCH   4   7
HETATM    7  N3  UNL     1       7.698   5.608  19.533  1.00  0.00    -0.342 N 
HETATM    8  C8  UNL     1       7.681   4.267  19.968  1.00  0.00     0.233 C 
HETATM    9  O1  UNL     1       7.417   3.982  21.163  1.00  0.00    -0.272 OA
ATOM     10  H3  UNL     1       7.919   5.783  18.553  1.00  0.00     0.163 HD
BRANCH   8  11
HETATM   11  C9  UNL     1       7.971   3.146  19.045  1.00  0.00     0.107 C 
HETATM   12  C10 UNL     1       9.422   3.235  18.614  1.00  0.00     0.030 C 
HETATM   13  C11 UNL     1       9.850   2.108  17.736  1.00  0.00    -0.012 C 
HETATM   14  C12 UNL     1       9.588   0.809  18.460  1.00  0.00     0.009 C 
HETATM   15  C16 UNL     1       9.044   2.203  16.448  1.00  0.00     0.015 C 
HETATM   16  C13 UNL     1       8.114   0.698  18.774  1.00  0.00    -0.012 C 
HETATM   17  C14 UNL     1       7.371   0.740  17.442  1.00  0.00     0.015 C 
HETATM   18  C18 UNL     1       7.643   1.800  19.670  1.00  0.00     0.030 C 
HETATM   19  C15 UNL     1       7.599   2.115  16.843  1.00  0.00     0.060 C 
HETATM   20  C17 UNL     1       7.155   3.231  17.755  1.00  0.00     0.263 C 
HETATM   21  F2  UNL     1       5.815   3.088  17.952  1.00  0.00    -0.205 F 
HETATM   22  F3  UNL     1       7.379   4.412  17.086  1.00  0.00    -0.205 F 
ENDBRANCH   8  11
ENDBRANCH   4   7
BRANCH   4  23
HETATM   23  C19 UNL     1       5.990   7.081  20.164  1.00  0.00     0.246 C 
HETATM   24  O2  UNL     1       5.146   6.195  20.447  1.00  0.00    -0.271 OA
HETATM   25  N4  UNL     1       5.509   8.295  19.656  1.00  0.00    -0.354 N 
ATOM     26  H4  UNL     1       6.185   9.022  19.419  1.00  0.00     0.162 HD
BRANCH  25  27
HETATM   27  C20 UNL     1       4.097   8.577  19.448  1.00  0.00     0.084 C 
HETATM   28  C21 UNL     1       3.824   9.511  18.288  1.00  0.00     0.025 C 
HETATM   29  C22 UNL     1       3.198  10.538  19.200  1.00  0.00     0.004 C 
HETATM   30  C23 UNL     1       3.656   9.683  20.376  1.00  0.00     0.025 C 
ENDBRANCH  25  27
ENDBRANCH   4  23
BRANCH   1  31
HETATM   31  N2  UNL     1       8.959   9.157  23.531  1.00  0.00    -0.385 N 
HETATM   32  C3  UNL     1      10.352   9.075  23.432  1.00  0.00     0.089 C 
HETATM   33  C2  UNL     1      11.123   8.556  24.590  1.00  0.00     0.322 C 
HETATM   34  N1  UNL     1      10.432   8.467  25.836  1.00  0.00     0.085 N 
HETATM   35  C1  UNL     1      11.082   7.400  26.616  1.00  0.00     0.317 C 
HETATM   36  F1  UNL     1      10.566   9.633  26.534  1.00  0.00    -0.018 F 
HETATM   37  C27 UNL     1       9.043   8.115  25.741  1.00  0.00     0.298 C 
HETATM   38  C26 UNL     1       8.393   9.128  24.825  1.00  0.00     0.153 C 
ENDBRANCH   1  31
TORSDOF 5
ENDMDL
