MODEL 1
REMARK VINA RESULT: -7.425609730      0.000      0.000
REMARK  14 active torsions:
REMARK  status: ('A' for Active; 'I' for Inactive)
REMARK    1  A    between atoms: C2_2  and  C3_3 
REMARK    2  A    between atoms: C3_3  and  C5_5 
REMARK    3  A    between atoms: C5_5  and  C6_6 
REMARK    4  A    between atoms: C6_6  and  C7_7 
REMARK    5  A    between atoms: C6_6  and  N2_19 
REMARK    6  A    between atoms: C7_7  and  C8_8 
REMARK    7  A    between atoms: C8_8  and  N1_10 
REMARK       I    between atoms: N1_10  and  C10_12 
REMARK    8  A    between atoms: C10_12  and  O2_14 
REMARK    9  A    between atoms: O2_14  and  C11_15 
REMARK       I    between atoms: N2_19  and  C14_21 
REMARK   10  A    between atoms: C14_21  and  C15_23 
REMARK       I    between atoms: N3_28  and  C20_29 
REMARK   11  A    between atoms: C20_29  and  C21_31 
REMARK   12  A    between atoms: C21_31  and  N4_32 
REMARK   13  A    between atoms: C21_31  and  C22_36 
REMARK   14  A    between atoms: C22_36  and  C23_37 
ROOT
HETATM    1  N2  UNL     1      -7.739  27.558  -1.363  1.00  0.00    -0.355 N 
ATOM      2  H2  UNL     1      -7.058  26.837  -1.124  1.00  0.00     0.162 HD
HETATM    3  C14 UNL     1      -7.650  28.224  -2.630  1.00  0.00     0.241 C 
HETATM    4  O4  UNL     1      -8.480  29.108  -2.934  1.00  0.00    -0.271 OA
ENDROOT
BRANCH   3   5
HETATM    5  C15 UNL     1      -6.571  27.863  -3.585  1.00  0.00     0.179 C 
HETATM    6  C16 UNL     1      -7.102  27.722  -4.969  1.00  0.00     0.035 C 
HETATM    7  C17 UNL     1      -8.057  26.547  -5.016  1.00  0.00     0.004 C 
HETATM    8  C18 UNL     1      -7.378  25.278  -4.619  1.00  0.00     0.020 C 
HETATM    9  C19 UNL     1      -6.636  25.397  -3.300  1.00  0.00     0.127 C 
HETATM   10  N3  UNL     1      -5.926  26.630  -3.168  1.00  0.00    -0.337 N 
HETATM   11  C20 UNL     1      -4.623  26.698  -2.666  1.00  0.00     0.251 C 
HETATM   12  O5  UNL     1      -4.015  27.811  -2.600  1.00  0.00    -0.271 OA
BRANCH  11  13
HETATM   13  C21 UNL     1      -3.894  25.508  -2.194  1.00  0.00     0.275 C 
BRANCH  13  14
HETATM   14  N4  UNL     1      -2.893  25.082  -3.182  1.00  0.00    -0.066 N 
ATOM     15  H43 UNL     1      -3.269  25.095  -4.130  1.00  0.00     0.275 HD
ATOM     16  H42 UNL     1      -2.158  25.780  -3.298  1.00  0.00     0.275 HD
ATOM     17  H41 UNL     1      -2.510  24.168  -2.940  1.00  0.00     0.275 HD
ENDBRANCH  13  14
BRANCH  13  18
HETATM   18  C22 UNL     1      -3.154  25.807  -0.885  1.00  0.00     0.047 C 
BRANCH  18  19
HETATM   19  C23 UNL     1      -4.094  25.457   0.258  1.00  0.00    -0.012 C 
HETATM   20  C24 UNL     1      -5.042  24.338  -0.113  1.00  0.00     0.005 C 
HETATM   21  C25 UNL     1      -6.467  24.706   0.258  1.00  0.00     0.000 C 
HETATM   22  C26 UNL     1      -6.606  25.233   1.647  1.00  0.00     0.000 C 
HETATM   23  C27 UNL     1      -5.620  26.322   1.933  1.00  0.00     0.000 C 
HETATM   24  C28 UNL     1      -4.901  26.699   0.659  1.00  0.00     0.005 C 
ENDBRANCH  18  19
ENDBRANCH  13  18
ENDBRANCH  11  13
ENDBRANCH   3   5
BRANCH   1  25
HETATM   25  C6  UNL     1      -8.772  27.892  -0.433  1.00  0.00     0.087 C 
BRANCH  25  26
HETATM   26  C5  UNL     1     -10.162  27.610  -0.883  1.00  0.00     0.033 C 
BRANCH  26  27
HETATM   27  C3  UNL     1     -10.739  26.283  -0.533  1.00  0.00     0.005 C 
HETATM   28  C4  UNL     1     -12.214  26.234  -0.326  1.00  0.00     0.014 C 
BRANCH  27  29
HETATM   29  C2  UNL     1     -10.361  25.345  -1.624  1.00  0.00    -0.033 C 
HETATM   30  C1  UNL     1     -10.808  25.470  -2.854  1.00  0.00     0.007 C 
ENDBRANCH  27  29
ENDBRANCH  26  27
ENDBRANCH  25  26
BRANCH  25  31
HETATM   31  C7  UNL     1      -8.584  29.235   0.216  1.00  0.00     0.050 C 
BRANCH  31  32
HETATM   32  C8  UNL     1      -7.939  29.137   1.562  1.00  0.00     0.084 C 
HETATM   33  C9  UNL     1      -8.785  28.289   2.516  1.00  0.00     0.032 C 
BRANCH  32  34
HETATM   34  N1  UNL     1      -7.854  30.442   2.182  1.00  0.00    -0.333 N 
HETATM   35  C10 UNL     1      -6.637  31.058   2.558  1.00  0.00     0.361 C 
HETATM   36  O1  UNL     1      -5.514  30.491   2.373  1.00  0.00    -0.238 OA
ATOM     37  H1  UNL     1      -8.722  30.947   2.358  1.00  0.00     0.165 HD
BRANCH  35  38
HETATM   38  O2  UNL     1      -6.575  32.310   3.150  1.00  0.00    -0.294 OA
BRANCH  38  39
HETATM   39  C11 UNL     1      -5.990  33.400   2.498  1.00  0.00     0.181 C 
HETATM   40  C12 UNL     1      -6.897  34.628   2.665  1.00  0.00     0.202 C 
HETATM   41  O3  UNL     1      -7.514  34.272   1.468  1.00  0.00    -0.386 OA
HETATM   42  C13 UNL     1      -6.355  33.647   1.078  1.00  0.00     0.202 C 
ENDBRANCH  38  39
ENDBRANCH  35  38
ENDBRANCH  32  34
ENDBRANCH  31  32
ENDBRANCH  25  31
ENDBRANCH   1  25
TORSDOF 14
ENDMDL
MODEL 2
REMARK VINA RESULT: -7.331892349      1.582      2.330
REMARK  14 active torsions:
REMARK  status: ('A' for Active; 'I' for Inactive)
REMARK    1  A    between atoms: C2_2  and  C3_3 
REMARK    2  A    between atoms: C3_3  and  C5_5 
REMARK    3  A    between atoms: C5_5  and  C6_6 
REMARK    4  A    between atoms: C6_6  and  C7_7 
REMARK    5  A    between atoms: C6_6  and  N2_19 
REMARK    6  A    between atoms: C7_7  and  C8_8 
REMARK    7  A    between atoms: C8_8  and  N1_10 
REMARK       I    between atoms: N1_10  and  C10_12 
REMARK    8  A    between atoms: C10_12  and  O2_14 
REMARK    9  A    between atoms: O2_14  and  C11_15 
REMARK       I    between atoms: N2_19  and  C14_21 
REMARK   10  A    between atoms: C14_21  and  C15_23 
REMARK       I    between atoms: N3_28  and  C20_29 
REMARK   11  A    between atoms: C20_29  and  C21_31 
REMARK   12  A    between atoms: C21_31  and  N4_32 
REMARK   13  A    between atoms: C21_31  and  C22_36 
REMARK   14  A    between atoms: C22_36  and  C23_37 
ROOT
HETATM    1  N2  UNL     1      -9.013  28.673  -3.044  1.00  0.00    -0.355 N 
ATOM      2  H2  UNL     1      -9.236  28.758  -4.035  1.00  0.00     0.162 HD
HETATM    3  C14 UNL     1      -7.713  28.214  -2.647  1.00  0.00     0.241 C 
HETATM    4  O4  UNL     1      -7.429  28.108  -1.434  1.00  0.00    -0.271 OA
ENDROOT
BRANCH   3   5
HETATM    5  C15 UNL     1      -6.702  27.867  -3.677  1.00  0.00     0.179 C 
HETATM    6  C16 UNL     1      -7.324  27.748  -5.025  1.00  0.00     0.035 C 
HETATM    7  C17 UNL     1      -8.283  26.575  -5.025  1.00  0.00     0.004 C 
HETATM    8  C18 UNL     1      -7.581  25.299  -4.695  1.00  0.00     0.020 C 
HETATM    9  C19 UNL     1      -6.752  25.396  -3.426  1.00  0.00     0.127 C 
HETATM   10  N3  UNL     1      -6.032  26.627  -3.324  1.00  0.00    -0.337 N 
HETATM   11  C20 UNL     1      -4.698  26.686  -2.908  1.00  0.00     0.251 C 
HETATM   12  O5  UNL     1      -4.085  27.797  -2.866  1.00  0.00    -0.271 OA
BRANCH  11  13
HETATM   13  C21 UNL     1      -3.942  25.488  -2.506  1.00  0.00     0.275 C 
BRANCH  13  14
HETATM   14  N4  UNL     1      -2.625  25.457  -3.156  1.00  0.00    -0.066 N 
ATOM     15  H43 UNL     1      -2.683  25.726  -4.139  1.00  0.00     0.275 HD
ATOM     16  H42 UNL     1      -2.023  26.211  -2.825  1.00  0.00     0.275 HD
ATOM     17  H41 UNL     1      -2.185  24.544  -3.041  1.00  0.00     0.275 HD
ENDBRANCH  13  14
BRANCH  13  18
HETATM   18  C22 UNL     1      -3.709  25.477  -0.990  1.00  0.00     0.047 C 
BRANCH  18  19
HETATM   19  C23 UNL     1      -5.013  25.894  -0.327  1.00  0.00    -0.012 C 
HETATM   20  C24 UNL     1      -4.774  26.689   0.939  1.00  0.00     0.005 C 
HETATM   21  C25 UNL     1      -5.625  26.147   2.073  1.00  0.00     0.000 C 
HETATM   22  C26 UNL     1      -7.055  25.942   1.702  1.00  0.00     0.000 C 
HETATM   23  C27 UNL     1      -7.198  25.163   0.431  1.00  0.00     0.000 C 
HETATM   24  C28 UNL     1      -5.845  24.647   0.002  1.00  0.00     0.005 C 
ENDBRANCH  18  19
ENDBRANCH  13  18
ENDBRANCH  11  13
ENDBRANCH   3   5
BRANCH   1  25
HETATM   25  C6  UNL     1      -9.998  29.013  -2.065  1.00  0.00     0.087 C 
BRANCH  25  26
HETATM   26  C5  UNL     1     -11.159  28.088  -1.969  1.00  0.00     0.033 C 
BRANCH  26  27
HETATM   27  C3  UNL     1     -11.055  26.956  -1.006  1.00  0.00     0.005 C 
HETATM   28  C4  UNL     1     -10.360  25.732  -1.493  1.00  0.00     0.014 C 
BRANCH  27  29
HETATM   29  C2  UNL     1     -10.355  27.477   0.199  1.00  0.00    -0.033 C 
HETATM   30  C1  UNL     1     -10.994  27.827   1.294  1.00  0.00     0.007 C 
ENDBRANCH  27  29
ENDBRANCH  26  27
ENDBRANCH  25  26
BRANCH  25  31
HETATM   31  C7  UNL     1     -10.358  30.473  -2.058  1.00  0.00     0.050 C 
BRANCH  31  32
HETATM   32  C8  UNL     1     -10.133  31.113  -0.724  1.00  0.00     0.084 C 
HETATM   33  C9  UNL     1     -10.355  32.626  -0.796  1.00  0.00     0.032 C 
BRANCH  32  34
HETATM   34  N1  UNL     1      -8.758  30.945  -0.305  1.00  0.00    -0.333 N 
HETATM   35  C10 UNL     1      -8.356  30.805   1.044  1.00  0.00     0.361 C 
HETATM   36  O1  UNL     1      -9.197  30.819   1.998  1.00  0.00    -0.238 OA
ATOM     37  H1  UNL     1      -8.036  30.928  -1.026  1.00  0.00     0.165 HD
BRANCH  35  38
HETATM   38  O2  UNL     1      -7.034  30.645   1.425  1.00  0.00    -0.294 OA
BRANCH  38  39
HETATM   39  C11 UNL     1      -6.441  31.476   2.382  1.00  0.00     0.181 C 
HETATM   40  C12 UNL     1      -5.983  32.774   1.701  1.00  0.00     0.202 C 
HETATM   41  O3  UNL     1      -4.745  32.168   1.492  1.00  0.00    -0.386 OA
HETATM   42  C13 UNL     1      -4.972  31.372   2.588  1.00  0.00     0.202 C 
ENDBRANCH  38  39
ENDBRANCH  35  38
ENDBRANCH  32  34
ENDBRANCH  31  32
ENDBRANCH  25  31
ENDBRANCH   1  25
TORSDOF 14
ENDMDL
MODEL 3
REMARK VINA RESULT: -7.324227767      2.787      6.175
REMARK  14 active torsions:
REMARK  status: ('A' for Active; 'I' for Inactive)
REMARK    1  A    between atoms: C2_2  and  C3_3 
REMARK    2  A    between atoms: C3_3  and  C5_5 
REMARK    3  A    between atoms: C5_5  and  C6_6 
REMARK    4  A    between atoms: C6_6  and  C7_7 
REMARK    5  A    between atoms: C6_6  and  N2_19 
REMARK    6  A    between atoms: C7_7  and  C8_8 
REMARK    7  A    between atoms: C8_8  and  N1_10 
REMARK       I    between atoms: N1_10  and  C10_12 
REMARK    8  A    between atoms: C10_12  and  O2_14 
REMARK    9  A    between atoms: O2_14  and  C11_15 
REMARK       I    between atoms: N2_19  and  C14_21 
REMARK   10  A    between atoms: C14_21  and  C15_23 
REMARK       I    between atoms: N3_28  and  C20_29 
REMARK   11  A    between atoms: C20_29  and  C21_31 
REMARK   12  A    between atoms: C21_31  and  N4_32 
REMARK   13  A    between atoms: C21_31  and  C22_36 
REMARK   14  A    between atoms: C22_36  and  C23_37 
ROOT
HETATM    1  N2  UNL     1      -7.611  27.432  -1.213  1.00  0.00    -0.355 N 
ATOM      2  H2  UNL     1      -6.850  26.796  -0.974  1.00  0.00     0.162 HD
HETATM    3  C14 UNL     1      -7.619  28.080  -2.493  1.00  0.00     0.241 C 
HETATM    4  O4  UNL     1      -8.548  28.859  -2.795  1.00  0.00    -0.271 OA
ENDROOT
BRANCH   3   5
HETATM    5  C15 UNL     1      -6.523  27.823  -3.461  1.00  0.00     0.179 C 
HETATM    6  C16 UNL     1      -7.048  27.705  -4.850  1.00  0.00     0.035 C 
HETATM    7  C17 UNL     1      -7.930  26.477  -4.943  1.00  0.00     0.004 C 
HETATM    8  C18 UNL     1      -7.174  25.237  -4.598  1.00  0.00     0.020 C 
HETATM    9  C19 UNL     1      -6.438  25.348  -3.275  1.00  0.00     0.127 C 
HETATM   10  N3  UNL     1      -5.803  26.616  -3.094  1.00  0.00    -0.337 N 
HETATM   11  C20 UNL     1      -4.505  26.743  -2.590  1.00  0.00     0.251 C 
HETATM   12  O5  UNL     1      -3.965  27.887  -2.480  1.00  0.00    -0.271 OA
BRANCH  11  13
HETATM   13  C21 UNL     1      -3.705  25.581  -2.167  1.00  0.00     0.275 C 
BRANCH  13  14
HETATM   14  N4  UNL     1      -2.671  25.267  -3.163  1.00  0.00    -0.066 N 
ATOM     15  H43 UNL     1      -3.061  24.782  -3.971  1.00  0.00     0.275 HD
ATOM     16  H42 UNL     1      -2.335  26.107  -3.635  1.00  0.00     0.275 HD
ATOM     17  H41 UNL     1      -1.906  24.741  -2.739  1.00  0.00     0.275 HD
ENDBRANCH  13  14
BRANCH  13  18
HETATM   18  C22 UNL     1      -2.994  25.866  -0.838  1.00  0.00     0.047 C 
BRANCH  18  19
HETATM   19  C23 UNL     1      -3.924  25.419   0.279  1.00  0.00    -0.012 C 
HETATM   20  C24 UNL     1      -4.799  24.259  -0.145  1.00  0.00     0.005 C 
HETATM   21  C25 UNL     1      -6.248  24.527   0.219  1.00  0.00     0.000 C 
HETATM   22  C26 UNL     1      -6.434  24.993   1.624  1.00  0.00     0.000 C 
HETATM   23  C27 UNL     1      -5.519  26.129   1.963  1.00  0.00     0.000 C 
HETATM   24  C28 UNL     1      -4.810  26.594   0.713  1.00  0.00     0.005 C 
ENDBRANCH  18  19
ENDBRANCH  13  18
ENDBRANCH  11  13
ENDBRANCH   3   5
BRANCH   1  25
HETATM   25  C6  UNL     1      -8.659  27.666  -0.269  1.00  0.00     0.087 C 
BRANCH  25  26
HETATM   26  C5  UNL     1      -8.258  28.368   0.980  1.00  0.00     0.033 C 
BRANCH  26  27
HETATM   27  C3  UNL     1      -8.939  27.966   2.241  1.00  0.00     0.005 C 
HETATM   28  C4  UNL     1      -8.115  28.006   3.482  1.00  0.00     0.014 C 
BRANCH  27  29
HETATM   29  C2  UNL     1     -10.118  28.859   2.400  1.00  0.00    -0.033 C 
HETATM   30  C1  UNL     1     -11.325  28.402   2.654  1.00  0.00     0.007 C 
ENDBRANCH  27  29
ENDBRANCH  26  27
ENDBRANCH  25  26
BRANCH  25  31
HETATM   31  C7  UNL     1      -9.556  26.478  -0.059  1.00  0.00     0.050 C 
BRANCH  31  32
HETATM   32  C8  UNL     1     -10.643  26.391  -1.083  1.00  0.00     0.084 C 
HETATM   33  C9  UNL     1     -11.531  27.638  -1.049  1.00  0.00     0.032 C 
BRANCH  32  34
HETATM   34  N1  UNL     1     -11.528  25.282  -0.795  1.00  0.00    -0.333 N 
HETATM   35  C10 UNL     1     -12.121  24.468  -1.788  1.00  0.00     0.361 C 
HETATM   36  O1  UNL     1     -11.913  24.663  -3.027  1.00  0.00    -0.238 OA
ATOM     37  H1  UNL     1     -11.735  25.076   0.182  1.00  0.00     0.165 HD
BRANCH  35  38
HETATM   38  O2  UNL     1     -12.965  23.409  -1.491  1.00  0.00    -0.294 OA
BRANCH  38  39
HETATM   39  C11 UNL     1     -12.827  22.165  -2.115  1.00  0.00     0.181 C 
HETATM   40  C12 UNL     1     -13.847  21.188  -1.513  1.00  0.00     0.202 C 
HETATM   41  O3  UNL     1     -12.868  20.811  -0.596  1.00  0.00    -0.386 OA
HETATM   42  C13 UNL     1     -11.904  21.172  -1.505  1.00  0.00     0.202 C 
ENDBRANCH  38  39
ENDBRANCH  35  38
ENDBRANCH  32  34
ENDBRANCH  31  32
ENDBRANCH  25  31
ENDBRANCH   1  25
TORSDOF 14
ENDMDL
MODEL 4
REMARK VINA RESULT: -7.065181298      1.738      2.963
REMARK  14 active torsions:
REMARK  status: ('A' for Active; 'I' for Inactive)
REMARK    1  A    between atoms: C2_2  and  C3_3 
REMARK    2  A    between atoms: C3_3  and  C5_5 
REMARK    3  A    between atoms: C5_5  and  C6_6 
REMARK    4  A    between atoms: C6_6  and  C7_7 
REMARK    5  A    between atoms: C6_6  and  N2_19 
REMARK    6  A    between atoms: C7_7  and  C8_8 
REMARK    7  A    between atoms: C8_8  and  N1_10 
REMARK       I    between atoms: N1_10  and  C10_12 
REMARK    8  A    between atoms: C10_12  and  O2_14 
REMARK    9  A    between atoms: O2_14  and  C11_15 
REMARK       I    between atoms: N2_19  and  C14_21 
REMARK   10  A    between atoms: C14_21  and  C15_23 
REMARK       I    between atoms: N3_28  and  C20_29 
REMARK   11  A    between atoms: C20_29  and  C21_31 
REMARK   12  A    between atoms: C21_31  and  N4_32 
REMARK   13  A    between atoms: C21_31  and  C22_36 
REMARK   14  A    between atoms: C22_36  and  C23_37 
ROOT
HETATM    1  N2  UNL     1      -8.163  28.148  -2.225  1.00  0.00    -0.355 N 
ATOM      2  H2  UNL     1      -7.884  27.180  -2.072  1.00  0.00     0.162 HD
HETATM    3  C14 UNL     1      -7.649  28.865  -3.356  1.00  0.00     0.241 C 
HETATM    4  O4  UNL     1      -7.987  30.052  -3.553  1.00  0.00    -0.271 OA
ENDROOT
BRANCH   3   5
HETATM    5  C15 UNL     1      -6.717  28.195  -4.297  1.00  0.00     0.179 C 
HETATM    6  C16 UNL     1      -7.380  27.908  -5.600  1.00  0.00     0.035 C 
HETATM    7  C17 UNL     1      -8.486  26.896  -5.380  1.00  0.00     0.004 C 
HETATM    8  C18 UNL     1      -7.953  25.623  -4.809  1.00  0.00     0.020 C 
HETATM    9  C19 UNL     1      -7.090  25.847  -3.580  1.00  0.00     0.127 C 
HETATM   10  N3  UNL     1      -6.210  26.966  -3.712  1.00  0.00    -0.337 N 
HETATM   11  C20 UNL     1      -4.871  26.922  -3.311  1.00  0.00     0.251 C 
HETATM   12  O5  UNL     1      -4.115  27.928  -3.480  1.00  0.00    -0.271 OA
BRANCH  11  13
HETATM   13  C21 UNL     1      -4.273  25.731  -2.684  1.00  0.00     0.275 C 
BRANCH  13  14
HETATM   14  N4  UNL     1      -3.069  25.306  -3.413  1.00  0.00    -0.066 N 
ATOM     15  H43 UNL     1      -2.524  26.104  -3.739  1.00  0.00     0.275 HD
ATOM     16  H42 UNL     1      -2.378  24.891  -2.789  1.00  0.00     0.275 HD
ATOM     17  H41 UNL     1      -3.312  24.677  -4.179  1.00  0.00     0.275 HD
ENDBRANCH  13  14
BRANCH  13  18
HETATM   18  C22 UNL     1      -3.856  26.030  -1.239  1.00  0.00     0.047 C 
BRANCH  18  19
HETATM   19  C23 UNL     1      -5.130  26.212  -0.428  1.00  0.00    -0.012 C 
HETATM   20  C24 UNL     1      -4.849  26.785   0.944  1.00  0.00     0.005 C 
HETATM   21  C25 UNL     1      -5.568  25.980   2.011  1.00  0.00     0.000 C 
HETATM   22  C26 UNL     1      -7.005  25.727   1.702  1.00  0.00     0.000 C 
HETATM   23  C27 UNL     1      -7.192  25.178   0.322  1.00  0.00     0.000 C 
HETATM   24  C28 UNL     1      -5.844  24.862  -0.281  1.00  0.00     0.005 C 
ENDBRANCH  18  19
ENDBRANCH  13  18
ENDBRANCH  11  13
ENDBRANCH   3   5
BRANCH   1  25
HETATM   25  C6  UNL     1      -9.063  28.777  -1.309  1.00  0.00     0.087 C 
BRANCH  25  26
HETATM   26  C5  UNL     1      -9.213  28.109   0.012  1.00  0.00     0.033 C 
BRANCH  26  27
HETATM   27  C3  UNL     1      -9.027  28.946   1.228  1.00  0.00     0.005 C 
HETATM   28  C4  UNL     1      -9.451  28.340   2.522  1.00  0.00     0.014 C 
BRANCH  27  29
HETATM   29  C2  UNL     1      -7.583  29.297   1.296  1.00  0.00    -0.033 C 
HETATM   30  C1  UNL     1      -6.956  29.507   2.433  1.00  0.00     0.007 C 
ENDBRANCH  27  29
ENDBRANCH  26  27
ENDBRANCH  25  26
BRANCH  25  31
HETATM   31  C7  UNL     1     -10.357  29.212  -1.941  1.00  0.00     0.050 C 
BRANCH  31  32
HETATM   32  C8  UNL     1     -10.750  30.600  -1.546  1.00  0.00     0.084 C 
HETATM   33  C9  UNL     1     -11.487  31.309  -2.685  1.00  0.00     0.032 C 
BRANCH  32  34
HETATM   34  N1  UNL     1      -9.577  31.407  -1.286  1.00  0.00    -0.333 N 
HETATM   35  C10 UNL     1      -9.522  32.429  -0.308  1.00  0.00     0.361 C 
HETATM   36  O1  UNL     1     -10.525  32.711   0.422  1.00  0.00    -0.238 OA
ATOM     37  H1  UNL     1      -8.740  31.229  -1.841  1.00  0.00     0.165 HD
BRANCH  35  38
HETATM   38  O2  UNL     1      -8.389  33.190  -0.074  1.00  0.00    -0.294 OA
BRANCH  38  39
HETATM   39  C11 UNL     1      -7.518  32.903   0.982  1.00  0.00     0.181 C 
HETATM   40  C12 UNL     1      -7.761  33.907   2.118  1.00  0.00     0.202 C 
HETATM   41  O3  UNL     1      -6.773  34.710   1.552  1.00  0.00    -0.386 OA
HETATM   42  C13 UNL     1      -6.198  33.587   1.009  1.00  0.00     0.202 C 
ENDBRANCH  38  39
ENDBRANCH  35  38
ENDBRANCH  32  34
ENDBRANCH  31  32
ENDBRANCH  25  31
ENDBRANCH   1  25
TORSDOF 14
ENDMDL
MODEL 5
REMARK VINA RESULT: -7.043553479      2.330      6.678
REMARK  14 active torsions:
REMARK  status: ('A' for Active; 'I' for Inactive)
REMARK    1  A    between atoms: C2_2  and  C3_3 
REMARK    2  A    between atoms: C3_3  and  C5_5 
REMARK    3  A    between atoms: C5_5  and  C6_6 
REMARK    4  A    between atoms: C6_6  and  C7_7 
REMARK    5  A    between atoms: C6_6  and  N2_19 
REMARK    6  A    between atoms: C7_7  and  C8_8 
REMARK    7  A    between atoms: C8_8  and  N1_10 
REMARK       I    between atoms: N1_10  and  C10_12 
REMARK    8  A    between atoms: C10_12  and  O2_14 
REMARK    9  A    between atoms: O2_14  and  C11_15 
REMARK       I    between atoms: N2_19  and  C14_21 
REMARK   10  A    between atoms: C14_21  and  C15_23 
REMARK       I    between atoms: N3_28  and  C20_29 
REMARK   11  A    between atoms: C20_29  and  C21_31 
REMARK   12  A    between atoms: C21_31  and  N4_32 
REMARK   13  A    between atoms: C21_31  and  C22_36 
REMARK   14  A    between atoms: C22_36  and  C23_37 
ROOT
HETATM    1  N2  UNL     1      -8.973  26.120  -2.561  1.00  0.00    -0.355 N 
ATOM      2  H2  UNL     1      -9.675  25.389  -2.451  1.00  0.00     0.162 HD
HETATM    3  C14 UNL     1      -8.611  26.931  -1.434  1.00  0.00     0.241 C 
HETATM    4  O4  UNL     1      -7.751  27.830  -1.559  1.00  0.00    -0.271 OA
ENDROOT
BRANCH   3   5
HETATM    5  C15 UNL     1      -9.255  26.700  -0.117  1.00  0.00     0.179 C 
HETATM    6  C16 UNL     1     -10.717  26.455  -0.267  1.00  0.00     0.035 C 
HETATM    7  C17 UNL     1     -11.378  27.712  -0.797  1.00  0.00     0.004 C 
HETATM    8  C18 UNL     1     -11.166  28.867   0.125  1.00  0.00     0.020 C 
HETATM    9  C19 UNL     1      -9.706  29.066   0.493  1.00  0.00     0.127 C 
HETATM   10  N3  UNL     1      -9.026  27.836   0.759  1.00  0.00    -0.337 N 
HETATM   11  C20 UNL     1      -8.155  27.678   1.841  1.00  0.00     0.251 C 
HETATM   12  O5  UNL     1      -7.599  26.558   2.062  1.00  0.00    -0.271 OA
BRANCH  11  13
HETATM   13  C21 UNL     1      -7.839  28.777   2.769  1.00  0.00     0.275 C 
BRANCH  13  14
HETATM   14  N4  UNL     1      -7.643  28.269   4.134  1.00  0.00    -0.066 N 
ATOM     15  H43 UNL     1      -8.380  27.617   4.403  1.00  0.00     0.275 HD
ATOM     16  H42 UNL     1      -6.847  27.634   4.190  1.00  0.00     0.275 HD
ATOM     17  H41 UNL     1      -7.560  29.039   4.799  1.00  0.00     0.275 HD
ENDBRANCH  13  14
BRANCH  13  18
HETATM   18  C22 UNL     1      -6.545  29.486   2.350  1.00  0.00     0.047 C 
BRANCH  18  19
HETATM   19  C23 UNL     1      -6.733  30.971   2.624  1.00  0.00    -0.012 C 
HETATM   20  C24 UNL     1      -7.173  31.722   1.386  1.00  0.00     0.005 C 
HETATM   21  C25 UNL     1      -6.325  32.966   1.193  1.00  0.00     0.000 C 
HETATM   22  C26 UNL     1      -6.182  33.790   2.428  1.00  0.00     0.000 C 
HETATM   23  C27 UNL     1      -5.761  32.965   3.605  1.00  0.00     0.000 C 
HETATM   24  C28 UNL     1      -5.418  31.568   3.144  1.00  0.00     0.005 C 
ENDBRANCH  18  19
ENDBRANCH  13  18
ENDBRANCH  11  13
ENDBRANCH   3   5
BRANCH   1  25
HETATM   25  C6  UNL     1      -8.362  26.328  -3.836  1.00  0.00     0.087 C 
BRANCH  25  26
HETATM   26  C5  UNL     1      -9.294  26.606  -4.962  1.00  0.00     0.033 C 
BRANCH  26  27
HETATM   27  C3  UNL     1      -9.005  25.953  -6.268  1.00  0.00     0.005 C 
HETATM   28  C4  UNL     1      -9.715  24.670  -6.540  1.00  0.00     0.014 C 
BRANCH  27  29
HETATM   29  C2  UNL     1      -9.343  26.939  -7.330  1.00  0.00    -0.033 C 
HETATM   30  C1  UNL     1      -8.990  28.205  -7.260  1.00  0.00     0.007 C 
ENDBRANCH  27  29
ENDBRANCH  26  27
ENDBRANCH  25  26
BRANCH  25  31
HETATM   31  C7  UNL     1      -7.278  25.334  -4.152  1.00  0.00     0.050 C 
BRANCH  31  32
HETATM   32  C8  UNL     1      -5.912  25.944  -4.119  1.00  0.00     0.084 C 
HETATM   33  C9  UNL     1      -4.881  25.019  -4.771  1.00  0.00     0.032 C 
BRANCH  32  34
HETATM   34  N1  UNL     1      -5.465  26.115  -2.753  1.00  0.00    -0.333 N 
HETATM   35  C10 UNL     1      -4.430  26.999  -2.367  1.00  0.00     0.361 C 
HETATM   36  O1  UNL     1      -3.811  27.716  -3.216  1.00  0.00    -0.238 OA
ATOM     37  H1  UNL     1      -5.922  25.565  -2.026  1.00  0.00     0.165 HD
BRANCH  35  38
HETATM   38  O2  UNL     1      -4.016  27.150  -1.054  1.00  0.00    -0.294 OA
BRANCH  38  39
HETATM   39  C11 UNL     1      -4.321  26.198  -0.075  1.00  0.00     0.181 C 
HETATM   40  C12 UNL     1      -3.288  26.295   1.056  1.00  0.00     0.202 C 
HETATM   41  O3  UNL     1      -2.536  25.333   0.385  1.00  0.00    -0.386 OA
HETATM   42  C13 UNL     1      -3.692  24.855  -0.183  1.00  0.00     0.202 C 
ENDBRANCH  38  39
ENDBRANCH  35  38
ENDBRANCH  32  34
ENDBRANCH  31  32
ENDBRANCH  25  31
ENDBRANCH   1  25
TORSDOF 14
ENDMDL
