MODEL 1
REMARK VINA RESULT: -7.140780899      0.000      0.000
REMARK  15 active torsions:
REMARK  status: ('A' for Active; 'I' for Inactive)
REMARK    1  A    between atoms: N1_2  and  C3_4 
REMARK    2  A    between atoms: C3_4  and  C4_5 
REMARK    3  A    between atoms: C3_4  and  C25_42 
REMARK       I    between atoms: C4_5  and  N2_7 
REMARK       I    between atoms: N2_7  and  C5_9 
REMARK    4  A    between atoms: C5_9  and  C6_11 
REMARK    5  A    between atoms: C6_11  and  C21_38 
REMARK    6  A    between atoms: N3_12  and  C7_14 
REMARK    7  A    between atoms: C7_14  and  C15_22 
REMARK    8  A    between atoms: C8_15  and  C9_16 
REMARK    9  A    between atoms: C15_22  and  O3_23 
REMARK   10  A    between atoms: C16_25  and  O4_26 
REMARK   11  A    between atoms: C16_25  and  N4_28 
REMARK   12  A    between atoms: C17_30  and  C18_31 
REMARK   13  A    between atoms: C18_31  and  C19_32 
REMARK   14  A    between atoms: C19_32  and  C20_33 
REMARK   15  A    between atoms: C20_33  and  N5_34 
ROOT
HETATM    1  C7  UNL     1      -8.231  27.832   0.687  1.00  0.00     0.067 C 
HETATM    2  C8  UNL     1      -9.648  27.569   0.739  1.00  0.00     0.010 C 
ENDROOT
BRANCH   1   3
HETATM    3  N3  UNL     1      -7.382  26.716   0.453  1.00  0.00    -0.352 N 
HETATM    4  C6  UNL     1      -6.144  26.657  -0.107  1.00  0.00     0.086 C 
ATOM      5  H3  UNL     1      -7.760  25.818   0.752  1.00  0.00     0.166 HD
BRANCH   4   6
HETATM    6  C5  UNL     1      -5.973  26.992  -1.517  1.00  0.00     0.271 C 
HETATM    7  N2  UNL     1      -6.985  27.046  -2.520  1.00  0.00    -0.290 N 
HETATM    8  C4  UNL     1      -6.747  27.401  -3.850  1.00  0.00     0.259 C 
ATOM      9  H2  UNL     1      -7.941  26.812  -2.251  1.00  0.00     0.172 HD
HETATM   10  O1  UNL     1      -5.524  27.685  -4.142  1.00  0.00    -0.271 OA
HETATM   11  O2  UNL     1      -4.806  27.289  -1.984  1.00  0.00    -0.266 OA
BRANCH   8  12
HETATM   12  C3  UNL     1      -7.673  27.500  -4.955  1.00  0.00     0.320 C 
BRANCH  12  13
HETATM   13  N1  UNL     1      -8.253  28.838  -5.075  1.00  0.00     0.094 N 
HETATM   14  C1  UNL     1      -7.574  29.574  -6.143  1.00  0.00     0.310 C 
HETATM   15  C2  UNL     1      -8.161  29.650  -3.910  1.00  0.00     0.310 C 
ENDBRANCH  12  13
BRANCH  12  16
HETATM   16  C25 UNL     1      -8.701  26.495  -5.198  1.00  0.00    -0.011 C 
HETATM   17  C26 UNL     1      -9.220  26.424  -6.616  1.00  0.00     0.017 C 
HETATM   18  C27 UNL     1      -9.875  26.423  -4.282  1.00  0.00     0.017 C 
HETATM   19  C28 UNL     1      -7.994  25.103  -5.020  1.00  0.00     0.017 C 
ENDBRANCH  12  16
ENDBRANCH   8  12
ENDBRANCH   4   6
BRANCH   4  20
HETATM   20  C21 UNL     1      -5.427  25.388   0.363  1.00  0.00    -0.003 C 
HETATM   21  C22 UNL     1      -6.028  24.961   1.710  1.00  0.00     0.021 C 
HETATM   22  C23 UNL     1      -5.529  24.243  -0.575  1.00  0.00     0.021 C 
HETATM   23  C24 UNL     1      -3.964  25.636   0.687  1.00  0.00     0.021 C 
ENDBRANCH   4  20
ENDBRANCH   1   3
BRANCH   1  24
HETATM   24  C15 UNL     1      -7.514  28.917   1.335  1.00  0.00     0.143 C 
HETATM   25  C16 UNL     1      -6.750  29.028   2.547  1.00  0.00     0.176 C 
BRANCH  24  26
HETATM   26  O3  UNL     1      -7.545  30.088   0.695  1.00  0.00    -0.355 OA
ATOM     27  H3  UNL     1      -7.269  30.063  -0.214  1.00  0.00     0.218 HD
ENDBRANCH  24  26
BRANCH  25  28
HETATM   28  O4  UNL     1      -6.419  27.983   3.246  1.00  0.00    -0.344 OA
ATOM     29  H4  UNL     1      -5.570  27.565   3.150  1.00  0.00     0.219 HD
ENDBRANCH  25  28
BRANCH  25  30
HETATM   30  N4  UNL     1      -6.270  30.192   3.134  1.00  0.00    -0.348 N 
HETATM   31  C17 UNL     1      -5.284  30.912   2.967  1.00  0.00     0.063 C 
ATOM     32  H4  UNL     1      -6.878  30.532   3.879  1.00  0.00     0.167 HD
BRANCH  31  33
HETATM   33  C18 UNL     1      -5.036  32.151   3.791  1.00  0.00     0.046 C 
BRANCH  33  34
HETATM   34  C19 UNL     1      -6.060  33.209   3.516  1.00  0.00     0.032 C 
BRANCH  34  35
HETATM   35  C20 UNL     1      -6.427  33.968   4.785  1.00  0.00     0.230 C 
BRANCH  35  36
HETATM   36  N5  UNL     1      -6.067  35.365   4.680  1.00  0.00    -0.079 N 
ATOM     37  H53 UNL     1      -5.119  35.482   4.320  1.00  0.00     0.274 HD
ATOM     38  H52 UNL     1      -6.578  35.829   3.929  1.00  0.00     0.274 HD
ATOM     39  H51 UNL     1      -6.192  35.845   5.572  1.00  0.00     0.274 HD
ENDBRANCH  35  36
ENDBRANCH  34  35
ENDBRANCH  33  34
ENDBRANCH  31  33
ENDBRANCH  25  30
ENDBRANCH   1  24
BRANCH   2  40
HETATM   40  C9  UNL     1     -10.679  28.633   0.864  1.00  0.00     0.010 C 
HETATM   41  C10 UNL     1     -12.038  28.124   0.333  1.00  0.00     0.008 C 
HETATM   42  C11 UNL     1     -12.609  27.042   1.189  1.00  0.00     0.001 C 
HETATM   43  C12 UNL     1     -12.940  27.502   2.589  1.00  0.00     0.000 C 
HETATM   44  C13 UNL     1     -12.406  28.936   2.688  1.00  0.00     0.001 C 
HETATM   45  C14 UNL     1     -10.950  28.870   2.396  1.00  0.00     0.008 C 
ENDBRANCH   2  40
TORSDOF 15
ENDMDL
MODEL 2
REMARK VINA RESULT: -7.002664824      1.553      4.543
REMARK  15 active torsions:
REMARK  status: ('A' for Active; 'I' for Inactive)
REMARK    1  A    between atoms: N1_2  and  C3_4 
REMARK    2  A    between atoms: C3_4  and  C4_5 
REMARK    3  A    between atoms: C3_4  and  C25_42 
REMARK       I    between atoms: C4_5  and  N2_7 
REMARK       I    between atoms: N2_7  and  C5_9 
REMARK    4  A    between atoms: C5_9  and  C6_11 
REMARK    5  A    between atoms: C6_11  and  C21_38 
REMARK    6  A    between atoms: N3_12  and  C7_14 
REMARK    7  A    between atoms: C7_14  and  C15_22 
REMARK    8  A    between atoms: C8_15  and  C9_16 
REMARK    9  A    between atoms: C15_22  and  O3_23 
REMARK   10  A    between atoms: C16_25  and  O4_26 
REMARK   11  A    between atoms: C16_25  and  N4_28 
REMARK   12  A    between atoms: C17_30  and  C18_31 
REMARK   13  A    between atoms: C18_31  and  C19_32 
REMARK   14  A    between atoms: C19_32  and  C20_33 
REMARK   15  A    between atoms: C20_33  and  N5_34 
ROOT
HETATM    1  C7  UNL     1      -7.948  27.383   2.081  1.00  0.00     0.067 C 
HETATM    2  C8  UNL     1      -7.328  26.279   1.391  1.00  0.00     0.010 C 
ENDROOT
BRANCH   1   3
HETATM    3  N3  UNL     1      -9.233  27.783   1.623  1.00  0.00    -0.352 N 
HETATM    4  C6  UNL     1      -9.851  27.556   0.433  1.00  0.00     0.086 C 
ATOM      5  H3  UNL     1      -9.778  28.326   2.292  1.00  0.00     0.166 HD
BRANCH   4   6
HETATM    6  C5  UNL     1      -9.311  28.149  -0.786  1.00  0.00     0.271 C 
HETATM    7  N2  UNL     1      -9.160  27.522  -2.058  1.00  0.00    -0.290 N 
HETATM    8  C4  UNL     1      -8.656  28.165  -3.190  1.00  0.00     0.259 C 
ATOM      9  H2  UNL     1      -9.438  26.544  -2.146  1.00  0.00     0.172 HD
HETATM   10  O1  UNL     1      -8.316  29.398  -3.026  1.00  0.00    -0.271 OA
HETATM   11  O2  UNL     1      -8.907  29.377  -0.795  1.00  0.00    -0.266 OA
BRANCH   8  12
HETATM   12  C3  UNL     1      -8.458  27.654  -4.527  1.00  0.00     0.320 C 
BRANCH  12  13
HETATM   13  N1  UNL     1      -7.152  27.015  -4.689  1.00  0.00     0.094 N 
HETATM   14  C1  UNL     1      -7.264  25.585  -4.390  1.00  0.00     0.310 C 
HETATM   15  C2  UNL     1      -6.118  27.516  -3.850  1.00  0.00     0.310 C 
ENDBRANCH  12  13
BRANCH  12  16
HETATM   16  C25 UNL     1      -8.769  28.442  -5.713  1.00  0.00    -0.011 C 
HETATM   17  C26 UNL     1      -7.631  29.273  -6.260  1.00  0.00     0.017 C 
HETATM   18  C27 UNL     1      -9.993  29.293  -5.717  1.00  0.00     0.017 C 
HETATM   19  C28 UNL     1      -9.025  27.405  -6.866  1.00  0.00     0.017 C 
ENDBRANCH  12  16
ENDBRANCH   8  12
ENDBRANCH   4   6
BRANCH   4  20
HETATM   20  C21 UNL     1     -11.368  27.673   0.611  1.00  0.00    -0.003 C 
HETATM   21  C22 UNL     1     -11.672  27.823   2.108  1.00  0.00     0.021 C 
HETATM   22  C23 UNL     1     -11.982  28.819  -0.105  1.00  0.00     0.021 C 
HETATM   23  C24 UNL     1     -12.096  26.397   0.223  1.00  0.00     0.021 C 
ENDBRANCH   4  20
ENDBRANCH   1   3
BRANCH   1  24
HETATM   24  C15 UNL     1      -7.282  28.459   2.795  1.00  0.00     0.143 C 
HETATM   25  C16 UNL     1      -6.900  29.802   2.453  1.00  0.00     0.176 C 
BRANCH  24  26
HETATM   26  O3  UNL     1      -6.930  28.181   4.052  1.00  0.00    -0.355 OA
ATOM     27  H3  UNL     1      -7.453  28.602   4.725  1.00  0.00     0.218 HD
ENDBRANCH  24  26
BRANCH  25  28
HETATM   28  O4  UNL     1      -7.299  30.367   1.352  1.00  0.00    -0.344 OA
ATOM     29  H4  UNL     1      -7.701  31.228   1.349  1.00  0.00     0.219 HD
ENDBRANCH  25  28
BRANCH  25  30
HETATM   30  N4  UNL     1      -6.096  30.661   3.192  1.00  0.00    -0.348 N 
HETATM   31  C17 UNL     1      -5.905  31.877   3.210  1.00  0.00     0.063 C 
ATOM     32  H4  UNL     1      -5.530  30.167   3.882  1.00  0.00     0.167 HD
BRANCH  31  33
HETATM   33  C18 UNL     1      -4.935  32.531   4.164  1.00  0.00     0.046 C 
BRANCH  33  34
HETATM   34  C19 UNL     1      -5.640  33.419   5.142  1.00  0.00     0.032 C 
BRANCH  34  35
HETATM   35  C20 UNL     1      -6.588  34.380   4.436  1.00  0.00     0.230 C 
BRANCH  35  36
HETATM   36  N5  UNL     1      -6.226  35.756   4.696  1.00  0.00    -0.079 N 
ATOM     37  H53 UNL     1      -5.351  35.822   5.218  1.00  0.00     0.274 HD
ATOM     38  H52 UNL     1      -5.935  36.235   3.844  1.00  0.00     0.274 HD
ATOM     39  H51 UNL     1      -6.982  36.253   5.167  1.00  0.00     0.274 HD
ENDBRANCH  35  36
ENDBRANCH  34  35
ENDBRANCH  33  34
ENDBRANCH  31  33
ENDBRANCH  25  30
ENDBRANCH   1  24
BRANCH   2  40
HETATM   40  C9  UNL     1      -6.041  25.664   1.810  1.00  0.00     0.010 C 
HETATM   41  C10 UNL     1      -5.898  24.254   1.195  1.00  0.00     0.008 C 
HETATM   42  C11 UNL     1      -5.746  24.300  -0.290  1.00  0.00     0.001 C 
HETATM   43  C12 UNL     1      -4.485  24.999  -0.739  1.00  0.00     0.000 C 
HETATM   44  C13 UNL     1      -3.857  25.575   0.536  1.00  0.00     0.001 C 
HETATM   45  C14 UNL     1      -4.873  26.477   1.141  1.00  0.00     0.008 C 
ENDBRANCH   2  40
TORSDOF 15
ENDMDL
MODEL 3
REMARK VINA RESULT: -6.978239330      1.722      4.537
REMARK  15 active torsions:
REMARK  status: ('A' for Active; 'I' for Inactive)
REMARK    1  A    between atoms: N1_2  and  C3_4 
REMARK    2  A    between atoms: C3_4  and  C4_5 
REMARK    3  A    between atoms: C3_4  and  C25_42 
REMARK       I    between atoms: C4_5  and  N2_7 
REMARK       I    between atoms: N2_7  and  C5_9 
REMARK    4  A    between atoms: C5_9  and  C6_11 
REMARK    5  A    between atoms: C6_11  and  C21_38 
REMARK    6  A    between atoms: N3_12  and  C7_14 
REMARK    7  A    between atoms: C7_14  and  C15_22 
REMARK    8  A    between atoms: C8_15  and  C9_16 
REMARK    9  A    between atoms: C15_22  and  O3_23 
REMARK   10  A    between atoms: C16_25  and  O4_26 
REMARK   11  A    between atoms: C16_25  and  N4_28 
REMARK   12  A    between atoms: C17_30  and  C18_31 
REMARK   13  A    between atoms: C18_31  and  C19_32 
REMARK   14  A    between atoms: C19_32  and  C20_33 
REMARK   15  A    between atoms: C20_33  and  N5_34 
ROOT
HETATM    1  C7  UNL     1      -8.079  27.462   1.583  1.00  0.00     0.067 C 
HETATM    2  C8  UNL     1      -7.506  26.247   1.059  1.00  0.00     0.010 C 
ENDROOT
BRANCH   1   3
HETATM    3  N3  UNL     1      -9.420  27.750   1.208  1.00  0.00    -0.352 N 
HETATM    4  C6  UNL     1      -9.998  27.792  -0.022  1.00  0.00     0.086 C 
ATOM      5  H3  UNL     1     -10.048  27.958   1.984  1.00  0.00     0.166 HD
BRANCH   4   6
HETATM    6  C5  UNL     1      -9.587  28.814  -0.978  1.00  0.00     0.271 C 
HETATM    7  N2  UNL     1      -9.399  28.655  -2.383  1.00  0.00    -0.290 N 
HETATM    8  C4  UNL     1      -9.027  29.692  -3.242  1.00  0.00     0.259 C 
ATOM      9  H2  UNL     1      -9.545  27.729  -2.785  1.00  0.00     0.172 HD
HETATM   10  O1  UNL     1      -8.851  30.842  -2.686  1.00  0.00    -0.271 OA
HETATM   11  O2  UNL     1      -9.354  30.023  -0.587  1.00  0.00    -0.266 OA
BRANCH   8  12
HETATM   12  C3  UNL     1      -8.809  29.669  -4.670  1.00  0.00     0.320 C 
BRANCH  12  13
HETATM   13  N1  UNL     1     -10.061  29.736  -5.424  1.00  0.00     0.094 N 
HETATM   14  C1  UNL     1     -10.257  31.096  -5.931  1.00  0.00     0.310 C 
HETATM   15  C2  UNL     1     -11.235  29.413  -4.688  1.00  0.00     0.310 C 
ENDBRANCH  12  13
BRANCH  12  16
HETATM   16  C25 UNL     1      -7.906  28.714  -5.302  1.00  0.00    -0.011 C 
HETATM   17  C26 UNL     1      -8.573  27.572  -6.033  1.00  0.00     0.017 C 
HETATM   18  C27 UNL     1      -6.780  28.146  -4.507  1.00  0.00     0.017 C 
HETATM   19  C28 UNL     1      -7.193  29.498  -6.463  1.00  0.00     0.017 C 
ENDBRANCH  12  16
ENDBRANCH   8  12
ENDBRANCH   4   6
BRANCH   4  20
HETATM   20  C21 UNL     1     -11.509  27.580   0.114  1.00  0.00    -0.003 C 
HETATM   21  C22 UNL     1     -11.883  27.680   1.599  1.00  0.00     0.021 C 
HETATM   22  C23 UNL     1     -12.335  28.557  -0.640  1.00  0.00     0.021 C 
HETATM   23  C24 UNL     1     -11.933  26.172  -0.269  1.00  0.00     0.021 C 
ENDBRANCH   4  20
ENDBRANCH   1   3
BRANCH   1  24
HETATM   24  C15 UNL     1      -7.372  28.666   1.987  1.00  0.00     0.143 C 
HETATM   25  C16 UNL     1      -6.756  29.102   3.210  1.00  0.00     0.176 C 
BRANCH  24  26
HETATM   26  O3  UNL     1      -7.242  29.599   1.042  1.00  0.00    -0.355 OA
ATOM     27  H3  UNL     1      -7.289  29.283   0.147  1.00  0.00     0.218 HD
ENDBRANCH  24  26
BRANCH  25  28
HETATM   28  O4  UNL     1      -6.586  28.296   4.216  1.00  0.00    -0.344 OA
ATOM     29  H4  UNL     1      -5.870  28.407   4.831  1.00  0.00     0.219 HD
ENDBRANCH  25  28
BRANCH  25  30
HETATM   30  N4  UNL     1      -6.271  30.371   3.500  1.00  0.00    -0.348 N 
HETATM   31  C17 UNL     1      -5.254  31.004   3.213  1.00  0.00     0.063 C 
ATOM     32  H4  UNL     1      -6.908  30.905   4.092  1.00  0.00     0.167 HD
BRANCH  31  33
HETATM   33  C18 UNL     1      -5.011  32.412   3.698  1.00  0.00     0.046 C 
BRANCH  33  34
HETATM   34  C19 UNL     1      -6.230  33.267   3.536  1.00  0.00     0.032 C 
BRANCH  34  35
HETATM   35  C20 UNL     1      -6.531  34.049   4.809  1.00  0.00     0.230 C 
BRANCH  35  36
HETATM   36  N5  UNL     1      -6.195  35.447   4.655  1.00  0.00    -0.079 N 
ATOM     37  H53 UNL     1      -5.281  35.660   5.058  1.00  0.00     0.274 HD
ATOM     38  H52 UNL     1      -5.995  35.680   3.682  1.00  0.00     0.274 HD
ATOM     39  H51 UNL     1      -6.924  36.046   5.042  1.00  0.00     0.274 HD
ENDBRANCH  35  36
ENDBRANCH  34  35
ENDBRANCH  33  34
ENDBRANCH  31  33
ENDBRANCH  25  30
ENDBRANCH   1  24
BRANCH   2  40
HETATM   40  C9  UNL     1      -6.161  25.741   1.438  1.00  0.00     0.010 C 
HETATM   41  C10 UNL     1      -5.963  24.302   0.910  1.00  0.00     0.008 C 
HETATM   42  C11 UNL     1      -5.900  24.253  -0.582  1.00  0.00     0.001 C 
HETATM   43  C12 UNL     1      -4.713  24.993  -1.153  1.00  0.00     0.000 C 
HETATM   44  C13 UNL     1      -4.051  25.693   0.041  1.00  0.00     0.001 C 
HETATM   45  C14 UNL     1      -5.086  26.574   0.646  1.00  0.00     0.008 C 
ENDBRANCH   2  40
TORSDOF 15
ENDMDL
MODEL 4
REMARK VINA RESULT: -6.922890187      2.161      2.884
REMARK  15 active torsions:
REMARK  status: ('A' for Active; 'I' for Inactive)
REMARK    1  A    between atoms: N1_2  and  C3_4 
REMARK    2  A    between atoms: C3_4  and  C4_5 
REMARK    3  A    between atoms: C3_4  and  C25_42 
REMARK       I    between atoms: C4_5  and  N2_7 
REMARK       I    between atoms: N2_7  and  C5_9 
REMARK    4  A    between atoms: C5_9  and  C6_11 
REMARK    5  A    between atoms: C6_11  and  C21_38 
REMARK    6  A    between atoms: N3_12  and  C7_14 
REMARK    7  A    between atoms: C7_14  and  C15_22 
REMARK    8  A    between atoms: C8_15  and  C9_16 
REMARK    9  A    between atoms: C15_22  and  O3_23 
REMARK   10  A    between atoms: C16_25  and  O4_26 
REMARK   11  A    between atoms: C16_25  and  N4_28 
REMARK   12  A    between atoms: C17_30  and  C18_31 
REMARK   13  A    between atoms: C18_31  and  C19_32 
REMARK   14  A    between atoms: C19_32  and  C20_33 
REMARK   15  A    between atoms: C20_33  and  N5_34 
ROOT
HETATM    1  C7  UNL     1      -8.584  28.184   2.695  1.00  0.00     0.067 C 
HETATM    2  C8  UNL     1      -9.148  27.950   4.001  1.00  0.00     0.010 C 
ENDROOT
BRANCH   1   3
HETATM    3  N3  UNL     1      -7.910  27.090   2.083  1.00  0.00    -0.352 N 
HETATM    4  C6  UNL     1      -7.438  26.948   0.817  1.00  0.00     0.086 C 
ATOM      5  H3  UNL     1      -7.758  26.286   2.691  1.00  0.00     0.166 HD
BRANCH   4   6
HETATM    6  C5  UNL     1      -8.374  26.905  -0.302  1.00  0.00     0.271 C 
HETATM    7  N2  UNL     1      -8.108  27.241  -1.662  1.00  0.00    -0.290 N 
HETATM    8  C4  UNL     1      -9.053  27.150  -2.687  1.00  0.00     0.259 C 
ATOM      9  H2  UNL     1      -7.172  27.568  -1.902  1.00  0.00     0.172 HD
HETATM   10  O1  UNL     1     -10.222  26.736  -2.333  1.00  0.00    -0.271 OA
HETATM   11  O2  UNL     1      -9.595  26.526  -0.122  1.00  0.00    -0.266 OA
BRANCH   8  12
HETATM   12  C3  UNL     1      -8.916  27.451  -4.094  1.00  0.00     0.320 C 
BRANCH  12  13
HETATM   13  N1  UNL     1      -8.162  26.423  -4.810  1.00  0.00     0.094 N 
HETATM   14  C1  UNL     1      -9.087  25.564  -5.553  1.00  0.00     0.310 C 
HETATM   15  C2  UNL     1      -7.383  25.556  -3.994  1.00  0.00     0.310 C 
ENDBRANCH  12  13
BRANCH  12  16
HETATM   16  C25 UNL     1      -8.521  28.772  -4.569  1.00  0.00    -0.011 C 
HETATM   17  C26 UNL     1      -7.253  28.815  -5.391  1.00  0.00     0.017 C 
HETATM   18  C27 UNL     1      -8.472  29.906  -3.603  1.00  0.00     0.017 C 
HETATM   19  C28 UNL     1      -9.619  29.204  -5.607  1.00  0.00     0.017 C 
ENDBRANCH  12  16
ENDBRANCH   8  12
ENDBRANCH   4   6
BRANCH   4  20
HETATM   20  C21 UNL     1      -6.332  25.888   0.797  1.00  0.00    -0.003 C 
HETATM   21  C22 UNL     1      -6.065  25.437   2.240  1.00  0.00     0.021 C 
HETATM   22  C23 UNL     1      -6.649  24.687  -0.014  1.00  0.00     0.021 C 
HETATM   23  C24 UNL     1      -4.996  26.454   0.345  1.00  0.00     0.021 C 
ENDBRANCH   4  20
ENDBRANCH   1   3
BRANCH   1  24
HETATM   24  C15 UNL     1      -8.143  29.453   2.142  1.00  0.00     0.143 C 
HETATM   25  C16 UNL     1      -6.879  30.135   2.084  1.00  0.00     0.176 C 
BRANCH  24  26
HETATM   26  O3  UNL     1      -9.091  30.179   1.546  1.00  0.00    -0.355 OA
ATOM     27  H3  UNL     1      -9.242  29.979   0.629  1.00  0.00     0.218 HD
ENDBRANCH  24  26
BRANCH  25  28
HETATM   28  O4  UNL     1      -5.770  29.551   2.429  1.00  0.00    -0.344 OA
ATOM     29  H4  UNL     1      -5.451  29.571   3.324  1.00  0.00     0.219 HD
ENDBRANCH  25  28
BRANCH  25  30
HETATM   30  N4  UNL     1      -6.648  31.443   1.677  1.00  0.00    -0.348 N 
HETATM   31  C17 UNL     1      -5.885  32.344   2.028  1.00  0.00     0.063 C 
ATOM     32  H4  UNL     1      -7.254  31.723   0.906  1.00  0.00     0.167 HD
BRANCH  31  33
HETATM   33  C18 UNL     1      -5.872  33.700   1.365  1.00  0.00     0.046 C 
BRANCH  33  34
HETATM   34  C19 UNL     1      -6.544  34.734   2.216  1.00  0.00     0.032 C 
BRANCH  34  35
HETATM   35  C20 UNL     1      -6.497  34.355   3.690  1.00  0.00     0.230 C 
BRANCH  35  36
HETATM   36  N5  UNL     1      -6.117  35.486   4.508  1.00  0.00    -0.079 N 
ATOM     37  H53 UNL     1      -5.370  35.244   5.160  1.00  0.00     0.274 HD
ATOM     38  H52 UNL     1      -5.625  36.194   3.963  1.00  0.00     0.274 HD
ATOM     39  H51 UNL     1      -6.925  35.878   4.992  1.00  0.00     0.274 HD
ENDBRANCH  35  36
ENDBRANCH  34  35
ENDBRANCH  33  34
ENDBRANCH  31  33
ENDBRANCH  25  30
ENDBRANCH   1  24
BRANCH   2  40
HETATM   40  C9  UNL     1      -9.976  28.944   4.732  1.00  0.00     0.010 C 
HETATM   41  C10 UNL     1     -11.412  28.965   4.162  1.00  0.00     0.008 C 
HETATM   42  C11 UNL     1     -12.146  27.694   4.439  1.00  0.00     0.001 C 
HETATM   43  C12 UNL     1     -12.366  27.440   5.911  1.00  0.00     0.000 C 
HETATM   44  C13 UNL     1     -11.590  28.545   6.639  1.00  0.00     0.001 C 
HETATM   45  C14 UNL     1     -10.172  28.427   6.204  1.00  0.00     0.008 C 
ENDBRANCH   2  40
TORSDOF 15
ENDMDL
MODEL 5
REMARK VINA RESULT: -6.892705098      1.558      4.549
REMARK  15 active torsions:
REMARK  status: ('A' for Active; 'I' for Inactive)
REMARK    1  A    between atoms: N1_2  and  C3_4 
REMARK    2  A    between atoms: C3_4  and  C4_5 
REMARK    3  A    between atoms: C3_4  and  C25_42 
REMARK       I    between atoms: C4_5  and  N2_7 
REMARK       I    between atoms: N2_7  and  C5_9 
REMARK    4  A    between atoms: C5_9  and  C6_11 
REMARK    5  A    between atoms: C6_11  and  C21_38 
REMARK    6  A    between atoms: N3_12  and  C7_14 
REMARK    7  A    between atoms: C7_14  and  C15_22 
REMARK    8  A    between atoms: C8_15  and  C9_16 
REMARK    9  A    between atoms: C15_22  and  O3_23 
REMARK   10  A    between atoms: C16_25  and  O4_26 
REMARK   11  A    between atoms: C16_25  and  N4_28 
REMARK   12  A    between atoms: C17_30  and  C18_31 
REMARK   13  A    between atoms: C18_31  and  C19_32 
REMARK   14  A    between atoms: C19_32  and  C20_33 
REMARK   15  A    between atoms: C20_33  and  N5_34 
ROOT
HETATM    1  C7  UNL     1      -7.992  27.428   2.145  1.00  0.00     0.067 C 
HETATM    2  C8  UNL     1      -7.352  26.324   1.474  1.00  0.00     0.010 C 
ENDROOT
BRANCH   1   3
HETATM    3  N3  UNL     1      -9.273  27.815   1.661  1.00  0.00    -0.352 N 
HETATM    4  C6  UNL     1      -9.837  27.641   0.436  1.00  0.00     0.086 C 
ATOM      5  H3  UNL     1      -9.860  28.299   2.339  1.00  0.00     0.166 HD
BRANCH   4   6
HETATM    6  C5  UNL     1      -9.273  28.323  -0.723  1.00  0.00     0.271 C 
HETATM    7  N2  UNL     1      -8.597  27.730  -1.829  1.00  0.00    -0.290 N 
HETATM    8  C4  UNL     1      -8.103  28.450  -2.920  1.00  0.00     0.259 C 
ATOM      9  H2  UNL     1      -8.466  26.718  -1.824  1.00  0.00     0.172 HD
HETATM   10  O1  UNL     1      -8.290  29.724  -2.877  1.00  0.00    -0.271 OA
HETATM   11  O2  UNL     1      -9.358  29.608  -0.834  1.00  0.00    -0.266 OA
BRANCH   8  12
HETATM   12  C3  UNL     1      -7.411  27.977  -4.097  1.00  0.00     0.320 C 
BRANCH  12  13
HETATM   13  N1  UNL     1      -8.333  27.504  -5.130  1.00  0.00     0.094 N 
HETATM   14  C1  UNL     1      -8.364  28.463  -6.236  1.00  0.00     0.310 C 
HETATM   15  C2  UNL     1      -9.682  27.332  -4.713  1.00  0.00     0.310 C 
ENDBRANCH  12  13
BRANCH  12  16
HETATM   16  C25 UNL     1      -6.264  27.080  -4.014  1.00  0.00    -0.011 C 
HETATM   17  C26 UNL     1      -5.059  27.489  -4.830  1.00  0.00     0.017 C 
HETATM   18  C27 UNL     1      -6.471  25.618  -4.213  1.00  0.00     0.017 C 
HETATM   19  C28 UNL     1      -5.735  27.192  -2.538  1.00  0.00     0.017 C 
ENDBRANCH  12  16
ENDBRANCH   8  12
ENDBRANCH   4   6
BRANCH   4  20
HETATM   20  C21 UNL     1     -11.363  27.699   0.561  1.00  0.00    -0.003 C 
HETATM   21  C22 UNL     1     -11.726  27.790   2.051  1.00  0.00     0.021 C 
HETATM   22  C23 UNL     1     -11.992  28.845  -0.141  1.00  0.00     0.021 C 
HETATM   23  C24 UNL     1     -12.031  26.412   0.108  1.00  0.00     0.021 C 
ENDBRANCH   4  20
ENDBRANCH   1   3
BRANCH   1  24
HETATM   24  C15 UNL     1      -7.347  28.514   2.863  1.00  0.00     0.143 C 
HETATM   25  C16 UNL     1      -6.915  29.836   2.500  1.00  0.00     0.176 C 
BRANCH  24  26
HETATM   26  O3  UNL     1      -7.081  28.273   4.148  1.00  0.00    -0.355 OA
ATOM     27  H3  UNL     1      -6.628  28.970   4.609  1.00  0.00     0.218 HD
ENDBRANCH  24  26
BRANCH  25  28
HETATM   28  O4  UNL     1      -7.231  30.371   1.358  1.00  0.00    -0.344 OA
ATOM     29  H4  UNL     1      -6.768  31.125   1.013  1.00  0.00     0.219 HD
ENDBRANCH  25  28
BRANCH  25  30
HETATM   30  N4  UNL     1      -6.139  30.703   3.259  1.00  0.00    -0.348 N 
HETATM   31  C17 UNL     1      -5.946  31.920   3.269  1.00  0.00     0.063 C 
ATOM     32  H4  UNL     1      -5.601  30.218   3.977  1.00  0.00     0.167 HD
BRANCH  31  33
HETATM   33  C18 UNL     1      -5.013  32.585   4.250  1.00  0.00     0.046 C 
BRANCH  33  34
HETATM   34  C19 UNL     1      -5.754  33.489   5.188  1.00  0.00     0.032 C 
BRANCH  34  35
HETATM   35  C20 UNL     1      -6.657  34.454   4.430  1.00  0.00     0.230 C 
BRANCH  35  36
HETATM   36  N5  UNL     1      -6.212  35.821   4.592  1.00  0.00    -0.079 N 
ATOM     37  H53 UNL     1      -6.073  36.057   5.574  1.00  0.00     0.274 HD
ATOM     38  H52 UNL     1      -5.253  35.944   4.264  1.00  0.00     0.274 HD
ATOM     39  H51 UNL     1      -6.851  36.472   4.135  1.00  0.00     0.274 HD
ENDBRANCH  35  36
ENDBRANCH  34  35
ENDBRANCH  33  34
ENDBRANCH  31  33
ENDBRANCH  25  30
ENDBRANCH   1  24
BRANCH   2  40
HETATM   40  C9  UNL     1      -6.068  25.722   1.920  1.00  0.00     0.010 C 
HETATM   41  C10 UNL     1      -6.002  24.235   1.503  1.00  0.00     0.008 C 
HETATM   42  C11 UNL     1      -5.919  24.069   0.021  1.00  0.00     0.001 C 
HETATM   43  C12 UNL     1      -4.658  24.648  -0.574  1.00  0.00     0.000 C 
HETATM   44  C13 UNL     1      -3.951  25.370   0.580  1.00  0.00     0.001 C 
HETATM   45  C14 UNL     1      -4.906  26.388   1.094  1.00  0.00     0.008 C 
ENDBRANCH   2  40
TORSDOF 15
ENDMDL
