MODEL 1
REMARK VINA RESULT: -7.299749890      0.000      0.000
REMARK  14 active torsions:
REMARK  status: ('A' for Active; 'I' for Inactive)
REMARK    1  A    between atoms: C2_2  and  C3_3 
REMARK    2  A    between atoms: C3_3  and  C4_4 
REMARK    3  A    between atoms: C4_4  and  C5_5 
REMARK    4  A    between atoms: C5_5  and  N1_6 
REMARK    5  A    between atoms: C5_5  and  C20_31 
REMARK       I    between atoms: N1_6  and  C6_8 
REMARK    6  A    between atoms: C6_8  and  C7_10 
REMARK       I    between atoms: N2_14  and  C11_15 
REMARK    7  A    between atoms: C11_15  and  O3_17 
REMARK    8  A    between atoms: O3_17  and  C12_18 
REMARK       I    between atoms: C12_18  and  N3_20 
REMARK    9  A    between atoms: N3_20  and  C13_22 
REMARK   10  A    between atoms: C13_22  and  C15_24 
REMARK       I    between atoms: C15_24  and  N4_26 
REMARK   11  A    between atoms: C20_31  and  C21_33 
REMARK   12  A    between atoms: C21_33  and  O7_34 
REMARK   13  A    between atoms: C21_33  and  C22_36 
REMARK   14  A    between atoms: C22_36  and  C23_37 
ROOT
HETATM    1  C7  UNL     1      -5.597  31.676   2.469  1.00  0.00     0.181 C 
HETATM    2  C8  UNL     1      -4.647  31.592   3.649  1.00  0.00     0.037 C 
HETATM    3  C9  UNL     1      -5.052  32.672   4.604  1.00  0.00     0.022 C 
HETATM    4  C10 UNL     1      -6.351  33.199   4.058  1.00  0.00     0.129 C 
HETATM    5  N2  UNL     1      -6.238  32.956   2.653  1.00  0.00    -0.314 N 
HETATM    6  C11 UNL     1      -6.678  33.836   1.621  1.00  0.00     0.372 C 
HETATM    7  O2  UNL     1      -7.232  34.937   1.857  1.00  0.00    -0.238 OA
ENDROOT
BRANCH   1   8
HETATM    8  C6  UNL     1      -6.600  30.564   2.538  1.00  0.00     0.241 C 
HETATM    9  N1  UNL     1      -6.221  29.237   2.843  1.00  0.00    -0.348 N 
ATOM     10  H1  UNL     1      -5.241  29.014   3.018  1.00  0.00     0.163 HD
HETATM   11  O1  UNL     1      -7.803  30.880   2.303  1.00  0.00    -0.271 OA
BRANCH   9  12
HETATM   12  C5  UNL     1      -7.222  28.195   2.907  1.00  0.00     0.157 C 
BRANCH  12  13
HETATM   13  C4  UNL     1      -7.869  28.100   4.243  1.00  0.00     0.033 C 
BRANCH  13  14
HETATM   14  C3  UNL     1      -9.318  28.365   4.349  1.00  0.00     0.002 C 
BRANCH  14  15
HETATM   15  C2  UNL     1      -9.921  28.357   5.726  1.00  0.00    -0.004 C 
HETATM   16  C1  UNL     1     -11.396  27.957   5.577  1.00  0.00     0.005 C 
ENDBRANCH  14  15
ENDBRANCH  13  14
ENDBRANCH  12  13
BRANCH  12  17
HETATM   17  C20 UNL     1      -6.758  26.913   2.311  1.00  0.00     0.177 C 
HETATM   18  O6  UNL     1      -6.457  26.006   3.123  1.00  0.00    -0.293 OA
BRANCH  17  19
HETATM   19  C21 UNL     1      -6.635  26.620   0.900  1.00  0.00     0.190 C 
BRANCH  19  20
HETATM   20  O7  UNL     1      -6.823  27.938   0.258  1.00  0.00    -0.388 OA
ATOM     21  H7  UNL     1      -7.169  27.719  -0.599  1.00  0.00     0.210 HD
ENDBRANCH  19  20
BRANCH  19  22
HETATM   22  C22 UNL     1      -7.637  25.798   0.210  1.00  0.00     0.043 C 
BRANCH  22  23
HETATM   23  C23 UNL     1      -7.293  24.648  -0.643  1.00  0.00    -0.020 C 
HETATM   24  C24 UNL     1      -6.275  23.818   0.224  1.00  0.00     0.009 C 
HETATM   25  C25 UNL     1      -6.466  24.976  -1.876  1.00  0.00     0.009 C 
ENDBRANCH  22  23
ENDBRANCH  19  22
ENDBRANCH  17  19
ENDBRANCH  12  17
ENDBRANCH   9  12
ENDBRANCH   1   8
BRANCH   6  26
HETATM   26  O3  UNL     1      -6.498  33.484   0.285  1.00  0.00    -0.209 OA
BRANCH  26  27
HETATM   27  C12 UNL     1      -7.471  33.002  -0.554  1.00  0.00     0.370 C 
HETATM   28  O4  UNL     1      -7.672  33.631  -1.644  1.00  0.00    -0.238 OA
HETATM   29  N3  UNL     1      -8.248  31.866  -0.284  1.00  0.00    -0.324 N 
ATOM     30  H3  UNL     1      -8.101  31.351   0.584  1.00  0.00     0.165 HD
BRANCH  29  31
HETATM   31  C13 UNL     1      -9.252  31.416  -1.216  1.00  0.00     0.175 C 
HETATM   32  C14 UNL     1     -10.586  31.871  -0.696  1.00  0.00     0.042 C 
BRANCH  31  33
HETATM   33  C15 UNL     1      -9.167  29.930  -1.387  1.00  0.00     0.242 C 
HETATM   34  O5  UNL     1      -9.480  29.189  -0.399  1.00  0.00    -0.271 OA
HETATM   35  N4  UNL     1      -8.761  29.328  -2.587  1.00  0.00    -0.350 N 
HETATM   36  C16 UNL     1      -8.358  29.878  -3.865  1.00  0.00     0.126 C 
HETATM   37  C19 UNL     1      -8.654  27.871  -2.789  1.00  0.00     0.126 C 
HETATM   38  C17 UNL     1      -9.093  29.013  -4.873  1.00  0.00     0.021 C 
HETATM   39  C18 UNL     1      -9.058  27.634  -4.234  1.00  0.00     0.021 C 
ENDBRANCH  31  33
ENDBRANCH  29  31
ENDBRANCH  26  27
ENDBRANCH   6  26
TORSDOF 14
ENDMDL
MODEL 2
REMARK VINA RESULT: -6.831454727      3.576      6.374
REMARK  14 active torsions:
REMARK  status: ('A' for Active; 'I' for Inactive)
REMARK    1  A    between atoms: C2_2  and  C3_3 
REMARK    2  A    between atoms: C3_3  and  C4_4 
REMARK    3  A    between atoms: C4_4  and  C5_5 
REMARK    4  A    between atoms: C5_5  and  N1_6 
REMARK    5  A    between atoms: C5_5  and  C20_31 
REMARK       I    between atoms: N1_6  and  C6_8 
REMARK    6  A    between atoms: C6_8  and  C7_10 
REMARK       I    between atoms: N2_14  and  C11_15 
REMARK    7  A    between atoms: C11_15  and  O3_17 
REMARK    8  A    between atoms: O3_17  and  C12_18 
REMARK       I    between atoms: C12_18  and  N3_20 
REMARK    9  A    between atoms: N3_20  and  C13_22 
REMARK   10  A    between atoms: C13_22  and  C15_24 
REMARK       I    between atoms: C15_24  and  N4_26 
REMARK   11  A    between atoms: C20_31  and  C21_33 
REMARK   12  A    between atoms: C21_33  and  O7_34 
REMARK   13  A    between atoms: C21_33  and  C22_36 
REMARK   14  A    between atoms: C22_36  and  C23_37 
ROOT
HETATM    1  C7  UNL     1      -4.889  24.653  -0.563  1.00  0.00     0.181 C 
HETATM    2  C8  UNL     1      -3.802  23.995   0.268  1.00  0.00     0.037 C 
HETATM    3  C9  UNL     1      -2.637  24.935   0.273  1.00  0.00     0.022 C 
HETATM    4  C10 UNL     1      -3.159  26.195  -0.362  1.00  0.00     0.129 C 
HETATM    5  N2  UNL     1      -4.188  25.720  -1.235  1.00  0.00    -0.314 N 
HETATM    6  C11 UNL     1      -4.461  26.217  -2.543  1.00  0.00     0.372 C 
HETATM    7  O2  UNL     1      -3.809  27.154  -3.065  1.00  0.00    -0.238 OA
ENDROOT
BRANCH   1   8
HETATM    8  C6  UNL     1      -5.960  25.200   0.333  1.00  0.00     0.241 C 
HETATM    9  N1  UNL     1      -6.707  26.348  -0.014  1.00  0.00    -0.348 N 
ATOM     10  H1  UNL     1      -6.520  26.831  -0.893  1.00  0.00     0.163 HD
HETATM   11  O1  UNL     1      -6.152  24.578   1.418  1.00  0.00    -0.271 OA
BRANCH   9  12
HETATM   12  C5  UNL     1      -7.736  26.838   0.876  1.00  0.00     0.157 C 
BRANCH  12  13
HETATM   13  C4  UNL     1      -9.058  26.974   0.207  1.00  0.00     0.033 C 
BRANCH  13  14
HETATM   14  C3  UNL     1      -9.456  25.959  -0.789  1.00  0.00     0.002 C 
BRANCH  14  15
HETATM   15  C2  UNL     1     -10.928  25.718  -0.976  1.00  0.00    -0.004 C 
HETATM   16  C1  UNL     1     -11.673  26.844  -0.245  1.00  0.00     0.005 C 
ENDBRANCH  14  15
ENDBRANCH  13  14
ENDBRANCH  12  13
BRANCH  12  17
HETATM   17  C20 UNL     1      -7.290  28.003   1.687  1.00  0.00     0.177 C 
HETATM   18  O6  UNL     1      -7.140  29.081   1.066  1.00  0.00    -0.293 OA
BRANCH  17  19
HETATM   19  C21 UNL     1      -7.029  28.004   3.110  1.00  0.00     0.190 C 
BRANCH  19  20
HETATM   20  O7  UNL     1      -6.329  26.722   3.332  1.00  0.00    -0.388 OA
ATOM     21  H7  UNL     1      -5.432  26.986   3.503  1.00  0.00     0.210 HD
ENDBRANCH  19  20
BRANCH  19  22
HETATM   22  C22 UNL     1      -8.129  27.924   4.079  1.00  0.00     0.043 C 
BRANCH  22  23
HETATM   23  C23 UNL     1      -9.265  28.860   4.095  1.00  0.00    -0.020 C 
HETATM   24  C24 UNL     1      -9.834  28.747   5.558  1.00  0.00     0.009 C 
HETATM   25  C25 UNL     1     -10.463  28.444   3.256  1.00  0.00     0.009 C 
ENDBRANCH  22  23
ENDBRANCH  19  22
ENDBRANCH  17  19
ENDBRANCH  12  17
ENDBRANCH   9  12
ENDBRANCH   1   8
BRANCH   6  26
HETATM   26  O3  UNL     1      -5.490  25.657  -3.298  1.00  0.00    -0.209 OA
BRANCH  26  27
HETATM   27  C12 UNL     1      -6.708  26.237  -3.546  1.00  0.00     0.370 C 
HETATM   28  O4  UNL     1      -7.021  27.264  -2.860  1.00  0.00    -0.238 OA
HETATM   29  N3  UNL     1      -7.620  25.769  -4.503  1.00  0.00    -0.324 N 
ATOM     30  H3  UNL     1      -7.386  24.948  -5.061  1.00  0.00     0.165 HD
BRANCH  29  31
HETATM   31  C13 UNL     1      -8.883  26.433  -4.710  1.00  0.00     0.175 C 
HETATM   32  C14 UNL     1      -9.963  25.395  -4.592  1.00  0.00     0.042 C 
BRANCH  31  33
HETATM   33  C15 UNL     1      -8.886  27.131  -6.036  1.00  0.00     0.242 C 
HETATM   34  O5  UNL     1      -9.063  26.433  -7.087  1.00  0.00    -0.271 OA
HETATM   35  N4  UNL     1      -8.706  28.517  -6.163  1.00  0.00    -0.350 N 
HETATM   36  C16 UNL     1      -8.496  29.564  -5.185  1.00  0.00     0.126 C 
HETATM   37  C19 UNL     1      -8.693  29.236  -7.450  1.00  0.00     0.126 C 
HETATM   38  C17 UNL     1      -9.420  30.676  -5.651  1.00  0.00     0.021 C 
HETATM   39  C18 UNL     1      -9.336  30.583  -7.166  1.00  0.00     0.021 C 
ENDBRANCH  31  33
ENDBRANCH  29  31
ENDBRANCH  26  27
ENDBRANCH   6  26
TORSDOF 14
ENDMDL
MODEL 3
REMARK VINA RESULT: -6.716407758      3.374      6.112
REMARK  14 active torsions:
REMARK  status: ('A' for Active; 'I' for Inactive)
REMARK    1  A    between atoms: C2_2  and  C3_3 
REMARK    2  A    between atoms: C3_3  and  C4_4 
REMARK    3  A    between atoms: C4_4  and  C5_5 
REMARK    4  A    between atoms: C5_5  and  N1_6 
REMARK    5  A    between atoms: C5_5  and  C20_31 
REMARK       I    between atoms: N1_6  and  C6_8 
REMARK    6  A    between atoms: C6_8  and  C7_10 
REMARK       I    between atoms: N2_14  and  C11_15 
REMARK    7  A    between atoms: C11_15  and  O3_17 
REMARK    8  A    between atoms: O3_17  and  C12_18 
REMARK       I    between atoms: C12_18  and  N3_20 
REMARK    9  A    between atoms: N3_20  and  C13_22 
REMARK   10  A    between atoms: C13_22  and  C15_24 
REMARK       I    between atoms: C15_24  and  N4_26 
REMARK   11  A    between atoms: C20_31  and  C21_33 
REMARK   12  A    between atoms: C21_33  and  O7_34 
REMARK   13  A    between atoms: C21_33  and  C22_36 
REMARK   14  A    between atoms: C22_36  and  C23_37 
ROOT
HETATM    1  C7  UNL     1      -5.025  24.782  -0.838  1.00  0.00     0.181 C 
HETATM    2  C8  UNL     1      -3.975  24.162   0.067  1.00  0.00     0.037 C 
HETATM    3  C9  UNL     1      -2.920  25.203   0.276  1.00  0.00     0.022 C 
HETATM    4  C10 UNL     1      -3.495  26.457  -0.323  1.00  0.00     0.129 C 
HETATM    5  N2  UNL     1      -4.367  25.963  -1.343  1.00  0.00    -0.314 N 
HETATM    6  C11 UNL     1      -4.543  26.539  -2.636  1.00  0.00     0.372 C 
HETATM    7  O2  UNL     1      -3.937  27.573  -3.008  1.00  0.00    -0.238 OA
ENDROOT
BRANCH   1   8
HETATM    8  C6  UNL     1      -6.239  25.150  -0.037  1.00  0.00     0.241 C 
HETATM    9  N1  UNL     1      -6.347  26.396   0.621  1.00  0.00    -0.348 N 
ATOM     10  H1  UNL     1      -5.584  27.071   0.564  1.00  0.00     0.163 HD
HETATM   11  O1  UNL     1      -7.157  24.281   0.017  1.00  0.00    -0.271 OA
BRANCH   9  12
HETATM   12  C5  UNL     1      -7.538  26.714   1.377  1.00  0.00     0.157 C 
BRANCH  12  13
HETATM   13  C4  UNL     1      -8.456  27.628   0.646  1.00  0.00     0.033 C 
BRANCH  13  14
HETATM   14  C3  UNL     1      -9.855  27.208   0.436  1.00  0.00     0.002 C 
BRANCH  14  15
HETATM   15  C2  UNL     1     -10.114  26.178  -0.629  1.00  0.00    -0.004 C 
HETATM   16  C1  UNL     1     -11.618  25.871  -0.612  1.00  0.00     0.005 C 
ENDBRANCH  14  15
ENDBRANCH  13  14
ENDBRANCH  12  13
BRANCH  12  17
HETATM   17  C20 UNL     1      -7.245  27.073   2.791  1.00  0.00     0.177 C 
HETATM   18  O6  UNL     1      -6.624  26.215   3.459  1.00  0.00    -0.293 OA
BRANCH  17  19
HETATM   19  C21 UNL     1      -7.600  28.311   3.450  1.00  0.00     0.190 C 
BRANCH  19  20
HETATM   20  O7  UNL     1      -6.407  28.620   4.265  1.00  0.00    -0.388 OA
ATOM     21  H7  UNL     1      -6.135  29.472   3.946  1.00  0.00     0.210 HD
ENDBRANCH  19  20
BRANCH  19  22
HETATM   22  C22 UNL     1      -8.673  28.353   4.451  1.00  0.00     0.043 C 
BRANCH  22  23
HETATM   23  C23 UNL     1     -10.103  28.403   4.104  1.00  0.00    -0.020 C 
HETATM   24  C24 UNL     1     -10.291  29.825   3.455  1.00  0.00     0.009 C 
HETATM   25  C25 UNL     1     -11.058  28.464   5.285  1.00  0.00     0.009 C 
ENDBRANCH  22  23
ENDBRANCH  19  22
ENDBRANCH  17  19
ENDBRANCH  12  17
ENDBRANCH   9  12
ENDBRANCH   1   8
BRANCH   6  26
HETATM   26  O3  UNL     1      -5.419  25.950  -3.545  1.00  0.00    -0.209 OA
BRANCH  26  27
HETATM   27  C12 UNL     1      -6.524  26.549  -4.094  1.00  0.00     0.370 C 
HETATM   28  O4  UNL     1      -7.570  25.834  -4.241  1.00  0.00    -0.238 OA
HETATM   29  N3  UNL     1      -6.571  27.891  -4.498  1.00  0.00    -0.324 N 
ATOM     30  H3  UNL     1      -5.744  28.478  -4.389  1.00  0.00     0.165 HD
BRANCH  29  31
HETATM   31  C13 UNL     1      -7.771  28.453  -5.066  1.00  0.00     0.175 C 
HETATM   32  C14 UNL     1      -7.357  29.368  -6.183  1.00  0.00     0.042 C 
BRANCH  31  33
HETATM   33  C15 UNL     1      -8.566  29.150  -4.004  1.00  0.00     0.242 C 
HETATM   34  O5  UNL     1      -8.087  30.214  -3.491  1.00  0.00    -0.271 OA
HETATM   35  N4  UNL     1      -9.811  28.681  -3.558  1.00  0.00    -0.350 N 
HETATM   36  C16 UNL     1     -10.611  27.535  -3.937  1.00  0.00     0.126 C 
HETATM   37  C19 UNL     1     -10.615  29.334  -2.508  1.00  0.00     0.126 C 
HETATM   38  C17 UNL     1     -12.015  28.103  -4.046  1.00  0.00     0.021 C 
HETATM   39  C18 UNL     1     -12.062  29.126  -2.922  1.00  0.00     0.021 C 
ENDBRANCH  31  33
ENDBRANCH  29  31
ENDBRANCH  26  27
ENDBRANCH   6  26
TORSDOF 14
ENDMDL
MODEL 4
REMARK VINA RESULT: -6.678668387      2.702      6.088
REMARK  14 active torsions:
REMARK  status: ('A' for Active; 'I' for Inactive)
REMARK    1  A    between atoms: C2_2  and  C3_3 
REMARK    2  A    between atoms: C3_3  and  C4_4 
REMARK    3  A    between atoms: C4_4  and  C5_5 
REMARK    4  A    between atoms: C5_5  and  N1_6 
REMARK    5  A    between atoms: C5_5  and  C20_31 
REMARK       I    between atoms: N1_6  and  C6_8 
REMARK    6  A    between atoms: C6_8  and  C7_10 
REMARK       I    between atoms: N2_14  and  C11_15 
REMARK    7  A    between atoms: C11_15  and  O3_17 
REMARK    8  A    between atoms: O3_17  and  C12_18 
REMARK       I    between atoms: C12_18  and  N3_20 
REMARK    9  A    between atoms: N3_20  and  C13_22 
REMARK   10  A    between atoms: C13_22  and  C15_24 
REMARK       I    between atoms: C15_24  and  N4_26 
REMARK   11  A    between atoms: C20_31  and  C21_33 
REMARK   12  A    between atoms: C21_33  and  O7_34 
REMARK   13  A    between atoms: C21_33  and  C22_36 
REMARK   14  A    between atoms: C22_36  and  C23_37 
ROOT
HETATM    1  C7  UNL     1      -6.424  25.683  -0.639  1.00  0.00     0.181 C 
HETATM    2  C8  UNL     1      -6.931  24.266  -0.439  1.00  0.00     0.037 C 
HETATM    3  C9  UNL     1      -5.867  23.531   0.314  1.00  0.00     0.022 C 
HETATM    4  C10 UNL     1      -4.882  24.594   0.721  1.00  0.00     0.129 C 
HETATM    5  N2  UNL     1      -5.024  25.581  -0.305  1.00  0.00    -0.314 N 
HETATM    6  C11 UNL     1      -3.960  26.324  -0.894  1.00  0.00     0.372 C 
HETATM    7  O2  UNL     1      -2.761  26.184  -0.550  1.00  0.00    -0.238 OA
ENDROOT
BRANCH   1   8
HETATM    8  C6  UNL     1      -7.129  26.617   0.299  1.00  0.00     0.241 C 
HETATM    9  N1  UNL     1      -6.910  28.012   0.265  1.00  0.00    -0.348 N 
ATOM     10  H1  UNL     1      -6.253  28.409  -0.408  1.00  0.00     0.163 HD
HETATM   11  O1  UNL     1      -7.926  26.083   1.124  1.00  0.00    -0.271 OA
BRANCH   9  12
HETATM   12  C5  UNL     1      -7.616  28.879   1.182  1.00  0.00     0.157 C 
BRANCH  12  13
HETATM   13  C4  UNL     1      -8.213  30.064   0.511  1.00  0.00     0.033 C 
BRANCH  13  14
HETATM   14  C3  UNL     1      -9.196  30.878   1.252  1.00  0.00     0.002 C 
BRANCH  14  15
HETATM   15  C2  UNL     1      -8.774  32.262   1.663  1.00  0.00    -0.004 C 
HETATM   16  C1  UNL     1      -8.713  32.285   3.197  1.00  0.00     0.005 C 
ENDBRANCH  14  15
ENDBRANCH  13  14
ENDBRANCH  12  13
BRANCH  12  17
HETATM   17  C20 UNL     1      -6.847  29.150   2.427  1.00  0.00     0.177 C 
HETATM   18  O6  UNL     1      -5.982  30.053   2.354  1.00  0.00    -0.293 OA
BRANCH  17  19
HETATM   19  C21 UNL     1      -7.014  28.480   3.699  1.00  0.00     0.190 C 
BRANCH  19  20
HETATM   20  O7  UNL     1      -6.246  27.228   3.531  1.00  0.00    -0.388 OA
ATOM     21  H7  UNL     1      -6.812  26.692   2.989  1.00  0.00     0.210 HD
ENDBRANCH  19  20
BRANCH  19  22
HETATM   22  C22 UNL     1      -8.328  27.979   4.121  1.00  0.00     0.043 C 
BRANCH  22  23
HETATM   23  C23 UNL     1      -9.487  28.852   4.367  1.00  0.00    -0.020 C 
HETATM   24  C24 UNL     1      -9.975  28.444   5.807  1.00  0.00     0.009 C 
HETATM   25  C25 UNL     1     -10.715  28.558   3.521  1.00  0.00     0.009 C 
ENDBRANCH  22  23
ENDBRANCH  19  22
ENDBRANCH  17  19
ENDBRANCH  12  17
ENDBRANCH   9  12
ENDBRANCH   1   8
BRANCH   6  26
HETATM   26  O3  UNL     1      -4.232  27.252  -1.897  1.00  0.00    -0.209 OA
BRANCH  26  27
HETATM   27  C12 UNL     1      -4.916  26.999  -3.058  1.00  0.00     0.370 C 
HETATM   28  O4  UNL     1      -4.432  26.123  -3.848  1.00  0.00    -0.238 OA
HETATM   29  N3  UNL     1      -6.109  27.640  -3.422  1.00  0.00    -0.324 N 
ATOM     30  H3  UNL     1      -6.511  28.344  -2.803  1.00  0.00     0.165 HD
BRANCH  29  31
HETATM   31  C13 UNL     1      -6.775  27.319  -4.660  1.00  0.00     0.175 C 
HETATM   32  C14 UNL     1      -7.297  28.603  -5.238  1.00  0.00     0.042 C 
BRANCH  31  33
HETATM   33  C15 UNL     1      -7.853  26.306  -4.418  1.00  0.00     0.242 C 
HETATM   34  O5  UNL     1      -7.714  25.143  -4.920  1.00  0.00    -0.271 OA
HETATM   35  N4  UNL     1      -9.001  26.587  -3.662  1.00  0.00    -0.350 N 
HETATM   36  C16 UNL     1      -9.441  27.780  -2.969  1.00  0.00     0.126 C 
HETATM   37  C19 UNL     1     -10.086  25.620  -3.413  1.00  0.00     0.126 C 
HETATM   38  C17 UNL     1      -9.941  27.252  -1.636  1.00  0.00     0.021 C 
HETATM   39  C18 UNL     1     -10.580  25.924  -2.008  1.00  0.00     0.021 C 
ENDBRANCH  31  33
ENDBRANCH  29  31
ENDBRANCH  26  27
ENDBRANCH   6  26
TORSDOF 14
ENDMDL
MODEL 5
REMARK VINA RESULT: -6.666456053      2.637      6.279
REMARK  14 active torsions:
REMARK  status: ('A' for Active; 'I' for Inactive)
REMARK    1  A    between atoms: C2_2  and  C3_3 
REMARK    2  A    between atoms: C3_3  and  C4_4 
REMARK    3  A    between atoms: C4_4  and  C5_5 
REMARK    4  A    between atoms: C5_5  and  N1_6 
REMARK    5  A    between atoms: C5_5  and  C20_31 
REMARK       I    between atoms: N1_6  and  C6_8 
REMARK    6  A    between atoms: C6_8  and  C7_10 
REMARK       I    between atoms: N2_14  and  C11_15 
REMARK    7  A    between atoms: C11_15  and  O3_17 
REMARK    8  A    between atoms: O3_17  and  C12_18 
REMARK       I    between atoms: C12_18  and  N3_20 
REMARK    9  A    between atoms: N3_20  and  C13_22 
REMARK   10  A    between atoms: C13_22  and  C15_24 
REMARK       I    between atoms: C15_24  and  N4_26 
REMARK   11  A    between atoms: C20_31  and  C21_33 
REMARK   12  A    between atoms: C21_33  and  O7_34 
REMARK   13  A    between atoms: C21_33  and  C22_36 
REMARK   14  A    between atoms: C22_36  and  C23_37 
ROOT
HETATM    1  C7  UNL     1      -5.953  26.102  -0.320  1.00  0.00     0.181 C 
HETATM    2  C8  UNL     1      -6.652  24.848   0.171  1.00  0.00     0.037 C 
HETATM    3  C9  UNL     1      -5.593  23.802   0.336  1.00  0.00     0.022 C 
HETATM    4  C10 UNL     1      -4.295  24.540   0.153  1.00  0.00     0.129 C 
HETATM    5  N2  UNL     1      -4.651  25.619  -0.716  1.00  0.00    -0.314 N 
HETATM    6  C11 UNL     1      -3.856  26.120  -1.788  1.00  0.00     0.372 C 
HETATM    7  O2  UNL     1      -2.728  25.651  -2.074  1.00  0.00    -0.238 OA
ENDROOT
BRANCH   1   8
HETATM    8  C6  UNL     1      -5.835  27.095   0.798  1.00  0.00     0.241 C 
HETATM    9  N1  UNL     1      -6.956  27.492   1.562  1.00  0.00    -0.348 N 
ATOM     10  H1  UNL     1      -7.877  27.105   1.355  1.00  0.00     0.163 HD
HETATM   11  O1  UNL     1      -4.678  27.559   1.014  1.00  0.00    -0.271 OA
BRANCH   9  12
HETATM   12  C5  UNL     1      -6.798  28.447   2.636  1.00  0.00     0.157 C 
BRANCH  12  13
HETATM   13  C4  UNL     1      -7.599  28.097   3.840  1.00  0.00     0.033 C 
BRANCH  13  14
HETATM   14  C3  UNL     1      -9.062  28.293   3.798  1.00  0.00     0.002 C 
BRANCH  14  15
HETATM   15  C2  UNL     1      -9.664  29.205   4.831  1.00  0.00    -0.004 C 
HETATM   16  C1  UNL     1     -10.172  28.323   5.980  1.00  0.00     0.005 C 
ENDBRANCH  14  15
ENDBRANCH  13  14
ENDBRANCH  12  13
BRANCH  12  17
HETATM   17  C20 UNL     1      -6.894  29.858   2.173  1.00  0.00     0.177 C 
HETATM   18  O6  UNL     1      -7.859  30.125   1.421  1.00  0.00    -0.293 OA
BRANCH  17  19
HETATM   19  C21 UNL     1      -5.991  30.934   2.518  1.00  0.00     0.190 C 
BRANCH  19  20
HETATM   20  O7  UNL     1      -5.332  30.450   3.749  1.00  0.00    -0.388 OA
ATOM     21  H7  UNL     1      -5.419  31.181   4.349  1.00  0.00     0.210 HD
ENDBRANCH  19  20
BRANCH  19  22
HETATM   22  C22 UNL     1      -6.503  32.244   2.940  1.00  0.00     0.043 C 
BRANCH  22  23
HETATM   23  C23 UNL     1      -6.168  33.504   2.256  1.00  0.00    -0.020 C 
HETATM   24  C24 UNL     1      -7.199  34.541   2.837  1.00  0.00     0.009 C 
HETATM   25  C25 UNL     1      -6.482  33.542   0.770  1.00  0.00     0.009 C 
ENDBRANCH  22  23
ENDBRANCH  19  22
ENDBRANCH  17  19
ENDBRANCH  12  17
ENDBRANCH   9  12
ENDBRANCH   1   8
BRANCH   6  26
HETATM   26  O3  UNL     1      -4.326  27.174  -2.568  1.00  0.00    -0.209 OA
BRANCH  26  27
HETATM   27  C12 UNL     1      -5.230  27.069  -3.594  1.00  0.00     0.370 C 
HETATM   28  O4  UNL     1      -5.197  26.010  -4.303  1.00  0.00    -0.238 OA
HETATM   29  N3  UNL     1      -6.183  28.051  -3.904  1.00  0.00    -0.324 N 
ATOM     30  H3  UNL     1      -6.224  28.905  -3.348  1.00  0.00     0.165 HD
BRANCH  29  31
HETATM   31  C13 UNL     1      -7.106  27.869  -4.997  1.00  0.00     0.175 C 
HETATM   32  C14 UNL     1      -7.188  29.173  -5.739  1.00  0.00     0.042 C 
BRANCH  31  33
HETATM   33  C15 UNL     1      -8.433  27.406  -4.480  1.00  0.00     0.242 C 
HETATM   34  O5  UNL     1      -9.133  28.221  -3.794  1.00  0.00    -0.271 OA
HETATM   35  N4  UNL     1      -8.934  26.118  -4.723  1.00  0.00    -0.350 N 
HETATM   36  C16 UNL     1      -8.400  24.989  -5.456  1.00  0.00     0.126 C 
HETATM   37  C19 UNL     1     -10.229  25.624  -4.221  1.00  0.00     0.126 C 
HETATM   38  C17 UNL     1      -9.589  24.490  -6.256  1.00  0.00     0.021 C 
HETATM   39  C18 UNL     1     -10.758  24.704  -5.309  1.00  0.00     0.021 C 
ENDBRANCH  31  33
ENDBRANCH  29  31
ENDBRANCH  26  27
ENDBRANCH   6  26
TORSDOF 14
ENDMDL
