MODEL 1
REMARK VINA RESULT: -7.206263058      0.000      0.000
REMARK  9 active torsions:
REMARK  status: ('A' for Active; 'I' for Inactive)
REMARK    1  A    between atoms: N1_1  and  C1_4 
REMARK    2  A    between atoms: C4_12  and  N4_13 
REMARK    3  A    between atoms: N4_13  and  C5_15 
REMARK    4  A    between atoms: C5_15  and  N5_16 
REMARK    5  A    between atoms: N6_20  and  C6_21 
REMARK    6  A    between atoms: C6_21  and  C7_22 
REMARK    7  A    between atoms: C7_22  and  C8_23 
REMARK    8  A    between atoms: C8_23  and  C9_24 
REMARK    9  A    between atoms: C9_24  and  O2_25 
ROOT
HETATM    1  C1  UNL     1      20.386 -19.877  43.690  1.00  0.00     0.679 A 
HETATM    2  N2  UNL     1      19.520 -20.481  44.502  1.00  0.00    -0.154 N 
ATOM      3  H2  UNL     1      19.863 -20.911  45.362  1.00  0.00     0.187 HD
HETATM    4  C2  UNL     1      18.201 -20.541  44.218  1.00  0.00     0.289 A 
HETATM    5  O1  UNL     1      17.412 -21.117  45.003  1.00  0.00    -0.265 OA
HETATM    6  C3  UNL     1      17.740 -19.960  43.052  1.00  0.00     0.150 A 
HETATM    7  N3  UNL     1      16.418 -19.999  42.730  1.00  0.00    -0.184 N 
ATOM      8  H3  UNL     1      15.770 -20.466  43.364  1.00  0.00     0.184 HD
HETATM    9  C4  UNL     1      15.937 -19.442  41.603  1.00  0.00     0.685 A 
HETATM   10  N6  UNL     1      16.824 -18.836  40.793  1.00  0.00    -0.146 N 
HETATM   11  C10 UNL     1      18.146 -18.766  41.061  1.00  0.00     0.291 A 
HETATM   12  O3  UNL     1      18.953 -18.184  40.269  1.00  0.00    -0.265 OA
HETATM   13  C11 UNL     1      18.641 -19.335  42.214  1.00  0.00     0.150 A 
HETATM   14  N7  UNL     1      19.946 -19.302  42.541  1.00  0.00    -0.184 N 
ATOM     15  H7  UNL     1      20.611 -18.841  41.920  1.00  0.00     0.184 HD
ENDROOT
BRANCH   9  16
HETATM   16  N4  UNL     1      14.677 -19.482  41.302  1.00  0.00    -0.202 N 
ATOM     17  H4  UNL     1      14.404 -19.991  40.461  1.00  0.00     0.179 HD
BRANCH  16  18
HETATM   18  C5  UNL     1      13.648 -18.860  42.068  1.00  0.00     0.368 C 
BRANCH  18  19
HETATM   19  N5  UNL     1      13.847 -17.416  41.997  1.00  0.00    -0.063 N 
ATOM     20  H53 UNL     1      14.710 -17.158  41.517  1.00  0.00     0.276 HD
ATOM     21  H52 UNL     1      13.196 -16.957  41.360  1.00  0.00     0.276 HD
ATOM     22  H51 UNL     1      13.798 -17.046  42.946  1.00  0.00     0.276 HD
ENDBRANCH  18  19
ENDBRANCH  16  18
ENDBRANCH   9  16
BRANCH  10  23
HETATM   23  C6  UNL     1      16.287 -18.239  39.577  1.00  0.00     0.151 C 
BRANCH  23  24
HETATM   24  C7  UNL     1      16.403 -19.209  38.412  1.00  0.00     0.023 C 
BRANCH  24  25
HETATM   25  C8  UNL     1      16.662 -18.445  37.132  1.00  0.00     0.028 C 
BRANCH  25  26
HETATM   26  C9  UNL     1      16.490 -19.372  35.956  1.00  0.00     0.164 C 
BRANCH  26  27
HETATM   27  O2  UNL     1      16.556 -20.693  36.399  1.00  0.00    -0.401 OA
ATOM     28  H2  UNL     1      16.440 -21.277  35.659  1.00  0.00     0.209 HD
ENDBRANCH  26  27
ENDBRANCH  25  26
ENDBRANCH  24  25
ENDBRANCH  23  24
ENDBRANCH  10  23
BRANCH   1  29
HETATM   29  N1  UNL     1      21.652 -19.800  43.925  1.00  0.00    -0.234 N 
ATOM     30  H12 UNL     1      22.137 -20.679  44.103  1.00  0.00     0.174 HD
ATOM     31  H11 UNL     1      22.170 -18.921  43.942  1.00  0.00     0.174 HD
ENDBRANCH   1  29
TORSDOF 9
ENDMDL
MODEL 2
REMARK VINA RESULT: -7.017282843      1.715      1.859
REMARK  9 active torsions:
REMARK  status: ('A' for Active; 'I' for Inactive)
REMARK    1  A    between atoms: N1_1  and  C1_4 
REMARK    2  A    between atoms: C4_12  and  N4_13 
REMARK    3  A    between atoms: N4_13  and  C5_15 
REMARK    4  A    between atoms: C5_15  and  N5_16 
REMARK    5  A    between atoms: N6_20  and  C6_21 
REMARK    6  A    between atoms: C6_21  and  C7_22 
REMARK    7  A    between atoms: C7_22  and  C8_23 
REMARK    8  A    between atoms: C8_23  and  C9_24 
REMARK    9  A    between atoms: C9_24  and  O2_25 
ROOT
HETATM    1  C1  UNL     1      20.697 -19.390  43.567  1.00  0.00     0.679 A 
HETATM    2  N2  UNL     1      20.337 -18.353  44.321  1.00  0.00    -0.154 N 
ATOM      3  H2  UNL     1      20.955 -18.048  45.073  1.00  0.00     0.187 HD
HETATM    4  C2  UNL     1      19.176 -17.694  44.116  1.00  0.00     0.289 A 
HETATM    5  O1  UNL     1      18.866 -16.722  44.843  1.00  0.00    -0.265 OA
HETATM    6  C3  UNL     1      18.340 -18.111  43.097  1.00  0.00     0.150 A 
HETATM    7  N3  UNL     1      17.161 -17.474  42.858  1.00  0.00    -0.184 N 
ATOM      8  H3  UNL     1      16.902 -16.681  43.446  1.00  0.00     0.184 HD
HETATM    9  C4  UNL     1      16.326 -17.853  41.873  1.00  0.00     0.685 A 
HETATM   10  N6  UNL     1      16.704 -18.903  41.121  1.00  0.00    -0.146 N 
HETATM   11  C10 UNL     1      17.861 -19.573  41.311  1.00  0.00     0.291 A 
HETATM   12  O3  UNL     1      18.183 -20.561  40.578  1.00  0.00    -0.265 OA
HETATM   13  C11 UNL     1      18.718 -19.186  42.318  1.00  0.00     0.150 A 
HETATM   14  N7  UNL     1      19.886 -19.810  42.562  1.00  0.00    -0.184 N 
ATOM     15  H7  UNL     1      20.164 -20.605  41.987  1.00  0.00     0.184 HD
ENDROOT
BRANCH   9  16
HETATM   16  N4  UNL     1      15.205 -17.243  41.651  1.00  0.00    -0.202 N 
ATOM     17  H4  UNL     1      15.244 -16.288  41.294  1.00  0.00     0.179 HD
BRANCH  16  18
HETATM   18  C5  UNL     1      13.920 -17.818  41.875  1.00  0.00     0.368 C 
BRANCH  18  19
HETATM   19  N5  UNL     1      14.060 -18.842  42.905  1.00  0.00    -0.063 N 
ATOM     20  H53 UNL     1      14.546 -19.675  42.571  1.00  0.00     0.276 HD
ATOM     21  H52 UNL     1      14.724 -18.582  43.634  1.00  0.00     0.276 HD
ATOM     22  H51 UNL     1      13.131 -19.048  43.271  1.00  0.00     0.276 HD
ENDBRANCH  18  19
ENDBRANCH  16  18
ENDBRANCH   9  16
BRANCH  10  23
HETATM   23  C6  UNL     1      15.789 -19.301  40.060  1.00  0.00     0.151 C 
BRANCH  23  24
HETATM   24  C7  UNL     1      16.202 -18.675  38.737  1.00  0.00     0.023 C 
BRANCH  24  25
HETATM   25  C8  UNL     1      16.520 -19.762  37.733  1.00  0.00     0.028 C 
BRANCH  25  26
HETATM   26  C9  UNL     1      16.501 -19.175  36.345  1.00  0.00     0.164 C 
BRANCH  26  27
HETATM   27  O2  UNL     1      16.093 -20.153  35.438  1.00  0.00    -0.401 OA
ATOM     28  H2  UNL     1      15.244 -19.917  35.083  1.00  0.00     0.209 HD
ENDBRANCH  26  27
ENDBRANCH  25  26
ENDBRANCH  24  25
ENDBRANCH  23  24
ENDBRANCH  10  23
BRANCH   1  29
HETATM   29  N1  UNL     1      21.797 -20.045  43.731  1.00  0.00    -0.234 N 
ATOM     30  H12 UNL     1      22.382 -19.763  44.516  1.00  0.00     0.174 HD
ATOM     31  H11 UNL     1      22.095 -20.809  43.124  1.00  0.00     0.174 HD
ENDBRANCH   1  29
TORSDOF 9
ENDMDL
MODEL 3
REMARK VINA RESULT: -6.721928856      1.176      1.274
REMARK  9 active torsions:
REMARK  status: ('A' for Active; 'I' for Inactive)
REMARK    1  A    between atoms: N1_1  and  C1_4 
REMARK    2  A    between atoms: C4_12  and  N4_13 
REMARK    3  A    between atoms: N4_13  and  C5_15 
REMARK    4  A    between atoms: C5_15  and  N5_16 
REMARK    5  A    between atoms: N6_20  and  C6_21 
REMARK    6  A    between atoms: C6_21  and  C7_22 
REMARK    7  A    between atoms: C7_22  and  C8_23 
REMARK    8  A    between atoms: C8_23  and  C9_24 
REMARK    9  A    between atoms: C9_24  and  O2_25 
ROOT
HETATM    1  C1  UNL     1      19.387 -21.360  43.896  1.00  0.00     0.679 A 
HETATM    2  N2  UNL     1      18.408 -21.289  44.797  1.00  0.00    -0.154 N 
ATOM      3  H2  UNL     1      18.487 -21.829  45.659  1.00  0.00     0.187 HD
HETATM    4  C2  UNL     1      17.315 -20.521  44.600  1.00  0.00     0.289 A 
HETATM    5  O1  UNL     1      16.412 -20.476  45.467  1.00  0.00    -0.265 OA
HETATM    6  C3  UNL     1      17.210 -19.792  43.431  1.00  0.00     0.150 A 
HETATM    7  N3  UNL     1      16.124 -19.006  43.195  1.00  0.00    -0.184 N 
ATOM      8  H3  UNL     1      15.384 -18.964  43.896  1.00  0.00     0.184 HD
HETATM    9  C4  UNL     1      15.992 -18.283  42.067  1.00  0.00     0.685 A 
HETATM   10  N6  UNL     1      16.989 -18.366  41.167  1.00  0.00    -0.146 N 
HETATM   11  C10 UNL     1      18.089 -19.128  41.347  1.00  0.00     0.291 A 
HETATM   12  O3  UNL     1      19.010 -19.180  40.472  1.00  0.00    -0.265 OA
HETATM   13  C11 UNL     1      18.227 -19.869  42.501  1.00  0.00     0.150 A 
HETATM   14  N7  UNL     1      19.297 -20.649  42.743  1.00  0.00    -0.184 N 
ATOM     15  H7  UNL     1      20.047 -20.706  42.055  1.00  0.00     0.184 HD
ENDROOT
BRANCH   9  16
HETATM   16  N4  UNL     1      14.956 -17.537  41.848  1.00  0.00    -0.202 N 
ATOM     17  H4  UNL     1      15.113 -16.551  41.636  1.00  0.00     0.179 HD
BRANCH  16  18
HETATM   18  C5  UNL     1      13.609 -18.003  41.884  1.00  0.00     0.368 C 
BRANCH  18  19
HETATM   19  N5  UNL     1      13.436 -18.957  40.793  1.00  0.00    -0.063 N 
ATOM     20  H53 UNL     1      13.773 -18.601  39.899  1.00  0.00     0.276 HD
ATOM     21  H52 UNL     1      14.063 -19.758  40.864  1.00  0.00     0.276 HD
ATOM     22  H51 UNL     1      12.453 -19.227  40.766  1.00  0.00     0.276 HD
ENDBRANCH  18  19
ENDBRANCH  16  18
ENDBRANCH   9  16
BRANCH  10  23
HETATM   23  C6  UNL     1      16.831 -17.578  39.953  1.00  0.00     0.151 C 
BRANCH  23  24
HETATM   24  C7  UNL     1      16.330 -18.451  38.813  1.00  0.00     0.023 C 
BRANCH  24  25
HETATM   25  C8  UNL     1      17.008 -18.048  37.522  1.00  0.00     0.028 C 
BRANCH  25  26
HETATM   26  C9  UNL     1      16.557 -18.968  36.416  1.00  0.00     0.164 C 
BRANCH  26  27
HETATM   27  O2  UNL     1      16.344 -20.243  36.936  1.00  0.00    -0.401 OA
ATOM     28  H2  UNL     1      15.604 -20.643  36.495  1.00  0.00     0.209 HD
ENDBRANCH  26  27
ENDBRANCH  25  26
ENDBRANCH  24  25
ENDBRANCH  23  24
ENDBRANCH  10  23
BRANCH   1  29
HETATM   29  N1  UNL     1      20.446 -22.082  44.047  1.00  0.00    -0.234 N 
ATOM     30  H12 UNL     1      20.336 -22.949  44.573  1.00  0.00     0.174 HD
ATOM     31  H11 UNL     1      21.360 -21.827  43.675  1.00  0.00     0.174 HD
ENDBRANCH   1  29
TORSDOF 9
ENDMDL
MODEL 4
REMARK VINA RESULT: -6.707823722      2.158      5.747
REMARK  9 active torsions:
REMARK  status: ('A' for Active; 'I' for Inactive)
REMARK    1  A    between atoms: N1_1  and  C1_4 
REMARK    2  A    between atoms: C4_12  and  N4_13 
REMARK    3  A    between atoms: N4_13  and  C5_15 
REMARK    4  A    between atoms: C5_15  and  N5_16 
REMARK    5  A    between atoms: N6_20  and  C6_21 
REMARK    6  A    between atoms: C6_21  and  C7_22 
REMARK    7  A    between atoms: C7_22  and  C8_23 
REMARK    8  A    between atoms: C8_23  and  C9_24 
REMARK    9  A    between atoms: C9_24  and  O2_25 
ROOT
HETATM    1  C1  UNL     1      16.690 -17.883  38.528  1.00  0.00     0.679 A 
HETATM    2  N2  UNL     1      15.417 -18.181  38.780  1.00  0.00    -0.154 N 
ATOM      3  H2  UNL     1      14.719 -18.035  38.050  1.00  0.00     0.187 HD
HETATM    4  C2  UNL     1      15.024 -18.671  39.976  1.00  0.00     0.289 A 
HETATM    5  O1  UNL     1      13.818 -18.942  40.181  1.00  0.00    -0.265 OA
HETATM    6  C3  UNL     1      15.971 -18.866  40.963  1.00  0.00     0.150 A 
HETATM    7  N3  UNL     1      15.616 -19.358  42.182  1.00  0.00    -0.184 N 
ATOM      8  H3  UNL     1      14.636 -19.581  42.356  1.00  0.00     0.184 HD
HETATM    9  C4  UNL     1      16.514 -19.561  43.164  1.00  0.00     0.685 A 
HETATM   10  N6  UNL     1      17.796 -19.254  42.893  1.00  0.00    -0.146 N 
HETATM   11  C10 UNL     1      18.206 -18.763  41.705  1.00  0.00     0.291 A 
HETATM   12  O3  UNL     1      19.429 -18.486  41.488  1.00  0.00    -0.265 OA
HETATM   13  C11 UNL     1      17.289 -18.555  40.697  1.00  0.00     0.150 A 
HETATM   14  N7  UNL     1      17.631 -18.069  39.489  1.00  0.00    -0.184 N 
ATOM     15  H7  UNL     1      18.605 -17.839  39.294  1.00  0.00     0.184 HD
ENDROOT
BRANCH   9  16
HETATM   16  N4  UNL     1      16.170 -20.029  44.322  1.00  0.00    -0.202 N 
ATOM     17  H4  UNL     1      16.791 -19.853  45.112  1.00  0.00     0.179 HD
BRANCH  16  18
HETATM   18  C5  UNL     1      14.979 -20.776  44.564  1.00  0.00     0.368 C 
BRANCH  18  19
HETATM   19  N5  UNL     1      15.238 -22.164  44.194  1.00  0.00    -0.063 N 
ATOM     20  H53 UNL     1      15.548 -22.264  43.228  1.00  0.00     0.276 HD
ATOM     21  H52 UNL     1      16.070 -22.545  44.644  1.00  0.00     0.276 HD
ATOM     22  H51 UNL     1      14.397 -22.704  44.397  1.00  0.00     0.276 HD
ENDBRANCH  18  19
ENDBRANCH  16  18
ENDBRANCH   9  16
BRANCH  10  23
HETATM   23  C6  UNL     1      18.754 -19.478  43.967  1.00  0.00     0.151 C 
BRANCH  23  24
HETATM   24  C7  UNL     1      19.392 -20.853  43.833  1.00  0.00     0.023 C 
BRANCH  24  25
HETATM   25  C8  UNL     1      19.651 -21.434  45.206  1.00  0.00     0.028 C 
BRANCH  25  26
HETATM   26  C9  UNL     1      18.559 -22.416  45.544  1.00  0.00     0.164 C 
BRANCH  26  27
HETATM   27  O2  UNL     1      17.638 -21.806  46.394  1.00  0.00    -0.401 OA
ATOM     28  H2  UNL     1      17.952 -20.940  46.627  1.00  0.00     0.209 HD
ENDBRANCH  26  27
ENDBRANCH  25  26
ENDBRANCH  24  25
ENDBRANCH  23  24
ENDBRANCH  10  23
BRANCH   1  29
HETATM   29  N1  UNL     1      17.104 -17.413  37.400  1.00  0.00    -0.234 N 
ATOM     30  H12 UNL     1      16.389 -17.205  36.703  1.00  0.00     0.174 HD
ATOM     31  H11 UNL     1      18.087 -17.246  37.184  1.00  0.00     0.174 HD
ENDBRANCH   1  29
TORSDOF 9
ENDMDL
MODEL 5
REMARK VINA RESULT: -6.680665100      2.395      5.606
REMARK  9 active torsions:
REMARK  status: ('A' for Active; 'I' for Inactive)
REMARK    1  A    between atoms: N1_1  and  C1_4 
REMARK    2  A    between atoms: C4_12  and  N4_13 
REMARK    3  A    between atoms: N4_13  and  C5_15 
REMARK    4  A    between atoms: C5_15  and  N5_16 
REMARK    5  A    between atoms: N6_20  and  C6_21 
REMARK    6  A    between atoms: C6_21  and  C7_22 
REMARK    7  A    between atoms: C7_22  and  C8_23 
REMARK    8  A    between atoms: C8_23  and  C9_24 
REMARK    9  A    between atoms: C9_24  and  O2_25 
ROOT
HETATM    1  C1  UNL     1      16.637 -17.793  38.375  1.00  0.00     0.679 A 
HETATM    2  N2  UNL     1      15.403 -18.158  38.721  1.00  0.00    -0.154 N 
ATOM      3  H2  UNL     1      14.638 -18.005  38.064  1.00  0.00     0.187 HD
HETATM    4  C2  UNL     1      15.138 -18.725  39.918  1.00  0.00     0.289 A 
HETATM    5  O1  UNL     1      13.967 -19.057  40.213  1.00  0.00    -0.265 OA
HETATM    6  C3  UNL     1      16.177 -18.929  40.807  1.00  0.00     0.150 A 
HETATM    7  N3  UNL     1      15.952 -19.497  42.023  1.00  0.00    -0.184 N 
ATOM      8  H3  UNL     1      15.000 -19.770  42.270  1.00  0.00     0.184 HD
HETATM    9  C4  UNL     1      16.941 -19.711  42.910  1.00  0.00     0.685 A 
HETATM   10  N6  UNL     1      18.181 -19.336  42.546  1.00  0.00    -0.146 N 
HETATM   11  C10 UNL     1      18.464 -18.769  41.354  1.00  0.00     0.291 A 
HETATM   12  O3  UNL     1      19.651 -18.429  41.046  1.00  0.00    -0.265 OA
HETATM   13  C11 UNL     1      17.453 -18.549  40.443  1.00  0.00     0.150 A 
HETATM   14  N7  UNL     1      17.666 -17.988  39.238  1.00  0.00    -0.184 N 
ATOM     15  H7  UNL     1      18.610 -17.707  38.971  1.00  0.00     0.184 HD
ENDROOT
BRANCH   9  16
HETATM   16  N4  UNL     1      16.720 -20.252  44.067  1.00  0.00    -0.202 N 
ATOM     17  H4  UNL     1      17.405 -20.095  44.806  1.00  0.00     0.179 HD
BRANCH  16  18
HETATM   18  C5  UNL     1      15.581 -21.053  44.374  1.00  0.00     0.368 C 
BRANCH  18  19
HETATM   19  N5  UNL     1      14.596 -20.199  45.030  1.00  0.00    -0.063 N 
ATOM     20  H53 UNL     1      14.960 -19.747  45.868  1.00  0.00     0.276 HD
ATOM     21  H52 UNL     1      14.390 -19.353  44.498  1.00  0.00     0.276 HD
ATOM     22  H51 UNL     1      13.766 -20.762  45.213  1.00  0.00     0.276 HD
ENDBRANCH  18  19
ENDBRANCH  16  18
ENDBRANCH   9  16
BRANCH  10  23
HETATM   23  C6  UNL     1      19.240 -19.574  43.518  1.00  0.00     0.151 C 
BRANCH  23  24
HETATM   24  C7  UNL     1      19.892 -20.926  43.274  1.00  0.00     0.023 C 
BRANCH  24  25
HETATM   25  C8  UNL     1      21.315 -20.731  42.797  1.00  0.00     0.028 C 
BRANCH  25  26
HETATM   26  C9  UNL     1      22.254 -21.454  43.728  1.00  0.00     0.164 C 
BRANCH  26  27
HETATM   27  O2  UNL     1      22.862 -20.529  44.577  1.00  0.00    -0.401 OA
ATOM     28  H2  UNL     1      22.645 -20.741  45.477  1.00  0.00     0.209 HD
ENDBRANCH  26  27
ENDBRANCH  25  26
ENDBRANCH  24  25
ENDBRANCH  23  24
ENDBRANCH  10  23
BRANCH   1  29
HETATM   29  N1  UNL     1      16.930 -17.249  37.242  1.00  0.00    -0.234 N 
ATOM     30  H12 UNL     1      16.592 -16.299  37.092  1.00  0.00     0.174 HD
ATOM     31  H11 UNL     1      17.468 -17.718  36.513  1.00  0.00     0.174 HD
ENDBRANCH   1  29
TORSDOF 9
ENDMDL
