MODEL 1
REMARK VINA RESULT: -7.775001666      0.000      0.000
REMARK  5 active torsions:
REMARK  status: ('A' for Active; 'I' for Inactive)
REMARK    1  A    between atoms: C5_8  and  N3_9 
REMARK    2  A    between atoms: N3_9  and  C6_11 
REMARK    3  A    between atoms: C6_11  and  C7_12 
REMARK    4  A    between atoms: C7_12  and  C8_13 
REMARK    5  A    between atoms: C8_13  and  N4_14 
REMARK       I    between atoms: N4_14  and  C9_16 
ROOT
HETATM    1  C1  UNL     1      13.183 -18.315  41.916  1.00  0.00     0.163 C 
HETATM    2  N1  UNL     1      14.515 -18.931  41.991  1.00  0.00    -0.287 N 
HETATM    3  C2  UNL     1      14.956 -19.815  42.903  1.00  0.00     0.330 A 
HETATM    4  O1  UNL     1      14.293 -20.275  43.870  1.00  0.00    -0.246 OA
HETATM    5  N2  UNL     1      16.232 -20.155  42.649  1.00  0.00    -0.297 N 
HETATM    6  C3  UNL     1      17.063 -21.092  43.416  1.00  0.00     0.161 C 
HETATM    7  C4  UNL     1      16.627 -19.488  41.559  1.00  0.00     0.128 A 
HETATM    8  C5  UNL     1      17.839 -19.468  40.865  1.00  0.00     0.148 A 
HETATM    9  N7  UNL     1      17.887 -18.665  39.787  1.00  0.00    -0.175 N 
ATOM     10  H7  UNL     1      18.753 -18.617  39.249  1.00  0.00     0.186 HD
HETATM   11  C10 UNL     1      16.826 -17.914  39.389  1.00  0.00     0.679 A 
HETATM   12  N8  UNL     1      16.893 -17.147  38.354  1.00  0.00    -0.234 N 
ATOM     13  H81 UNL     1      16.096 -16.583  38.055  1.00  0.00     0.174 HD
ATOM     14  H82 UNL     1      17.775 -17.127  37.841  1.00  0.00     0.174 HD
HETATM   15  N9  UNL     1      15.662 -17.940  40.066  1.00  0.00    -0.174 N 
ATOM     16  H9  UNL     1      14.874 -17.371  39.757  1.00  0.00     0.186 HD
HETATM   17  C11 UNL     1      15.551 -18.727  41.156  1.00  0.00     0.158 A 
ENDROOT
BRANCH   8  18
HETATM   18  N3  UNL     1      18.828 -20.198  41.274  1.00  0.00    -0.374 N 
ATOM     19  H3  UNL     1      18.632 -21.136  41.625  1.00  0.00     0.161 HD
BRANCH  18  20
HETATM   20  C6  UNL     1      20.217 -19.731  41.251  1.00  0.00     0.123 C 
BRANCH  20  21
HETATM   21  C7  UNL     1      20.945 -20.500  42.291  1.00  0.00     0.039 C 
BRANCH  21  22
HETATM   22  C8  UNL     1      20.946 -19.956  43.670  1.00  0.00     0.123 C 
BRANCH  22  23
HETATM   23  N4  UNL     1      19.758 -19.323  44.130  1.00  0.00    -0.365 N 
HETATM   24  C9  UNL     1      19.570 -17.936  44.294  1.00  0.00     0.181 C 
HETATM   25  N5  UNL     1      20.433 -17.190  44.916  1.00  0.00    -0.374 N 
HETATM   26  N6  UNL     1      18.418 -17.276  43.791  1.00  0.00    -0.064 NA
ATOM     27  H52 UNL     1      21.261 -17.664  45.277  1.00  0.00     0.158 HD
ATOM     28  H51 UNL     1      20.297 -16.186  45.034  1.00  0.00     0.158 HD
ATOM     29  H4  UNL     1      18.971 -19.929  44.363  1.00  0.00     0.162 HD
ENDBRANCH  22  23
ENDBRANCH  21  22
ENDBRANCH  20  21
ENDBRANCH  18  20
ENDBRANCH   8  18
TORSDOF 5
ENDMDL
MODEL 2
REMARK VINA RESULT: -7.658771717      2.017      5.097
REMARK  5 active torsions:
REMARK  status: ('A' for Active; 'I' for Inactive)
REMARK    1  A    between atoms: C5_8  and  N3_9 
REMARK    2  A    between atoms: N3_9  and  C6_11 
REMARK    3  A    between atoms: C6_11  and  C7_12 
REMARK    4  A    between atoms: C7_12  and  C8_13 
REMARK    5  A    between atoms: C8_13  and  N4_14 
REMARK       I    between atoms: N4_14  and  C9_16 
ROOT
HETATM    1  C1  UNL     1      19.962 -22.376  44.686  1.00  0.00     0.163 C 
HETATM    2  N1  UNL     1      18.792 -21.525  44.431  1.00  0.00    -0.287 N 
HETATM    3  C2  UNL     1      17.543 -21.690  44.904  1.00  0.00     0.330 A 
HETATM    4  O1  UNL     1      17.155 -22.618  45.660  1.00  0.00    -0.246 OA
HETATM    5  N2  UNL     1      16.738 -20.711  44.455  1.00  0.00    -0.297 N 
HETATM    6  C3  UNL     1      15.309 -20.542  44.749  1.00  0.00     0.161 C 
HETATM    7  C4  UNL     1      17.468 -19.899  43.682  1.00  0.00     0.128 A 
HETATM    8  C5  UNL     1      17.140 -18.740  42.974  1.00  0.00     0.148 A 
HETATM    9  N7  UNL     1      18.144 -18.166  42.288  1.00  0.00    -0.175 N 
ATOM     10  H7  UNL     1      17.951 -17.317  41.756  1.00  0.00     0.186 HD
HETATM   11  C10 UNL     1      19.405 -18.673  42.277  1.00  0.00     0.679 A 
HETATM   12  N8  UNL     1      20.354 -18.109  41.611  1.00  0.00    -0.234 N 
ATOM     13  H81 UNL     1      21.301 -18.490  41.603  1.00  0.00     0.174 HD
ATOM     14  H82 UNL     1      20.122 -17.262  41.091  1.00  0.00     0.174 HD
HETATM   15  N9  UNL     1      19.710 -19.791  42.963  1.00  0.00    -0.174 N 
ATOM     16  H9  UNL     1      20.660 -20.163  42.947  1.00  0.00     0.186 HD
HETATM   17  C11 UNL     1      18.746 -20.414  43.672  1.00  0.00     0.158 A 
ENDROOT
BRANCH   8  18
HETATM   18  N3  UNL     1      15.928 -18.285  43.009  1.00  0.00    -0.374 N 
ATOM     19  H3  UNL     1      15.428 -18.290  43.898  1.00  0.00     0.161 HD
BRANCH  18  20
HETATM   20  C6  UNL     1      15.245 -17.763  41.821  1.00  0.00     0.123 C 
BRANCH  20  21
HETATM   21  C7  UNL     1      14.775 -18.937  41.045  1.00  0.00     0.039 C 
BRANCH  21  22
HETATM   22  C8  UNL     1      15.031 -18.941  39.586  1.00  0.00     0.123 C 
BRANCH  22  23
HETATM   23  N4  UNL     1      16.385 -18.871  39.153  1.00  0.00    -0.365 N 
HETATM   24  C9  UNL     1      17.046 -17.715  38.689  1.00  0.00     0.181 C 
HETATM   25  N5  UNL     1      16.522 -16.932  37.794  1.00  0.00    -0.374 N 
HETATM   26  N6  UNL     1      18.330 -17.347  39.171  1.00  0.00    -0.064 NA
ATOM     27  H52 UNL     1      15.600 -17.196  37.448  1.00  0.00     0.158 HD
ATOM     28  H51 UNL     1      17.000 -16.096  37.459  1.00  0.00     0.158 HD
ATOM     29  H4  UNL     1      16.926 -19.735  39.182  1.00  0.00     0.162 HD
ENDBRANCH  22  23
ENDBRANCH  21  22
ENDBRANCH  20  21
ENDBRANCH  18  20
ENDBRANCH   8  18
TORSDOF 5
ENDMDL
MODEL 3
REMARK VINA RESULT: -7.153144619      2.221      5.922
REMARK  5 active torsions:
REMARK  status: ('A' for Active; 'I' for Inactive)
REMARK    1  A    between atoms: C5_8  and  N3_9 
REMARK    2  A    between atoms: N3_9  and  C6_11 
REMARK    3  A    between atoms: C6_11  and  C7_12 
REMARK    4  A    between atoms: C7_12  and  C8_13 
REMARK    5  A    between atoms: C8_13  and  N4_14 
REMARK       I    between atoms: N4_14  and  C9_16 
ROOT
HETATM    1  C1  UNL     1      22.004 -21.281  44.851  1.00  0.00     0.163 C 
HETATM    2  N1  UNL     1      20.600 -21.158  44.433  1.00  0.00    -0.287 N 
HETATM    3  C2  UNL     1      19.727 -22.154  44.199  1.00  0.00     0.330 A 
HETATM    4  O1  UNL     1      19.967 -23.386  44.299  1.00  0.00    -0.246 OA
HETATM    5  N2  UNL     1      18.533 -21.656  43.835  1.00  0.00    -0.297 N 
HETATM    6  C3  UNL     1      17.326 -22.421  43.497  1.00  0.00     0.161 C 
HETATM    7  C4  UNL     1      18.626 -20.322  43.831  1.00  0.00     0.128 A 
HETATM    8  C5  UNL     1      17.698 -19.321  43.535  1.00  0.00     0.148 A 
HETATM    9  N7  UNL     1      18.142 -18.057  43.637  1.00  0.00    -0.175 N 
ATOM     10  H7  UNL     1      17.498 -17.292  43.430  1.00  0.00     0.186 HD
HETATM   11  C10 UNL     1      19.416 -17.758  44.005  1.00  0.00     0.679 A 
HETATM   12  N8  UNL     1      19.825 -16.538  44.095  1.00  0.00    -0.234 N 
ATOM     13  H81 UNL     1      20.781 -16.314  44.371  1.00  0.00     0.174 HD
ATOM     14  H82 UNL     1      19.151 -15.802  43.880  1.00  0.00     0.174 HD
HETATM   15  N9  UNL     1      20.304 -18.730  44.288  1.00  0.00    -0.174 N 
ATOM     16  H9  UNL     1      21.258 -18.493  44.562  1.00  0.00     0.186 HD
HETATM   17  C11 UNL     1      19.919 -20.020  44.205  1.00  0.00     0.158 A 
ENDROOT
BRANCH   8  18
HETATM   18  N3  UNL     1      16.491 -19.644  43.188  1.00  0.00    -0.374 N 
ATOM     19  H3  UNL     1      15.964 -20.281  43.786  1.00  0.00     0.161 HD
BRANCH  18  20
HETATM   20  C6  UNL     1      15.855 -19.131  41.972  1.00  0.00     0.123 C 
BRANCH  20  21
HETATM   21  C7  UNL     1      16.655 -19.629  40.826  1.00  0.00     0.039 C 
BRANCH  21  22
HETATM   22  C8  UNL     1      16.813 -18.730  39.658  1.00  0.00     0.123 C 
BRANCH  22  23
HETATM   23  N4  UNL     1      16.128 -19.079  38.460  1.00  0.00    -0.365 N 
HETATM   24  C9  UNL     1      16.504 -18.706  37.154  1.00  0.00     0.181 C 
HETATM   25  N5  UNL     1      16.811 -17.482  36.845  1.00  0.00    -0.374 N 
HETATM   26  N6  UNL     1      16.562 -19.653  36.098  1.00  0.00    -0.064 NA
ATOM     27  H52 UNL     1      16.769 -16.802  37.605  1.00  0.00     0.158 HD
ATOM     28  H51 UNL     1      17.083 -17.213  35.900  1.00  0.00     0.158 HD
ATOM     29  H4  UNL     1      15.288 -19.650  38.556  1.00  0.00     0.162 HD
ENDBRANCH  22  23
ENDBRANCH  21  22
ENDBRANCH  20  21
ENDBRANCH  18  20
ENDBRANCH   8  18
TORSDOF 5
ENDMDL
MODEL 4
REMARK VINA RESULT: -7.141983938      1.975      2.576
REMARK  5 active torsions:
REMARK  status: ('A' for Active; 'I' for Inactive)
REMARK    1  A    between atoms: C5_8  and  N3_9 
REMARK    2  A    between atoms: N3_9  and  C6_11 
REMARK    3  A    between atoms: C6_11  and  C7_12 
REMARK    4  A    between atoms: C7_12  and  C8_13 
REMARK    5  A    between atoms: C8_13  and  N4_14 
REMARK       I    between atoms: N4_14  and  C9_16 
ROOT
HETATM    1  C1  UNL     1      13.175 -18.584  41.893  1.00  0.00     0.163 C 
HETATM    2  N1  UNL     1      14.558 -19.048  42.075  1.00  0.00    -0.287 N 
HETATM    3  C2  UNL     1      15.028 -19.851  43.047  1.00  0.00     0.330 A 
HETATM    4  O1  UNL     1      14.354 -20.350  43.986  1.00  0.00    -0.246 OA
HETATM    5  N2  UNL     1      16.347 -20.058  42.887  1.00  0.00    -0.297 N 
HETATM    6  C3  UNL     1      17.220 -20.875  43.740  1.00  0.00     0.161 C 
HETATM    7  C4  UNL     1      16.741 -19.386  41.800  1.00  0.00     0.128 A 
HETATM    8  C5  UNL     1      17.988 -19.256  41.183  1.00  0.00     0.148 A 
HETATM    9  N7  UNL     1      18.023 -18.486  40.082  1.00  0.00    -0.175 N 
ATOM     10  H7  UNL     1      18.912 -18.362  39.598  1.00  0.00     0.186 HD
HETATM   11  C10 UNL     1      16.917 -17.868  39.589  1.00  0.00     0.679 A 
HETATM   12  N8  UNL     1      16.971 -17.131  38.531  1.00  0.00    -0.234 N 
ATOM     13  H81 UNL     1      16.141 -16.666  38.161  1.00  0.00     0.174 HD
ATOM     14  H82 UNL     1      17.878 -17.031  38.075  1.00  0.00     0.174 HD
HETATM   15  N9  UNL     1      15.720 -17.999  40.190  1.00  0.00    -0.174 N 
ATOM     16  H9  UNL     1      14.897 -17.529  39.811  1.00  0.00     0.186 HD
HETATM   17  C11 UNL     1      15.619 -18.759  41.301  1.00  0.00     0.158 A 
ENDROOT
BRANCH   8  18
HETATM   18  N3  UNL     1      19.019 -19.862  41.682  1.00  0.00    -0.374 N 
ATOM     19  H3  UNL     1      18.978 -20.872  41.812  1.00  0.00     0.161 HD
BRANCH  18  20
HETATM   20  C6  UNL     1      20.243 -19.152  42.066  1.00  0.00     0.123 C 
BRANCH  20  21
HETATM   21  C7  UNL     1      20.673 -19.713  43.371  1.00  0.00     0.039 C 
BRANCH  21  22
HETATM   22  C8  UNL     1      21.843 -20.622  43.373  1.00  0.00     0.123 C 
BRANCH  22  23
HETATM   23  N4  UNL     1      22.374 -21.011  44.635  1.00  0.00    -0.365 N 
HETATM   24  C9  UNL     1      23.713 -21.365  44.896  1.00  0.00     0.181 C 
HETATM   25  N5  UNL     1      24.363 -22.209  44.151  1.00  0.00    -0.374 N 
HETATM   26  N6  UNL     1      24.427 -20.820  45.996  1.00  0.00    -0.064 NA
ATOM     27  H52 UNL     1      23.850 -22.599  43.360  1.00  0.00     0.158 HD
ATOM     28  H51 UNL     1      25.332 -22.464  44.340  1.00  0.00     0.158 HD
ATOM     29  H4  UNL     1      21.726 -21.036  45.423  1.00  0.00     0.162 HD
ENDBRANCH  22  23
ENDBRANCH  21  22
ENDBRANCH  20  21
ENDBRANCH  18  20
ENDBRANCH   8  18
TORSDOF 5
ENDMDL
MODEL 5
REMARK VINA RESULT: -7.103099873      1.166      1.905
REMARK  5 active torsions:
REMARK  status: ('A' for Active; 'I' for Inactive)
REMARK    1  A    between atoms: C5_8  and  N3_9 
REMARK    2  A    between atoms: N3_9  and  C6_11 
REMARK    3  A    between atoms: C6_11  and  C7_12 
REMARK    4  A    between atoms: C7_12  and  C8_13 
REMARK    5  A    between atoms: C8_13  and  N4_14 
REMARK       I    between atoms: N4_14  and  C9_16 
ROOT
HETATM    1  C1  UNL     1      12.820 -18.693  42.234  1.00  0.00     0.163 C 
HETATM    2  N1  UNL     1      14.207 -19.177  42.267  1.00  0.00    -0.287 N 
HETATM    3  C2  UNL     1      14.804 -19.879  43.246  1.00  0.00     0.330 A 
HETATM    4  O1  UNL     1      14.269 -20.249  44.324  1.00  0.00    -0.246 OA
HETATM    5  N2  UNL     1      16.082 -20.145  42.923  1.00  0.00    -0.297 N 
HETATM    6  C3  UNL     1      17.059 -20.888  43.729  1.00  0.00     0.161 C 
HETATM    7  C4  UNL     1      16.321 -19.612  41.720  1.00  0.00     0.128 A 
HETATM    8  C5  UNL     1      17.465 -19.591  40.918  1.00  0.00     0.148 A 
HETATM    9  N7  UNL     1      17.349 -18.951  39.741  1.00  0.00    -0.175 N 
ATOM     10  H7  UNL     1      18.159 -18.910  39.123  1.00  0.00     0.186 HD
HETATM   11  C10 UNL     1      16.192 -18.357  39.345  1.00  0.00     0.679 A 
HETATM   12  N8  UNL     1      16.099 -17.746  38.213  1.00  0.00    -0.234 N 
ATOM     13  H81 UNL     1      15.231 -17.300  37.916  1.00  0.00     0.174 HD
ATOM     14  H82 UNL     1      16.931 -17.727  37.622  1.00  0.00     0.174 HD
HETATM   15  N9  UNL     1      15.094 -18.383  40.125  1.00  0.00    -0.174 N 
ATOM     16  H9  UNL     1      14.232 -17.933  39.817  1.00  0.00     0.186 HD
HETATM   17  C11 UNL     1      15.147 -19.010  41.319  1.00  0.00     0.158 A 
ENDROOT
BRANCH   8  18
HETATM   18  N3  UNL     1      18.550 -20.169  41.328  1.00  0.00    -0.374 N 
ATOM     19  H3  UNL     1      18.471 -21.005  41.907  1.00  0.00     0.161 HD
BRANCH  18  20
HETATM   20  C6  UNL     1      19.887 -19.668  40.995  1.00  0.00     0.123 C 
BRANCH  20  21
HETATM   21  C7  UNL     1      20.179 -18.562  41.940  1.00  0.00     0.039 C 
BRANCH  21  22
HETATM   22  C8  UNL     1      19.853 -18.778  43.370  1.00  0.00     0.123 C 
BRANCH  22  23
HETATM   23  N4  UNL     1      20.886 -19.272  44.214  1.00  0.00    -0.365 N 
HETATM   24  C9  UNL     1      21.523 -20.524  44.097  1.00  0.00     0.181 C 
HETATM   25  N5  UNL     1      20.855 -21.628  43.952  1.00  0.00    -0.374 N 
HETATM   26  N6  UNL     1      22.937 -20.646  44.137  1.00  0.00    -0.064 NA
ATOM     27  H52 UNL     1      19.839 -21.540  43.923  1.00  0.00     0.158 HD
ATOM     28  H51 UNL     1      21.316 -22.534  43.867  1.00  0.00     0.158 HD
ATOM     29  H4  UNL     1      21.193 -18.664  44.974  1.00  0.00     0.162 HD
ENDBRANCH  22  23
ENDBRANCH  21  22
ENDBRANCH  20  21
ENDBRANCH  18  20
ENDBRANCH   8  18
TORSDOF 5
ENDMDL
