MODEL 1
REMARK VINA RESULT: -7.727446175      0.000      0.000
REMARK  6 active torsions:
REMARK  status: ('A' for Active; 'I' for Inactive)
REMARK    1  A    between atoms: C3_6  and  N3_7 
REMARK    2  A    between atoms: N3_7  and  N4_9 
REMARK    3  A    between atoms: N4_9  and  C4_11 
REMARK    4  A    between atoms: C4_11  and  C5_12 
REMARK    5  A    between atoms: C5_12  and  O1_13 
REMARK    6  A    between atoms: O1_13  and  N5_14 
ROOT
HETATM    1  C1  UNL     1      19.524 -20.195  42.579  1.00  0.00     0.159 C 
HETATM    2  N1  UNL     1      18.133 -19.749  42.411  1.00  0.00    -0.320 N 
HETATM    3  C2  UNL     1      17.657 -18.913  41.470  1.00  0.00     0.153 A 
HETATM    4  N2  UNL     1      18.019 -18.165  40.396  1.00  0.00    -0.173 N 
ATOM      5  H2  UNL     1      18.958 -18.079  40.007  1.00  0.00     0.186 HD
HETATM    6  C3  UNL     1      16.909 -17.559  39.940  1.00  0.00     0.698 A 
HETATM    7  N6  UNL     1      15.839 -17.891  40.684  1.00  0.00    -0.185 N 
ATOM      8  H6  UNL     1      14.877 -17.577  40.562  1.00  0.00     0.184 HD
HETATM    9  C6  UNL     1      16.315 -18.730  41.629  1.00  0.00     0.113 A 
HETATM   10  C7  UNL     1      15.922 -19.489  42.726  1.00  0.00     0.107 A 
HETATM   11  C8  UNL     1      14.709 -19.698  43.354  1.00  0.00     0.265 A 
HETATM   12  O2  UNL     1      13.659 -19.142  42.945  1.00  0.00    -0.267 OA
HETATM   13  N7  UNL     1      14.618 -20.505  44.424  1.00  0.00    -0.275 N 
ATOM     14  H7  UNL     1      13.725 -20.664  44.892  1.00  0.00     0.173 HD
HETATM   15  C9  UNL     1      15.747 -21.096  44.856  1.00  0.00     0.328 A 
HETATM   16  O3  UNL     1      15.663 -21.851  45.858  1.00  0.00    -0.247 OA
HETATM   17  N8  UNL     1      16.947 -20.904  44.255  1.00  0.00    -0.293 N 
ATOM     18  H8  UNL     1      17.770 -21.377  44.625  1.00  0.00     0.172 HD
HETATM   19  C10 UNL     1      17.079 -20.096  43.170  1.00  0.00     0.131 A 
ENDROOT
BRANCH   6  20
HETATM   20  N3  UNL     1      16.908 -16.770  38.918  1.00  0.00    -0.136 N 
ATOM     21  H3  UNL     1      17.409 -15.883  38.987  1.00  0.00     0.205 HD
BRANCH  20  22
HETATM   22  N4  UNL     1      16.258 -17.072  37.730  1.00  0.00    -0.320 N 
ATOM     23  H4  UNL     1      15.321 -16.719  37.540  1.00  0.00     0.180 HD
BRANCH  22  24
HETATM   24  C4  UNL     1      16.955 -17.906  36.766  1.00  0.00     0.168 C 
BRANCH  24  25
HETATM   25  C5  UNL     1      16.368 -19.312  36.794  1.00  0.00     0.221 C 
BRANCH  25  26
HETATM   26  O1  UNL     1      16.661 -20.009  35.647  1.00  0.00    -0.286 OA
BRANCH  26  27
HETATM   27  N5  UNL     1      15.540 -20.127  34.903  1.00  0.00    -0.311 N 
ATOM     28  H52 UNL     1      15.076 -19.353  34.427  1.00  0.00     0.184 HD
ATOM     29  H51 UNL     1      15.243 -21.102  34.900  1.00  0.00     0.184 HD
ENDBRANCH  26  27
ENDBRANCH  25  26
ENDBRANCH  24  25
ENDBRANCH  22  24
ENDBRANCH  20  22
ENDBRANCH   6  20
TORSDOF 6
ENDMDL
MODEL 2
REMARK VINA RESULT: -7.370950357      3.361      6.512
REMARK  6 active torsions:
REMARK  status: ('A' for Active; 'I' for Inactive)
REMARK    1  A    between atoms: C3_6  and  N3_7 
REMARK    2  A    between atoms: N3_7  and  N4_9 
REMARK    3  A    between atoms: N4_9  and  C4_11 
REMARK    4  A    between atoms: C4_11  and  C5_12 
REMARK    5  A    between atoms: C5_12  and  O1_13 
REMARK    6  A    between atoms: O1_13  and  N5_14 
ROOT
HETATM    1  C1  UNL     1      16.007 -21.684  44.583  1.00  0.00     0.159 C 
HETATM    2  N1  UNL     1      16.448 -20.547  43.760  1.00  0.00    -0.320 N 
HETATM    3  C2  UNL     1      17.689 -20.035  43.682  1.00  0.00     0.153 A 
HETATM    4  N2  UNL     1      18.956 -20.177  44.153  1.00  0.00    -0.173 N 
ATOM      5  H2  UNL     1      19.278 -20.875  44.823  1.00  0.00     0.186 HD
HETATM    6  C3  UNL     1      19.706 -19.224  43.571  1.00  0.00     0.698 A 
HETATM    7  N6  UNL     1      18.966 -18.471  42.738  1.00  0.00    -0.185 N 
ATOM      8  H6  UNL     1      19.279 -17.684  42.171  1.00  0.00     0.184 HD
HETATM    9  C6  UNL     1      17.719 -18.983  42.815  1.00  0.00     0.113 A 
HETATM   10  C7  UNL     1      16.430 -18.821  42.319  1.00  0.00     0.107 A 
HETATM   11  C8  UNL     1      15.859 -17.937  41.424  1.00  0.00     0.265 A 
HETATM   12  O2  UNL     1      16.541 -17.039  40.869  1.00  0.00    -0.267 OA
HETATM   13  N7  UNL     1      14.552 -18.012  41.121  1.00  0.00    -0.275 N 
ATOM     14  H7  UNL     1      14.124 -17.363  40.461  1.00  0.00     0.173 HD
HETATM   15  C9  UNL     1      13.829 -18.976  41.721  1.00  0.00     0.328 A 
HETATM   16  O3  UNL     1      12.606 -19.048  41.439  1.00  0.00    -0.247 OA
HETATM   17  N8  UNL     1      14.370 -19.853  42.602  1.00  0.00    -0.293 N 
ATOM     18  H8  UNL     1      13.775 -20.563  43.027  1.00  0.00     0.172 HD
HETATM   19  C10 UNL     1      15.687 -19.809  42.933  1.00  0.00     0.131 A 
ENDROOT
BRANCH   6  20
HETATM   20  N3  UNL     1      20.967 -19.083  43.806  1.00  0.00    -0.136 N 
ATOM     21  H3  UNL     1      21.411 -18.195  43.568  1.00  0.00     0.205 HD
BRANCH  20  22
HETATM   22  N4  UNL     1      21.748 -20.083  44.368  1.00  0.00    -0.320 N 
ATOM     23  H4  UNL     1      21.798 -20.204  45.380  1.00  0.00     0.180 HD
BRANCH  22  24
HETATM   24  C4  UNL     1      22.491 -20.951  43.472  1.00  0.00     0.168 C 
BRANCH  24  25
HETATM   25  C5  UNL     1      23.631 -21.613  44.236  1.00  0.00     0.221 C 
BRANCH  25  26
HETATM   26  O1  UNL     1      24.008 -20.874  45.331  1.00  0.00    -0.286 OA
BRANCH  26  27
HETATM   27  N5  UNL     1      25.155 -21.381  45.833  1.00  0.00    -0.311 N 
ATOM     28  H52 UNL     1      25.723 -22.094  45.375  1.00  0.00     0.184 HD
ATOM     29  H51 UNL     1      25.351 -20.938  46.730  1.00  0.00     0.184 HD
ENDBRANCH  26  27
ENDBRANCH  25  26
ENDBRANCH  24  25
ENDBRANCH  22  24
ENDBRANCH  20  22
ENDBRANCH   6  20
TORSDOF 6
ENDMDL
MODEL 3
REMARK VINA RESULT: -7.278778507      2.670      3.703
REMARK  6 active torsions:
REMARK  status: ('A' for Active; 'I' for Inactive)
REMARK    1  A    between atoms: C3_6  and  N3_7 
REMARK    2  A    between atoms: N3_7  and  N4_9 
REMARK    3  A    between atoms: N4_9  and  C4_11 
REMARK    4  A    between atoms: C4_11  and  C5_12 
REMARK    5  A    between atoms: C5_12  and  O1_13 
REMARK    6  A    between atoms: O1_13  and  N5_14 
ROOT
HETATM    1  C1  UNL     1      19.539 -16.901  44.118  1.00  0.00     0.159 C 
HETATM    2  N1  UNL     1      18.860 -18.153  43.756  1.00  0.00    -0.320 N 
HETATM    3  C2  UNL     1      17.730 -18.285  43.037  1.00  0.00     0.153 A 
HETATM    4  N2  UNL     1      16.772 -17.582  42.378  1.00  0.00    -0.173 N 
ATOM      5  H2  UNL     1      16.722 -16.568  42.285  1.00  0.00     0.186 HD
HETATM    6  C3  UNL     1      15.901 -18.474  41.872  1.00  0.00     0.698 A 
HETATM    7  N6  UNL     1      16.265 -19.731  42.182  1.00  0.00    -0.185 N 
ATOM      8  H6  UNL     1      15.788 -20.595  41.927  1.00  0.00     0.184 HD
HETATM    9  C6  UNL     1      17.399 -19.601  42.904  1.00  0.00     0.113 A 
HETATM   10  C7  UNL     1      18.369 -20.340  43.572  1.00  0.00     0.107 A 
HETATM   11  C8  UNL     1      18.562 -21.692  43.777  1.00  0.00     0.265 A 
HETATM   12  O2  UNL     1      17.761 -22.543  43.314  1.00  0.00    -0.267 OA
HETATM   13  N7  UNL     1      19.616 -22.139  44.482  1.00  0.00    -0.275 N 
ATOM     14  H7  UNL     1      19.764 -23.136  44.637  1.00  0.00     0.173 HD
HETATM   15  C9  UNL     1      20.467 -21.221  44.975  1.00  0.00     0.328 A 
HETATM   16  O3  UNL     1      21.454 -21.637  45.634  1.00  0.00    -0.247 OA
HETATM   17  N8  UNL     1      20.296 -19.890  44.785  1.00  0.00    -0.293 N 
ATOM     18  H8  UNL     1      20.974 -19.239  45.182  1.00  0.00     0.172 HD
HETATM   19  C10 UNL     1      19.244 -19.400  44.078  1.00  0.00     0.131 A 
ENDROOT
BRANCH   6  20
HETATM   20  N3  UNL     1      14.864 -18.130  41.185  1.00  0.00    -0.136 N 
ATOM     21  H3  UNL     1      14.088 -17.677  41.667  1.00  0.00     0.205 HD
BRANCH  20  22
HETATM   22  N4  UNL     1      14.758 -18.348  39.818  1.00  0.00    -0.320 N 
ATOM     23  H4  UNL     1      13.929 -18.055  39.303  1.00  0.00     0.180 HD
BRANCH  22  24
HETATM   24  C4  UNL     1      15.864 -19.007  39.146  1.00  0.00     0.168 C 
BRANCH  24  25
HETATM   25  C5  UNL     1      16.670 -17.977  38.366  1.00  0.00     0.221 C 
BRANCH  25  26
HETATM   26  O1  UNL     1      17.325 -17.104  39.200  1.00  0.00    -0.286 OA
BRANCH  26  27
HETATM   27  N5  UNL     1      17.095 -15.839  38.783  1.00  0.00    -0.311 N 
ATOM     28  H52 UNL     1      16.827 -15.581  37.833  1.00  0.00     0.184 HD
ATOM     29  H51 UNL     1      17.233 -15.200  39.565  1.00  0.00     0.184 HD
ENDBRANCH  26  27
ENDBRANCH  25  26
ENDBRANCH  24  25
ENDBRANCH  22  24
ENDBRANCH  20  22
ENDBRANCH   6  20
TORSDOF 6
ENDMDL
MODEL 4
REMARK VINA RESULT: -7.250261605      2.852      4.323
REMARK  6 active torsions:
REMARK  status: ('A' for Active; 'I' for Inactive)
REMARK    1  A    between atoms: C3_6  and  N3_7 
REMARK    2  A    between atoms: N3_7  and  N4_9 
REMARK    3  A    between atoms: N4_9  and  C4_11 
REMARK    4  A    between atoms: C4_11  and  C5_12 
REMARK    5  A    between atoms: C5_12  and  O1_13 
REMARK    6  A    between atoms: O1_13  and  N5_14 
ROOT
HETATM    1  C1  UNL     1      17.160 -22.898  44.216  1.00  0.00     0.159 C 
HETATM    2  N1  UNL     1      17.463 -21.483  43.954  1.00  0.00    -0.320 N 
HETATM    3  C2  UNL     1      16.612 -20.539  43.514  1.00  0.00     0.153 A 
HETATM    4  N2  UNL     1      15.323 -20.325  43.140  1.00  0.00    -0.173 N 
ATOM      5  H2  UNL     1      14.576 -21.019  43.120  1.00  0.00     0.186 HD
HETATM    6  C3  UNL     1      15.216 -19.028  42.803  1.00  0.00     0.698 A 
HETATM    7  N6  UNL     1      16.393 -18.394  42.946  1.00  0.00    -0.185 N 
ATOM      8  H6  UNL     1      16.596 -17.412  42.762  1.00  0.00     0.184 HD
HETATM    9  C6  UNL     1      17.250 -19.341  43.387  1.00  0.00     0.113 A 
HETATM   10  C7  UNL     1      18.574 -19.537  43.766  1.00  0.00     0.107 A 
HETATM   11  C8  UNL     1      19.675 -18.706  43.843  1.00  0.00     0.265 A 
HETATM   12  O2  UNL     1      19.597 -17.490  43.532  1.00  0.00    -0.267 OA
HETATM   13  N7  UNL     1      20.865 -19.176  44.254  1.00  0.00    -0.275 N 
ATOM     14  H7  UNL     1      21.682 -18.567  44.313  1.00  0.00     0.173 HD
HETATM   15  C9  UNL     1      20.938 -20.478  44.583  1.00  0.00     0.328 A 
HETATM   16  O3  UNL     1      22.052 -20.920  44.968  1.00  0.00    -0.247 OA
HETATM   17  N8  UNL     1      19.870 -21.310  44.515  1.00  0.00    -0.293 N 
ATOM     18  H8  UNL     1      19.984 -22.289  44.777  1.00  0.00     0.172 HD
HETATM   19  C10 UNL     1      18.651 -20.872  44.105  1.00  0.00     0.131 A 
ENDROOT
BRANCH   6  20
HETATM   20  N3  UNL     1      14.111 -18.496  42.399  1.00  0.00    -0.136 N 
ATOM     21  H3  UNL     1      13.357 -18.368  43.073  1.00  0.00     0.205 HD
BRANCH  20  22
HETATM   22  N4  UNL     1      13.903 -18.091  41.088  1.00  0.00    -0.320 N 
ATOM     23  H4  UNL     1      13.513 -17.172  40.878  1.00  0.00     0.180 HD
BRANCH  22  24
HETATM   24  C4  UNL     1      14.257 -19.015  40.025  1.00  0.00     0.168 C 
BRANCH  24  25
HETATM   25  C5  UNL     1      15.434 -18.455  39.236  1.00  0.00     0.221 C 
BRANCH  25  26
HETATM   26  O1  UNL     1      16.405 -17.944  40.063  1.00  0.00    -0.286 OA
BRANCH  26  27
HETATM   27  N5  UNL     1      16.993 -16.891  39.455  1.00  0.00    -0.311 N 
ATOM     28  H52 UNL     1      16.734 -16.534  38.535  1.00  0.00     0.184 HD
ATOM     29  H51 UNL     1      17.724 -16.521  40.062  1.00  0.00     0.184 HD
ENDBRANCH  26  27
ENDBRANCH  25  26
ENDBRANCH  24  25
ENDBRANCH  22  24
ENDBRANCH  20  22
ENDBRANCH   6  20
TORSDOF 6
ENDMDL
MODEL 5
REMARK VINA RESULT: -7.239822572      2.964      5.148
REMARK  6 active torsions:
REMARK  status: ('A' for Active; 'I' for Inactive)
REMARK    1  A    between atoms: C3_6  and  N3_7 
REMARK    2  A    between atoms: N3_7  and  N4_9 
REMARK    3  A    between atoms: N4_9  and  C4_11 
REMARK    4  A    between atoms: C4_11  and  C5_12 
REMARK    5  A    between atoms: C5_12  and  O1_13 
REMARK    6  A    between atoms: O1_13  and  N5_14 
ROOT
HETATM    1  C1  UNL     1      19.425 -17.110  44.036  1.00  0.00     0.159 C 
HETATM    2  N1  UNL     1      19.111 -18.544  43.957  1.00  0.00    -0.320 N 
HETATM    3  C2  UNL     1      17.900 -19.101  43.775  1.00  0.00     0.153 A 
HETATM    4  N2  UNL     1      16.585 -18.811  43.597  1.00  0.00    -0.173 N 
ATOM      5  H2  UNL     1      16.171 -17.879  43.562  1.00  0.00     0.186 HD
HETATM    6  C3  UNL     1      15.931 -19.979  43.478  1.00  0.00     0.698 A 
HETATM    7  N6  UNL     1      16.781 -21.018  43.571  1.00  0.00    -0.185 N 
ATOM      8  H6  UNL     1      16.556 -22.011  43.516  1.00  0.00     0.184 HD
HETATM    9  C6  UNL     1      17.998 -20.461  43.755  1.00  0.00     0.113 A 
HETATM   10  C7  UNL     1      19.339 -20.781  43.934  1.00  0.00     0.107 A 
HETATM   11  C8  UNL     1      20.032 -21.974  44.002  1.00  0.00     0.265 A 
HETATM   12  O2  UNL     1      19.441 -23.078  43.893  1.00  0.00    -0.267 OA
HETATM   13  N7  UNL     1      21.363 -21.988  44.187  1.00  0.00    -0.275 N 
ATOM     14  H7  UNL     1      21.880 -22.866  44.238  1.00  0.00     0.173 HD
HETATM   15  C9  UNL     1      21.987 -20.801  44.304  1.00  0.00     0.328 A 
HETATM   16  O3  UNL     1      23.232 -20.813  44.478  1.00  0.00    -0.247 OA
HETATM   17  N8  UNL     1      21.325 -19.620  44.241  1.00  0.00    -0.293 N 
ATOM     18  H8  UNL     1      21.850 -18.751  44.336  1.00  0.00     0.172 HD
HETATM   19  C10 UNL     1      19.981 -19.565  44.054  1.00  0.00     0.131 A 
ENDROOT
BRANCH   6  20
HETATM   20  N3  UNL     1      14.655 -20.055  43.298  1.00  0.00    -0.136 N 
ATOM     21  H3  UNL     1      14.185 -20.935  43.510  1.00  0.00     0.205 HD
BRANCH  20  22
HETATM   22  N4  UNL     1      13.894 -18.994  42.829  1.00  0.00    -0.320 N 
ATOM     23  H4  UNL     1      13.646 -18.215  43.439  1.00  0.00     0.180 HD
BRANCH  22  24
HETATM   24  C4  UNL     1      13.462 -19.026  41.443  1.00  0.00     0.168 C 
BRANCH  24  25
HETATM   25  C5  UNL     1      14.628 -18.649  40.538  1.00  0.00     0.221 C 
BRANCH  25  26
HETATM   26  O1  UNL     1      15.477 -17.756  41.146  1.00  0.00    -0.286 OA
BRANCH  26  27
HETATM   27  N5  UNL     1      16.479 -17.448  40.293  1.00  0.00    -0.311 N 
ATOM     28  H52 UNL     1      16.409 -17.492  39.277  1.00  0.00     0.184 HD
ATOM     29  H51 UNL     1      17.300 -17.171  40.831  1.00  0.00     0.184 HD
ENDBRANCH  26  27
ENDBRANCH  25  26
ENDBRANCH  24  25
ENDBRANCH  22  24
ENDBRANCH  20  22
ENDBRANCH   6  20
TORSDOF 6
ENDMDL
