MODEL 1
REMARK VINA RESULT: -8.101583942      0.000      0.000
REMARK  10 active torsions:
REMARK  status: ('A' for Active; 'I' for Inactive)
REMARK    1  A    between atoms: C3_5  and  N2_6 
REMARK    2  A    between atoms: N2_6  and  N3_8 
REMARK       I    between atoms: N3_8  and  C4_10 
REMARK    3  A    between atoms: C5_13  and  C6_14 
REMARK    4  A    between atoms: C6_14  and  C7_15 
REMARK    5  A    between atoms: C6_14  and  N9_23 
REMARK    6  A    between atoms: C7_15  and  C8_16 
REMARK    7  A    between atoms: C8_16  and  C9_17 
REMARK    8  A    between atoms: C9_17  and  N6_18 
REMARK    9  A    between atoms: C11_25  and  C12_26 
REMARK   10  A    between atoms: C12_26  and  N10_27 
ROOT
HETATM    1  C1  UNL     1      20.056 -28.057  20.327  1.00  0.00     0.049 C 
HETATM    2  C2  UNL     1      19.830 -29.244  19.812  1.00  0.00     0.093 A 
HETATM    3  N1  UNL     1      19.958 -30.321  20.597  1.00  0.00    -0.336 N 
ATOM      4  H1  UNL     1      20.228 -30.199  21.573  1.00  0.00     0.168 HD
HETATM    5  C3  UNL     1      19.739 -31.562  20.125  1.00  0.00     0.150 A 
HETATM    6  C5  UNL     1      19.368 -31.763  18.793  1.00  0.00     0.103 A 
HETATM    7  N11 UNL     1      19.245 -30.666  18.027  1.00  0.00    -0.317 N 
ATOM      8  H11 UNL     1      18.975 -30.779  17.051  1.00  0.00     0.169 HD
HETATM    9  C13 UNL     1      19.466 -29.417  18.501  1.00  0.00     0.272 A 
HETATM   10  O1  UNL     1      19.333 -28.430  17.728  1.00  0.00    -0.266 OA
ENDROOT
BRANCH   6  11
HETATM   11  C6  UNL     1      19.141 -33.006  18.366  1.00  0.00     0.039 C 
BRANCH  11  12
HETATM   12  C7  UNL     1      20.155 -34.080  18.375  1.00  0.00     0.061 C 
BRANCH  12  13
HETATM   13  C8  UNL     1      21.508 -33.561  17.887  1.00  0.00     0.026 C 
BRANCH  13  14
HETATM   14  C9  UNL     1      21.343 -33.261  16.409  1.00  0.00     0.122 C 
BRANCH  14  15
HETATM   15  N6  UNL     1      22.031 -32.055  16.056  1.00  0.00    -0.367 N 
HETATM   16  C10 UNL     1      21.448 -31.090  15.478  1.00  0.00     0.196 C 
HETATM   17  N7  UNL     1      22.144 -29.902  15.135  1.00  0.00    -0.067 NA
HETATM   18  N8  UNL     1      20.071 -31.180  15.156  1.00  0.00    -0.067 NA
ATOM     19  H6  UNL     1      23.023 -31.970  16.279  1.00  0.00     0.161 HD
ENDBRANCH  14  15
ENDBRANCH  13  14
ENDBRANCH  12  13
ENDBRANCH  11  12
BRANCH  11  20
HETATM   20  N9  UNL     1      17.856 -33.312  17.859  1.00  0.00    -0.369 N 
HETATM   21  C11 UNL     1      17.496 -34.288  17.139  1.00  0.00     0.088 C 
ATOM     22  H9  UNL     1      17.118 -32.654  18.109  1.00  0.00     0.165 HD
BRANCH  21  23
HETATM   23  C12 UNL     1      18.318 -35.379  16.625  1.00  0.00     0.274 C 
BRANCH  23  24
HETATM   24  N10 UNL     1      17.553 -36.304  15.794  1.00  0.00    -0.075 N 
ATOM     25 3H10 UNL     1      16.550 -36.174  15.926  1.00  0.00     0.274 HD
ATOM     26 2H10 UNL     1      17.622 -36.056  14.807  1.00  0.00     0.274 HD
ATOM     27 1H10 UNL     1      17.821 -37.276  15.949  1.00  0.00     0.274 HD
ENDBRANCH  23  24
ENDBRANCH  21  23
ENDBRANCH  11  20
ENDBRANCH   6  11
BRANCH   5  28
HETATM   28  N2  UNL     1      19.882 -32.597  20.904  1.00  0.00    -0.281 N 
ATOM     29  H2  UNL     1      20.245 -33.478  20.541  1.00  0.00     0.188 HD
BRANCH  28  30
HETATM   30  N3  UNL     1      19.527 -32.468  22.246  1.00  0.00    -0.274 N 
HETATM   31  C4  UNL     1      18.443 -32.890  22.750  1.00  0.00     0.215 C 
HETATM   32  N4  UNL     1      17.458 -33.552  21.974  1.00  0.00    -0.065 NA
HETATM   33  N5  UNL     1      18.188 -32.703  24.133  1.00  0.00    -0.065 NA
ATOM     34  H3  UNL     1      20.187 -32.000  22.868  1.00  0.00     0.189 HD
ENDBRANCH  28  30
ENDBRANCH   5  28
TORSDOF 10
ENDMDL
MODEL 2
REMARK VINA RESULT: -7.739414524      2.037      4.711
REMARK  10 active torsions:
REMARK  status: ('A' for Active; 'I' for Inactive)
REMARK    1  A    between atoms: C3_5  and  N2_6 
REMARK    2  A    between atoms: N2_6  and  N3_8 
REMARK       I    between atoms: N3_8  and  C4_10 
REMARK    3  A    between atoms: C5_13  and  C6_14 
REMARK    4  A    between atoms: C6_14  and  C7_15 
REMARK    5  A    between atoms: C6_14  and  N9_23 
REMARK    6  A    between atoms: C7_15  and  C8_16 
REMARK    7  A    between atoms: C8_16  and  C9_17 
REMARK    8  A    between atoms: C9_17  and  N6_18 
REMARK    9  A    between atoms: C11_25  and  C12_26 
REMARK   10  A    between atoms: C12_26  and  N10_27 
ROOT
HETATM    1  C1  UNL     1      22.920 -31.071  14.655  1.00  0.00     0.049 C 
HETATM    2  C2  UNL     1      22.011 -31.524  15.486  1.00  0.00     0.093 A 
HETATM    3  N1  UNL     1      22.144 -32.765  15.971  1.00  0.00    -0.336 N 
ATOM      4  H1  UNL     1      22.944 -33.330  15.686  1.00  0.00     0.168 HD
HETATM    5  C3  UNL     1      21.243 -33.282  16.827  1.00  0.00     0.150 A 
HETATM    6  C5  UNL     1      20.136 -32.535  17.236  1.00  0.00     0.103 A 
HETATM    7  N11 UNL     1      20.027 -31.293  16.736  1.00  0.00    -0.317 N 
ATOM      8  H11 UNL     1      19.231 -30.721  17.016  1.00  0.00     0.169 HD
HETATM    9  C13 UNL     1      20.932 -30.771  15.875  1.00  0.00     0.272 A 
HETATM   10  O1  UNL     1      20.769 -29.598  15.443  1.00  0.00    -0.266 OA
ENDROOT
BRANCH   6  11
HETATM   11  C6  UNL     1      19.275 -33.075  18.099  1.00  0.00     0.039 C 
BRANCH  11  12
HETATM   12  C7  UNL     1      19.636 -33.507  19.465  1.00  0.00     0.061 C 
BRANCH  12  13
HETATM   13  C8  UNL     1      20.528 -32.471  20.150  1.00  0.00     0.026 C 
BRANCH  13  14
HETATM   14  C9  UNL     1      19.614 -31.342  20.588  1.00  0.00     0.122 C 
BRANCH  14  15
HETATM   15  N6  UNL     1      20.169 -30.071  20.230  1.00  0.00    -0.367 N 
HETATM   16  C10 UNL     1      19.610 -29.303  19.392  1.00  0.00     0.196 C 
HETATM   17  N7  UNL     1      20.173 -28.047  19.047  1.00  0.00    -0.067 NA
HETATM   18  N8  UNL     1      18.395 -29.689  18.773  1.00  0.00    -0.067 NA
ATOM     19  H6  UNL     1      21.043 -29.775  20.664  1.00  0.00     0.161 HD
ENDBRANCH  14  15
ENDBRANCH  13  14
ENDBRANCH  12  13
ENDBRANCH  11  12
BRANCH  11  20
HETATM   20  N9  UNL     1      17.938 -33.261  17.677  1.00  0.00    -0.369 N 
HETATM   21  C11 UNL     1      17.412 -34.269  17.121  1.00  0.00     0.088 C 
ATOM     22  H9  UNL     1      17.310 -32.475  17.845  1.00  0.00     0.165 HD
BRANCH  21  23
HETATM   23  C12 UNL     1      18.048 -35.530  16.755  1.00  0.00     0.274 C 
BRANCH  23  24
HETATM   24  N10 UNL     1      17.348 -36.209  15.668  1.00  0.00    -0.075 N 
ATOM     25 3H10 UNL     1      17.267 -37.209  15.851  1.00  0.00     0.274 HD
ATOM     26 2H10 UNL     1      16.357 -35.964  15.659  1.00  0.00     0.274 HD
ATOM     27 1H10 UNL     1      17.779 -36.035  14.761  1.00  0.00     0.274 HD
ENDBRANCH  23  24
ENDBRANCH  21  23
ENDBRANCH  11  20
ENDBRANCH   6  11
BRANCH   5  28
HETATM   28  N2  UNL     1      21.385 -34.497  17.276  1.00  0.00    -0.281 N 
ATOM     29  H2  UNL     1      21.446 -34.681  18.278  1.00  0.00     0.188 HD
BRANCH  28  30
HETATM   30  N3  UNL     1      21.453 -35.540  16.352  1.00  0.00    -0.274 N 
HETATM   31  C4  UNL     1      21.444 -36.772  16.653  1.00  0.00     0.215 C 
HETATM   32  N4  UNL     1      21.361 -37.221  17.995  1.00  0.00    -0.065 NA
HETATM   33  N5  UNL     1      21.517 -37.748  15.626  1.00  0.00    -0.065 NA
ATOM     34  H3  UNL     1      21.515 -35.294  15.364  1.00  0.00     0.189 HD
ENDBRANCH  28  30
ENDBRANCH   5  28
TORSDOF 10
ENDMDL
MODEL 3
REMARK VINA RESULT: -7.724495097      1.508      5.028
REMARK  10 active torsions:
REMARK  status: ('A' for Active; 'I' for Inactive)
REMARK    1  A    between atoms: C3_5  and  N2_6 
REMARK    2  A    between atoms: N2_6  and  N3_8 
REMARK       I    between atoms: N3_8  and  C4_10 
REMARK    3  A    between atoms: C5_13  and  C6_14 
REMARK    4  A    between atoms: C6_14  and  C7_15 
REMARK    5  A    between atoms: C6_14  and  N9_23 
REMARK    6  A    between atoms: C7_15  and  C8_16 
REMARK    7  A    between atoms: C8_16  and  C9_17 
REMARK    8  A    between atoms: C9_17  and  N6_18 
REMARK    9  A    between atoms: C11_25  and  C12_26 
REMARK   10  A    between atoms: C12_26  and  N10_27 
ROOT
HETATM    1  C1  UNL     1      19.690 -27.946  18.432  1.00  0.00     0.049 C 
HETATM    2  C2  UNL     1      19.613 -29.184  18.863  1.00  0.00     0.093 A 
HETATM    3  N1  UNL     1      19.447 -30.167  17.970  1.00  0.00    -0.336 N 
ATOM      4  H1  UNL     1      19.384 -29.936  16.979  1.00  0.00     0.168 HD
HETATM    5  C3  UNL     1      19.362 -31.455  18.354  1.00  0.00     0.150 A 
HETATM    6  C5  UNL     1      19.445 -31.804  19.704  1.00  0.00     0.103 A 
HETATM    7  N11 UNL     1      19.612 -30.798  20.580  1.00  0.00    -0.317 N 
ATOM      8  H11 UNL     1      19.677 -31.020  21.573  1.00  0.00     0.169 HD
HETATM    9  C13 UNL     1      19.698 -29.503  20.195  1.00  0.00     0.272 A 
HETATM   10  O1  UNL     1      19.854 -28.608  21.069  1.00  0.00    -0.266 OA
ENDROOT
BRANCH   6  11
HETATM   11  C6  UNL     1      19.375 -33.091  20.044  1.00  0.00     0.039 C 
BRANCH  11  12
HETATM   12  C7  UNL     1      20.445 -34.075  19.780  1.00  0.00     0.061 C 
BRANCH  12  13
HETATM   13  C8  UNL     1      19.925 -35.504  19.931  1.00  0.00     0.026 C 
BRANCH  13  14
HETATM   14  C9  UNL     1      19.648 -36.009  18.527  1.00  0.00     0.122 C 
BRANCH  14  15
HETATM   15  N6  UNL     1      18.301 -35.715  18.139  1.00  0.00    -0.367 N 
HETATM   16  C10 UNL     1      17.983 -35.475  16.936  1.00  0.00     0.196 C 
HETATM   17  N7  UNL     1      16.644 -35.185  16.568  1.00  0.00    -0.067 NA
HETATM   18  N8  UNL     1      18.973 -35.490  15.922  1.00  0.00    -0.067 NA
ATOM     19  H6  UNL     1      17.574 -35.699  18.854  1.00  0.00     0.161 HD
ENDBRANCH  14  15
ENDBRANCH  13  14
ENDBRANCH  12  13
ENDBRANCH  11  12
BRANCH  11  20
HETATM   20  N9  UNL     1      18.198 -33.548  20.682  1.00  0.00    -0.369 N 
HETATM   21  C11 UNL     1      17.848 -33.424  21.892  1.00  0.00     0.088 C 
ATOM     22  H9  UNL     1      17.540 -34.047  20.084  1.00  0.00     0.165 HD
BRANCH  21  23
HETATM   23  C12 UNL     1      18.573 -32.768  22.976  1.00  0.00     0.274 C 
BRANCH  23  24
HETATM   24  N10 UNL     1      17.773 -31.741  23.635  1.00  0.00    -0.075 N 
ATOM     25 3H10 UNL     1      17.242 -32.131  24.415  1.00  0.00     0.274 HD
ATOM     26 2H10 UNL     1      18.364 -31.089  24.151  1.00  0.00     0.274 HD
ATOM     27 1H10 UNL     1      17.162 -31.248  22.984  1.00  0.00     0.274 HD
ENDBRANCH  23  24
ENDBRANCH  21  23
ENDBRANCH  11  20
ENDBRANCH   6  11
BRANCH   5  28
HETATM   28  N2  UNL     1      19.188 -32.394  17.468  1.00  0.00    -0.281 N 
ATOM     29  H2  UNL     1      18.279 -32.842  17.353  1.00  0.00     0.188 HD
BRANCH  28  30
HETATM   30  N3  UNL     1      20.276 -32.772  16.682  1.00  0.00    -0.274 N 
HETATM   31  C4  UNL     1      20.635 -32.185  15.616  1.00  0.00     0.215 C 
HETATM   32  N4  UNL     1      19.943 -31.057  15.106  1.00  0.00    -0.065 NA
HETATM   33  N5  UNL     1      21.761 -32.658  14.896  1.00  0.00    -0.065 NA
ATOM     34  H3  UNL     1      20.823 -33.578  16.986  1.00  0.00     0.189 HD
ENDBRANCH  28  30
ENDBRANCH   5  28
TORSDOF 10
ENDMDL
MODEL 4
REMARK VINA RESULT: -7.609407249      2.237      5.125
REMARK  10 active torsions:
REMARK  status: ('A' for Active; 'I' for Inactive)
REMARK    1  A    between atoms: C3_5  and  N2_6 
REMARK    2  A    between atoms: N2_6  and  N3_8 
REMARK       I    between atoms: N3_8  and  C4_10 
REMARK    3  A    between atoms: C5_13  and  C6_14 
REMARK    4  A    between atoms: C6_14  and  C7_15 
REMARK    5  A    between atoms: C6_14  and  N9_23 
REMARK    6  A    between atoms: C7_15  and  C8_16 
REMARK    7  A    between atoms: C8_16  and  C9_17 
REMARK    8  A    between atoms: C9_17  and  N6_18 
REMARK    9  A    between atoms: C11_25  and  C12_26 
REMARK   10  A    between atoms: C12_26  and  N10_27 
ROOT
HETATM    1  C1  UNL     1      19.412 -28.527  18.095  1.00  0.00     0.049 C 
HETATM    2  C2  UNL     1      19.387 -29.714  18.655  1.00  0.00     0.093 A 
HETATM    3  N1  UNL     1      19.276 -30.793  17.870  1.00  0.00    -0.336 N 
ATOM      4  H1  UNL     1      19.213 -30.672  16.859  1.00  0.00     0.168 HD
HETATM    5  C3  UNL     1      19.245 -32.035  18.389  1.00  0.00     0.150 A 
HETATM    6  C5  UNL     1      19.328 -32.234  19.769  1.00  0.00     0.103 A 
HETATM    7  N11 UNL     1      19.439 -31.135  20.533  1.00  0.00    -0.317 N 
ATOM      8  H11 UNL     1      19.502 -31.247  21.544  1.00  0.00     0.169 HD
HETATM    9  C13 UNL     1      19.470 -29.885  20.013  1.00  0.00     0.272 A 
HETATM   10  O1  UNL     1      19.576 -28.896  20.788  1.00  0.00    -0.266 OA
ENDROOT
BRANCH   6  11
HETATM   11  C6  UNL     1      19.312 -33.481  20.243  1.00  0.00     0.039 C 
BRANCH  11  12
HETATM   12  C7  UNL     1      20.404 -34.455  20.041  1.00  0.00     0.061 C 
BRANCH  12  13
HETATM   13  C8  UNL     1      19.849 -35.829  19.664  1.00  0.00     0.026 C 
BRANCH  13  14
HETATM   14  C9  UNL     1      20.990 -36.587  19.012  1.00  0.00     0.122 C 
BRANCH  14  15
HETATM   15  N6  UNL     1      20.550 -37.228  17.808  1.00  0.00    -0.367 N 
HETATM   16  C10 UNL     1      21.230 -38.133  17.240  1.00  0.00     0.196 C 
HETATM   17  N7  UNL     1      20.781 -38.759  16.048  1.00  0.00    -0.067 NA
HETATM   18  N8  UNL     1      22.470 -38.544  17.790  1.00  0.00    -0.067 NA
ATOM     19  H6  UNL     1      19.661 -36.946  17.396  1.00  0.00     0.161 HD
ENDBRANCH  14  15
ENDBRANCH  13  14
ENDBRANCH  12  13
ENDBRANCH  11  12
BRANCH  11  20
HETATM   20  N9  UNL     1      18.174 -33.902  20.971  1.00  0.00    -0.369 N 
HETATM   21  C11 UNL     1      17.839 -33.618  22.158  1.00  0.00     0.088 C 
ATOM     22  H9  UNL     1      17.536 -34.519  20.470  1.00  0.00     0.165 HD
BRANCH  21  23
HETATM   23  C12 UNL     1      18.542 -32.770  23.115  1.00  0.00     0.274 C 
BRANCH  23  24
HETATM   24  N10 UNL     1      17.733 -31.636  23.550  1.00  0.00    -0.075 N 
ATOM     25 3H10 UNL     1      18.302 -30.795  23.652  1.00  0.00     0.274 HD
ATOM     26 2H10 UNL     1      17.110 -31.321  22.805  1.00  0.00     0.274 HD
ATOM     27 1H10 UNL     1      17.214 -31.835  24.405  1.00  0.00     0.274 HD
ENDBRANCH  23  24
ENDBRANCH  21  23
ENDBRANCH  11  20
ENDBRANCH   6  11
BRANCH   5  28
HETATM   28  N2  UNL     1      19.123 -33.070  17.607  1.00  0.00    -0.281 N 
ATOM     29  H2  UNL     1      19.942 -33.496  17.171  1.00  0.00     0.188 HD
BRANCH  28  30
HETATM   30  N3  UNL     1      17.846 -33.582  17.381  1.00  0.00    -0.274 N 
HETATM   31  C4  UNL     1      17.601 -34.678  16.792  1.00  0.00     0.215 C 
HETATM   32  N4  UNL     1      18.632 -35.513  16.291  1.00  0.00    -0.065 NA
HETATM   33  N5  UNL     1      16.258 -35.100  16.617  1.00  0.00    -0.065 NA
ATOM     34  H3  UNL     1      17.051 -33.035  17.712  1.00  0.00     0.189 HD
ENDBRANCH  28  30
ENDBRANCH   5  28
TORSDOF 10
ENDMDL
MODEL 5
REMARK VINA RESULT: -7.577855705      2.490      6.206
REMARK  10 active torsions:
REMARK  status: ('A' for Active; 'I' for Inactive)
REMARK    1  A    between atoms: C3_5  and  N2_6 
REMARK    2  A    between atoms: N2_6  and  N3_8 
REMARK       I    between atoms: N3_8  and  C4_10 
REMARK    3  A    between atoms: C5_13  and  C6_14 
REMARK    4  A    between atoms: C6_14  and  C7_15 
REMARK    5  A    between atoms: C6_14  and  N9_23 
REMARK    6  A    between atoms: C7_15  and  C8_16 
REMARK    7  A    between atoms: C8_16  and  C9_17 
REMARK    8  A    between atoms: C9_17  and  N6_18 
REMARK    9  A    between atoms: C11_25  and  C12_26 
REMARK   10  A    between atoms: C12_26  and  N10_27 
ROOT
HETATM    1  C1  UNL     1      20.673 -35.964  16.391  1.00  0.00     0.049 C 
HETATM    2  C2  UNL     1      20.306 -35.129  17.335  1.00  0.00     0.093 A 
HETATM    3  N1  UNL     1      19.964 -33.880  16.992  1.00  0.00    -0.336 N 
ATOM      4  H1  UNL     1      19.997 -33.605  16.011  1.00  0.00     0.168 HD
HETATM    5  C3  UNL     1      19.579 -32.981  17.917  1.00  0.00     0.150 A 
HETATM    6  C5  UNL     1      19.525 -33.327  19.270  1.00  0.00     0.103 A 
HETATM    7  N11 UNL     1      19.872 -34.585  19.586  1.00  0.00    -0.317 N 
ATOM      8  H11 UNL     1      19.842 -34.870  20.565  1.00  0.00     0.169 HD
HETATM    9  C13 UNL     1      20.260 -35.491  18.658  1.00  0.00     0.272 A 
HETATM   10  O1  UNL     1      20.572 -36.656  19.023  1.00  0.00    -0.266 OA
ENDROOT
BRANCH   6  11
HETATM   11  C6  UNL     1      19.121 -32.414  20.154  1.00  0.00     0.039 C 
BRANCH  11  12
HETATM   12  C7  UNL     1      19.954 -31.283  20.612  1.00  0.00     0.061 C 
BRANCH  12  13
HETATM   13  C8  UNL     1      19.095 -30.051  20.897  1.00  0.00     0.026 C 
BRANCH  13  14
HETATM   14  C9  UNL     1      19.696 -28.915  20.091  1.00  0.00     0.122 C 
BRANCH  14  15
HETATM   15  N6  UNL     1      19.824 -27.736  20.894  1.00  0.00    -0.367 N 
HETATM   16  C10 UNL     1      20.587 -26.778  20.569  1.00  0.00     0.196 C 
HETATM   17  N7  UNL     1      20.703 -25.616  21.376  1.00  0.00    -0.067 NA
HETATM   18  N8  UNL     1      21.352 -26.850  19.378  1.00  0.00    -0.067 NA
ATOM     19  H6  UNL     1      19.283 -27.664  21.755  1.00  0.00     0.161 HD
ENDBRANCH  14  15
ENDBRANCH  13  14
ENDBRANCH  12  13
ENDBRANCH  11  12
BRANCH  11  20
HETATM   20  N9  UNL     1      17.822 -32.545  20.700  1.00  0.00    -0.369 N 
HETATM   21  C11 UNL     1      17.481 -32.897  21.866  1.00  0.00     0.088 C 
ATOM     22  H9  UNL     1      17.055 -32.325  20.065  1.00  0.00     0.165 HD
BRANCH  21  23
HETATM   23  C12 UNL     1      18.342 -33.271  22.983  1.00  0.00     0.274 C 
BRANCH  23  24
HETATM   24  N10 UNL     1      18.039 -32.516  24.194  1.00  0.00    -0.075 N 
ATOM     25 3H10 UNL     1      17.312 -31.821  24.023  1.00  0.00     0.274 HD
ATOM     26 2H10 UNL     1      17.552 -33.097  24.877  1.00  0.00     0.274 HD
ATOM     27 1H10 UNL     1      18.870 -32.087  24.602  1.00  0.00     0.274 HD
ENDBRANCH  23  24
ENDBRANCH  21  23
ENDBRANCH  11  20
ENDBRANCH   6  11
BRANCH   5  28
HETATM   28  N2  UNL     1      19.264 -31.768  17.562  1.00  0.00    -0.281 N 
ATOM     29  H2  UNL     1      18.292 -31.457  17.570  1.00  0.00     0.188 HD
BRANCH  28  30
HETATM   30  N3  UNL     1      20.288 -30.906  17.171  1.00  0.00    -0.274 N 
HETATM   31  C4  UNL     1      20.666 -30.730  15.973  1.00  0.00     0.215 C 
HETATM   32  N4  UNL     1      20.067 -31.414  14.885  1.00  0.00    -0.065 NA
HETATM   33  N5  UNL     1      21.721 -29.825  15.693  1.00  0.00    -0.065 NA
ATOM     34  H3  UNL     1      20.768 -30.379  17.901  1.00  0.00     0.189 HD
ENDBRANCH  28  30
ENDBRANCH   5  28
TORSDOF 10
ENDMDL
