MODEL 1
REMARK VINA RESULT: -7.397266275      0.000      0.000
REMARK  6 active torsions:
REMARK  status: ('A' for Active; 'I' for Inactive)
REMARK    1  A    between atoms: N3_4  and  C2_6 
REMARK    2  A    between atoms: C2_6  and  C3_7 
REMARK    3  A    between atoms: C3_7  and  C4_8 
REMARK    4  A    between atoms: C4_8  and  C5_9 
REMARK    5  A    between atoms: C6_12  and  C7_13 
REMARK    6  A    between atoms: N6_14  and  N7_16 
ROOT
HETATM    1  C5  UNL     1      19.986 -31.130  18.737  1.00  0.00     0.187 C 
HETATM    2  N4  UNL     1      19.659 -32.379  18.102  1.00  0.00    -0.132 NA
HETATM    3  N5  UNL     1      18.734 -33.142  18.792  1.00  0.00    -0.117 NA
HETATM    4  C6  UNL     1      19.411 -33.945  19.762  1.00  0.00     0.235 C 
HETATM    5  N10 UNL     1      18.583 -33.962  20.964  1.00  0.00    -0.336 N 
ATOM      6  H10 UNL     1      18.111 -34.831  21.213  1.00  0.00     0.164 HD
HETATM    7  C9  UNL     1      18.401 -32.840  21.798  1.00  0.00     0.236 C 
HETATM    8  O1  UNL     1      17.430 -32.756  22.589  1.00  0.00    -0.272 OA
HETATM    9  C10 UNL     1      19.364 -31.718  21.760  1.00  0.00     0.225 C 
HETATM   10  N11 UNL     1      18.777 -30.675  20.946  1.00  0.00    -0.351 N 
ATOM     11  H11 UNL     1      18.223 -29.963  21.422  1.00  0.00     0.163 HD
HETATM   12  C11 UNL     1      18.910 -30.565  19.551  1.00  0.00     0.238 C 
HETATM   13  O2  UNL     1      18.003 -29.906  18.930  1.00  0.00    -0.272 OA
ENDROOT
BRANCH   1  14
HETATM   14  C4  UNL     1      20.413 -30.179  17.635  1.00  0.00     0.034 C 
BRANCH  14  15
HETATM   15  C3  UNL     1      20.401 -30.817  16.277  1.00  0.00     0.022 C 
BRANCH  15  16
HETATM   16  C2  UNL     1      21.809 -31.069  15.842  1.00  0.00     0.122 C 
BRANCH  16  17
HETATM   17  N3  UNL     1      22.348 -32.301  16.427  1.00  0.00    -0.367 N 
HETATM   18  C1  UNL     1      22.344 -33.344  15.688  1.00  0.00     0.196 C 
HETATM   19  N1  UNL     1      22.860 -34.544  16.234  1.00  0.00    -0.067 NA
HETATM   20  N2  UNL     1      21.855 -33.358  14.368  1.00  0.00    -0.067 NA
ATOM     21  H3  UNL     1      22.709 -32.325  17.380  1.00  0.00     0.161 HD
ENDBRANCH  16  17
ENDBRANCH  15  16
ENDBRANCH  14  15
ENDBRANCH   1  14
BRANCH   4  22
HETATM   22  C7  UNL     1      19.688 -35.321  19.290  1.00  0.00     0.123 C 
HETATM   23  N6  UNL     1      20.587 -35.499  18.407  1.00  0.00    -0.310 N 
ATOM     24  H6  UNL     1      21.088 -34.683  18.056  1.00  0.00     0.185 HD
BRANCH  23  25
HETATM   25  N7  UNL     1      20.925 -36.755  17.896  1.00  0.00    -0.277 N 
HETATM   26  C8  UNL     1      20.516 -37.101  16.714  1.00  0.00     0.215 C 
HETATM   27  N8  UNL     1      20.845 -38.373  16.170  1.00  0.00    -0.065 NA
HETATM   28  N9  UNL     1      19.732 -36.217  15.947  1.00  0.00    -0.065 NA
ATOM     29  H7  UNL     1      21.492 -37.397  18.449  1.00  0.00     0.189 HD
ENDBRANCH  23  25
ENDBRANCH   4  22
TORSDOF 6
ENDMDL
MODEL 2
REMARK VINA RESULT: -7.322841668      2.652      6.590
REMARK  6 active torsions:
REMARK  status: ('A' for Active; 'I' for Inactive)
REMARK    1  A    between atoms: N3_4  and  C2_6 
REMARK    2  A    between atoms: C2_6  and  C3_7 
REMARK    3  A    between atoms: C3_7  and  C4_8 
REMARK    4  A    between atoms: C4_8  and  C5_9 
REMARK    5  A    between atoms: C6_12  and  C7_13 
REMARK    6  A    between atoms: N6_14  and  N7_16 
ROOT
HETATM    1  C5  UNL     1      19.424 -33.908  18.576  1.00  0.00     0.187 C 
HETATM    2  N4  UNL     1      18.681 -32.889  19.268  1.00  0.00    -0.132 NA
HETATM    3  N5  UNL     1      18.496 -31.727  18.540  1.00  0.00    -0.117 NA
HETATM    4  C6  UNL     1      19.624 -30.868  18.725  1.00  0.00     0.235 C 
HETATM    5  N10 UNL     1      19.910 -30.245  17.436  1.00  0.00    -0.336 N 
ATOM      6  H10 UNL     1      19.719 -29.250  17.328  1.00  0.00     0.164 HD
HETATM    7  C9  UNL     1      20.436 -30.948  16.333  1.00  0.00     0.236 C 
HETATM    8  O1  UNL     1      20.333 -30.511  15.161  1.00  0.00    -0.272 OA
HETATM    9  C10 UNL     1      21.132 -32.238  16.534  1.00  0.00     0.225 C 
HETATM   10  N11 UNL     1      20.191 -33.290  16.213  1.00  0.00    -0.351 N 
ATOM     11  H11 UNL     1      20.182 -33.635  15.254  1.00  0.00     0.163 HD
HETATM   12  C11 UNL     1      19.288 -33.872  17.119  1.00  0.00     0.238 C 
HETATM   13  O2  UNL     1      18.244 -34.427  16.624  1.00  0.00    -0.272 OA
ENDROOT
BRANCH   1  14
HETATM   14  C4  UNL     1      18.977 -35.239  19.147  1.00  0.00     0.034 C 
BRANCH  14  15
HETATM   15  C3  UNL     1      20.123 -36.094  19.600  1.00  0.00     0.022 C 
BRANCH  15  16
HETATM   16  C2  UNL     1      21.106 -36.229  18.482  1.00  0.00     0.122 C 
BRANCH  16  17
HETATM   17  N3  UNL     1      21.106 -37.581  17.917  1.00  0.00    -0.367 N 
HETATM   18  C1  UNL     1      20.998 -37.680  16.647  1.00  0.00     0.196 C 
HETATM   19  N1  UNL     1      20.997 -38.978  16.081  1.00  0.00    -0.067 NA
HETATM   20  N2  UNL     1      20.882 -36.569  15.790  1.00  0.00    -0.067 NA
ATOM     21  H3  UNL     1      21.189 -38.407  18.510  1.00  0.00     0.161 HD
ENDBRANCH  16  17
ENDBRANCH  15  16
ENDBRANCH  14  15
ENDBRANCH   1  14
BRANCH   4  22
HETATM   22  C7  UNL     1      19.411 -29.842  19.772  1.00  0.00     0.123 C 
HETATM   23  N6  UNL     1      20.233 -28.875  19.861  1.00  0.00    -0.310 N 
ATOM     24  H6  UNL     1      21.013 -28.841  19.205  1.00  0.00     0.185 HD
BRANCH  23  25
HETATM   25  N7  UNL     1      20.123 -27.856  20.812  1.00  0.00    -0.277 N 
HETATM   26  C8  UNL     1      20.747 -26.734  20.628  1.00  0.00     0.215 C 
HETATM   27  N8  UNL     1      20.652 -25.681  21.580  1.00  0.00    -0.065 NA
HETATM   28  N9  UNL     1      21.533 -26.538  19.476  1.00  0.00    -0.065 NA
ATOM     29  H7  UNL     1      19.555 -27.996  21.647  1.00  0.00     0.189 HD
ENDBRANCH  23  25
ENDBRANCH   4  22
TORSDOF 6
ENDMDL
MODEL 3
REMARK VINA RESULT: -7.296146364      2.544      5.217
REMARK  6 active torsions:
REMARK  status: ('A' for Active; 'I' for Inactive)
REMARK    1  A    between atoms: N3_4  and  C2_6 
REMARK    2  A    between atoms: C2_6  and  C3_7 
REMARK    3  A    between atoms: C3_7  and  C4_8 
REMARK    4  A    between atoms: C4_8  and  C5_9 
REMARK    5  A    between atoms: C6_12  and  C7_13 
REMARK    6  A    between atoms: N6_14  and  N7_16 
ROOT
HETATM    1  C5  UNL     1      20.235 -33.330  18.292  1.00  0.00     0.187 C 
HETATM    2  N4  UNL     1      21.296 -33.968  17.560  1.00  0.00    -0.132 NA
HETATM    3  N5  UNL     1      20.873 -34.677  16.449  1.00  0.00    -0.117 NA
HETATM    4  C6  UNL     1      20.506 -36.001  16.844  1.00  0.00     0.235 C 
HETATM    5  N10 UNL     1      19.316 -36.365  16.080  1.00  0.00    -0.336 N 
ATOM      6  H10 UNL     1      19.406 -37.075  15.354  1.00  0.00     0.164 HD
HETATM    7  C9  UNL     1      18.047 -35.787  16.295  1.00  0.00     0.236 C 
HETATM    8  O1  UNL     1      17.147 -35.829  15.422  1.00  0.00    -0.272 OA
HETATM    9  C10 UNL     1      17.744 -35.106  17.572  1.00  0.00     0.225 C 
HETATM   10  N11 UNL     1      17.884 -33.683  17.346  1.00  0.00    -0.351 N 
ATOM     11  H11 UNL     1      17.048 -33.169  17.066  1.00  0.00     0.163 HD
HETATM   12  C11 UNL     1      19.078 -32.955  17.479  1.00  0.00     0.238 C 
HETATM   13  O2  UNL     1      19.164 -31.854  16.827  1.00  0.00    -0.272 OA
ENDROOT
BRANCH   1  14
HETATM   14  C4  UNL     1      20.845 -32.127  18.986  1.00  0.00     0.034 C 
BRANCH  14  15
HETATM   15  C3  UNL     1      20.729 -32.195  20.480  1.00  0.00     0.022 C 
BRANCH  15  16
HETATM   16  C2  UNL     1      19.400 -31.651  20.894  1.00  0.00     0.122 C 
BRANCH  16  17
HETATM   17  N3  UNL     1      19.178 -31.793  22.336  1.00  0.00    -0.367 N 
HETATM   18  C1  UNL     1      18.408 -32.741  22.715  1.00  0.00     0.196 C 
HETATM   19  N1  UNL     1      18.181 -32.895  24.104  1.00  0.00    -0.067 NA
HETATM   20  N2  UNL     1      17.779 -33.632  21.824  1.00  0.00    -0.067 NA
ATOM     21  H3  UNL     1      19.618 -31.164  23.008  1.00  0.00     0.161 HD
ENDBRANCH  16  17
ENDBRANCH  15  16
ENDBRANCH  14  15
ENDBRANCH   1  14
BRANCH   4  22
HETATM   22  C7  UNL     1      21.588 -36.992  16.642  1.00  0.00     0.123 C 
HETATM   23  N6  UNL     1      21.415 -37.926  15.795  1.00  0.00    -0.310 N 
ATOM     24  H6  UNL     1      20.533 -37.958  15.283  1.00  0.00     0.185 HD
BRANCH  23  25
HETATM   25  N7  UNL     1      22.371 -38.910  15.529  1.00  0.00    -0.277 N 
HETATM   26  C8  UNL     1      22.022 -39.998  14.915  1.00  0.00     0.215 C 
HETATM   27  N8  UNL     1      22.975 -41.015  14.633  1.00  0.00    -0.065 NA
HETATM   28  N9  UNL     1      20.685 -40.191  14.515  1.00  0.00    -0.065 NA
ATOM     29  H7  UNL     1      23.340 -38.773  15.818  1.00  0.00     0.189 HD
ENDBRANCH  23  25
ENDBRANCH   4  22
TORSDOF 6
ENDMDL
MODEL 4
REMARK VINA RESULT: -7.282317812      2.640      4.664
REMARK  6 active torsions:
REMARK  status: ('A' for Active; 'I' for Inactive)
REMARK    1  A    between atoms: N3_4  and  C2_6 
REMARK    2  A    between atoms: C2_6  and  C3_7 
REMARK    3  A    between atoms: C3_7  and  C4_8 
REMARK    4  A    between atoms: C4_8  and  C5_9 
REMARK    5  A    between atoms: C6_12  and  C7_13 
REMARK    6  A    between atoms: N6_14  and  N7_16 
ROOT
HETATM    1  C5  UNL     1      20.188 -33.491  18.403  1.00  0.00     0.187 C 
HETATM    2  N4  UNL     1      21.225 -34.348  17.894  1.00  0.00    -0.132 NA
HETATM    3  N5  UNL     1      20.847 -35.112  16.804  1.00  0.00    -0.117 NA
HETATM    4  C6  UNL     1      20.233 -36.319  17.261  1.00  0.00     0.235 C 
HETATM    5  N10 UNL     1      19.111 -36.599  16.371  1.00  0.00    -0.336 N 
ATOM      6  H10 UNL     1      19.185 -37.391  15.733  1.00  0.00     0.164 HD
HETATM    7  C9  UNL     1      17.929 -35.830  16.345  1.00  0.00     0.236 C 
HETATM    8  O1  UNL     1      17.153 -35.845  15.358  1.00  0.00    -0.272 OA
HETATM    9  C10 UNL     1      17.570 -34.975  17.497  1.00  0.00     0.225 C 
HETATM   10  N11 UNL     1      17.953 -33.620  17.163  1.00  0.00    -0.351 N 
ATOM     11  H11 UNL     1      17.249 -33.029  16.720  1.00  0.00     0.163 HD
HETATM   12  C11 UNL     1      19.217 -33.053  17.400  1.00  0.00     0.238 C 
HETATM   13  O2  UNL     1      19.554 -32.056  16.669  1.00  0.00    -0.272 OA
ENDROOT
BRANCH   1  14
HETATM   14  C4  UNL     1      20.879 -32.315  19.064  1.00  0.00     0.034 C 
BRANCH  14  15
HETATM   15  C3  UNL     1      20.396 -32.065  20.463  1.00  0.00     0.022 C 
BRANCH  15  16
HETATM   16  C2  UNL     1      19.931 -30.648  20.575  1.00  0.00     0.122 C 
BRANCH  16  17
HETATM   17  N3  UNL     1      20.260 -29.871  19.376  1.00  0.00    -0.367 N 
HETATM   18  C1  UNL     1      19.286 -29.522  18.625  1.00  0.00     0.196 C 
HETATM   19  N1  UNL     1      19.582 -28.771  17.462  1.00  0.00    -0.067 NA
HETATM   20  N2  UNL     1      17.943 -29.847  18.895  1.00  0.00    -0.067 NA
ATOM     21  H3  UNL     1      21.222 -29.620  19.151  1.00  0.00     0.161 HD
ENDBRANCH  16  17
ENDBRANCH  15  16
ENDBRANCH  14  15
ENDBRANCH   1  14
BRANCH   4  22
HETATM   22  C7  UNL     1      21.168 -37.467  17.310  1.00  0.00     0.123 C 
HETATM   23  N6  UNL     1      21.153 -38.313  16.359  1.00  0.00    -0.310 N 
ATOM     24  H6  UNL     1      20.495 -38.168  15.594  1.00  0.00     0.185 HD
BRANCH  23  25
HETATM   25  N7  UNL     1      21.993 -39.429  16.309  1.00  0.00    -0.277 N 
HETATM   26  C8  UNL     1      22.215 -40.016  15.174  1.00  0.00     0.215 C 
HETATM   27  N8  UNL     1      23.065 -41.154  15.095  1.00  0.00    -0.065 NA
HETATM   28  N9  UNL     1      21.615 -39.535  13.994  1.00  0.00    -0.065 NA
ATOM     29  H7  UNL     1      22.428 -39.780  17.161  1.00  0.00     0.189 HD
ENDBRANCH  23  25
ENDBRANCH   4  22
TORSDOF 6
ENDMDL
MODEL 5
REMARK VINA RESULT: -7.207810581      1.895      4.637
REMARK  6 active torsions:
REMARK  status: ('A' for Active; 'I' for Inactive)
REMARK    1  A    between atoms: N3_4  and  C2_6 
REMARK    2  A    between atoms: C2_6  and  C3_7 
REMARK    3  A    between atoms: C3_7  and  C4_8 
REMARK    4  A    between atoms: C4_8  and  C5_9 
REMARK    5  A    between atoms: C6_12  and  C7_13 
REMARK    6  A    between atoms: N6_14  and  N7_16 
ROOT
HETATM    1  C5  UNL     1      19.422 -32.991  19.454  1.00  0.00     0.187 C 
HETATM    2  N4  UNL     1      20.462 -33.131  18.471  1.00  0.00    -0.132 NA
HETATM    3  N5  UNL     1      21.127 -31.954  18.176  1.00  0.00    -0.117 NA
HETATM    4  C6  UNL     1      20.416 -31.251  17.155  1.00  0.00     0.235 C 
HETATM    5  N10 UNL     1      20.471 -29.831  17.489  1.00  0.00    -0.336 N 
ATOM      6  H10 UNL     1      21.041 -29.219  16.907  1.00  0.00     0.164 HD
HETATM    7  C9  UNL     1      19.776 -29.261  18.576  1.00  0.00     0.236 C 
HETATM    8  O1  UNL     1      20.109 -28.154  19.066  1.00  0.00    -0.272 OA
HETATM    9  C10 UNL     1      18.621 -29.965  19.176  1.00  0.00     0.225 C 
HETATM   10  N11 UNL     1      19.094 -30.626  20.373  1.00  0.00    -0.351 N 
ATOM     11  H11 UNL     1      19.023 -30.112  21.252  1.00  0.00     0.163 HD
HETATM   12  C11 UNL     1      19.645 -31.918  20.423  1.00  0.00     0.238 C 
HETATM   13  O2  UNL     1      20.416 -32.184  21.411  1.00  0.00    -0.272 OA
ENDROOT
BRANCH   1  14
HETATM   14  C4  UNL     1      19.280 -34.339  20.135  1.00  0.00     0.034 C 
BRANCH  14  15
HETATM   15  C3  UNL     1      20.180 -35.386  19.547  1.00  0.00     0.022 C 
BRANCH  15  16
HETATM   16  C2  UNL     1      19.381 -36.263  18.637  1.00  0.00     0.122 C 
BRANCH  16  17
HETATM   17  N3  UNL     1      18.127 -35.625  18.228  1.00  0.00    -0.367 N 
HETATM   18  C1  UNL     1      17.947 -35.447  16.975  1.00  0.00     0.196 C 
HETATM   19  N1  UNL     1      16.742 -34.832  16.559  1.00  0.00    -0.067 NA
HETATM   20  N2  UNL     1      18.883 -35.831  15.995  1.00  0.00    -0.067 NA
ATOM     21  H3  UNL     1      17.428 -35.335  18.912  1.00  0.00     0.161 HD
ENDBRANCH  16  17
ENDBRANCH  15  16
ENDBRANCH  14  15
ENDBRANCH   1  14
BRANCH   4  22
HETATM   22  C7  UNL     1      20.952 -31.495  15.796  1.00  0.00     0.123 C 
HETATM   23  N6  UNL     1      21.985 -32.227  15.665  1.00  0.00    -0.310 N 
ATOM     24  H6  UNL     1      22.408 -32.620  16.505  1.00  0.00     0.185 HD
BRANCH  23  25
HETATM   25  N7  UNL     1      22.569 -32.519  14.430  1.00  0.00    -0.277 N 
HETATM   26  C8  UNL     1      22.546 -33.735  13.978  1.00  0.00     0.215 C 
HETATM   27  N8  UNL     1      23.134 -34.060  12.724  1.00  0.00    -0.065 NA
HETATM   28  N9  UNL     1      21.936 -34.760  14.727  1.00  0.00    -0.065 NA
ATOM     29  H7  UNL     1      23.013 -31.779  13.886  1.00  0.00     0.189 HD
ENDBRANCH  23  25
ENDBRANCH   4  22
TORSDOF 6
ENDMDL
