MODEL 1
REMARK VINA RESULT: -7.236464967      0.000      0.000
REMARK  8 active torsions:
REMARK  status: ('A' for Active; 'I' for Inactive)
REMARK    1  A    between atoms: C3_3  and  N1_4 
REMARK    2  A    between atoms: C5_10  and  C6_11 
REMARK       I    between atoms: C6_11  and  N3_13 
REMARK    3  A    between atoms: N3_13  and  C7_15 
REMARK    4  A    between atoms: C7_15  and  C8_16 
REMARK    5  A    between atoms: C8_16  and  C9_17 
REMARK       I    between atoms: C9_17  and  N4_19 
REMARK    6  A    between atoms: N4_19  and  C10_21 
REMARK    7  A    between atoms: C10_21  and  C11_22 
REMARK       I    between atoms: C11_22  and  N5_24 
REMARK    8  A    between atoms: N5_24  and  N6_26 
ROOT
HETATM    1  C6  UNL     1      20.603 -30.077  17.803  1.00  0.00     0.248 C 
HETATM    2  O1  UNL     1      20.045 -29.540  16.849  1.00  0.00    -0.268 OA
HETATM    3  N3  UNL     1      21.815 -30.774  17.632  1.00  0.00    -0.333 N 
ATOM      4  H3  UNL     1      22.153 -31.174  18.508  1.00  0.00     0.168 HD
ENDROOT
BRANCH   1   5
HETATM    5  C5  UNL     1      20.053 -30.029  19.162  1.00  0.00     0.122 C 
HETATM    6  C4  UNL     1      19.569 -31.017  19.872  1.00  0.00     0.114 A 
HETATM    7  N2  UNL     1      19.479 -32.281  19.489  1.00  0.00    -0.328 N 
HETATM    8  N7  UNL     1      19.104 -30.743  21.139  1.00  0.00    -0.309 N 
HETATM    9  C3  UNL     1      18.962 -33.284  20.276  1.00  0.00     0.115 A 
ATOM     10  H2  UNL     1      19.812 -32.526  18.557  1.00  0.00     0.169 HD
HETATM   11  C2  UNL     1      18.503 -33.002  21.535  1.00  0.00     0.066 A 
HETATM   12  C1  UNL     1      17.997 -33.925  22.338  1.00  0.00     0.033 C 
HETATM   13  C12 UNL     1      18.596 -31.686  21.932  1.00  0.00     0.260 A 
HETATM   14  O4  UNL     1      18.170 -31.415  23.105  1.00  0.00    -0.267 OA
ATOM     15  H7  UNL     1      19.150 -29.783  21.483  1.00  0.00     0.170 HD
BRANCH   9  16
HETATM   16  N1  UNL     1      18.903 -34.492  19.848  1.00  0.00    -0.385 N 
ATOM     17  H12 UNL     1      19.752 -35.008  19.617  1.00  0.00     0.157 HD
ATOM     18  H11 UNL     1      17.990 -34.934  19.742  1.00  0.00     0.157 HD
ENDBRANCH   9  16
ENDBRANCH   1   5
BRANCH   3  19
HETATM   19  C7  UNL     1      22.673 -31.055  16.561  1.00  0.00     0.097 C 
BRANCH  19  20
HETATM   20  C8  UNL     1      23.074 -32.435  16.316  1.00  0.00     0.091 C 
BRANCH  20  21
HETATM   21  C9  UNL     1      22.226 -33.469  15.799  1.00  0.00     0.242 C 
HETATM   22  O2  UNL     1      21.976 -33.800  14.618  1.00  0.00    -0.269 OA
HETATM   23  N4  UNL     1      21.522 -34.291  16.776  1.00  0.00    -0.349 N 
ATOM     24  H4  UNL     1      21.652 -34.107  17.771  1.00  0.00     0.163 HD
BRANCH  23  25
HETATM   25  C10 UNL     1      20.649 -35.351  16.366  1.00  0.00     0.227 C 
BRANCH  25  26
HETATM   26  C11 UNL     1      19.249 -34.937  16.563  1.00  0.00     0.253 C 
HETATM   27  O3  UNL     1      18.960 -33.731  16.768  1.00  0.00    -0.270 OA
HETATM   28  N5  UNL     1      18.233 -35.951  16.516  1.00  0.00    -0.275 N 
ATOM     29  H5  UNL     1      18.486 -36.924  16.349  1.00  0.00     0.189 HD
BRANCH  28  30
HETATM   30  N6  UNL     1      16.883 -35.592  16.701  1.00  0.00    -0.343 N 
ATOM     31  H62 UNL     1      16.254 -35.592  15.898  1.00  0.00     0.176 HD
ATOM     32  H61 UNL     1      16.552 -35.337  17.631  1.00  0.00     0.176 HD
ENDBRANCH  28  30
ENDBRANCH  25  26
ENDBRANCH  23  25
ENDBRANCH  20  21
ENDBRANCH  19  20
ENDBRANCH   3  19
TORSDOF 8
ENDMDL
MODEL 2
REMARK VINA RESULT: -7.036962317      2.341      6.145
REMARK  8 active torsions:
REMARK  status: ('A' for Active; 'I' for Inactive)
REMARK    1  A    between atoms: C3_3  and  N1_4 
REMARK    2  A    between atoms: C5_10  and  C6_11 
REMARK       I    between atoms: C6_11  and  N3_13 
REMARK    3  A    between atoms: N3_13  and  C7_15 
REMARK    4  A    between atoms: C7_15  and  C8_16 
REMARK    5  A    between atoms: C8_16  and  C9_17 
REMARK       I    between atoms: C9_17  and  N4_19 
REMARK    6  A    between atoms: N4_19  and  C10_21 
REMARK    7  A    between atoms: C10_21  and  C11_22 
REMARK       I    between atoms: C11_22  and  N5_24 
REMARK    8  A    between atoms: N5_24  and  N6_26 
ROOT
HETATM    1  C6  UNL     1      18.640 -33.527  17.822  1.00  0.00     0.248 C 
HETATM    2  O1  UNL     1      18.511 -32.950  16.745  1.00  0.00    -0.268 OA
HETATM    3  N3  UNL     1      18.511 -32.826  19.037  1.00  0.00    -0.333 N 
ATOM      4  H3  UNL     1      18.654 -33.432  19.845  1.00  0.00     0.168 HD
ENDROOT
BRANCH   1   5
HETATM    5  C5  UNL     1      18.934 -34.961  17.914  1.00  0.00     0.122 C 
HETATM    6  C4  UNL     1      19.807 -35.653  17.225  1.00  0.00     0.114 A 
HETATM    7  N2  UNL     1      20.613 -35.178  16.288  1.00  0.00    -0.328 N 
HETATM    8  N7  UNL     1      19.919 -37.001  17.480  1.00  0.00    -0.309 N 
HETATM    9  C3  UNL     1      21.515 -35.947  15.593  1.00  0.00     0.115 A 
ATOM     10  H2  UNL     1      20.560 -34.182  16.068  1.00  0.00     0.169 HD
HETATM   11  C2  UNL     1      21.620 -37.288  15.854  1.00  0.00     0.066 A 
HETATM   12  C1  UNL     1      22.471 -38.078  15.219  1.00  0.00     0.033 C 
HETATM   13  C12 UNL     1      20.781 -37.781  16.829  1.00  0.00     0.260 A 
HETATM   14  O4  UNL     1      20.873 -39.031  17.078  1.00  0.00    -0.267 OA
ATOM     15  H7  UNL     1      19.320 -37.418  18.194  1.00  0.00     0.170 HD
BRANCH   9  16
HETATM   16  N1  UNL     1      22.271 -35.428  14.696  1.00  0.00    -0.385 N 
ATOM     17  H12 UNL     1      23.240 -35.727  14.589  1.00  0.00     0.157 HD
ATOM     18  H11 UNL     1      21.888 -34.707  14.084  1.00  0.00     0.157 HD
ENDBRANCH   9  16
ENDBRANCH   1   5
BRANCH   3  19
HETATM   19  C7  UNL     1      18.235 -31.505  19.413  1.00  0.00     0.097 C 
BRANCH  19  20
HETATM   20  C8  UNL     1      19.272 -30.492  19.260  1.00  0.00     0.091 C 
BRANCH  20  21
HETATM   21  C9  UNL     1      19.737 -29.958  18.014  1.00  0.00     0.242 C 
HETATM   22  O2  UNL     1      19.518 -28.851  17.471  1.00  0.00    -0.269 OA
HETATM   23  N4  UNL     1      20.610 -30.813  17.217  1.00  0.00    -0.349 N 
ATOM     24  H4  UNL     1      20.854 -31.740  17.565  1.00  0.00     0.163 HD
BRANCH  23  25
HETATM   25  C10 UNL     1      21.130 -30.376  15.955  1.00  0.00     0.227 C 
BRANCH  25  26
HETATM   26  C11 UNL     1      21.877 -31.478  15.325  1.00  0.00     0.253 C 
HETATM   27  O3  UNL     1      21.278 -32.501  14.905  1.00  0.00    -0.270 OA
HETATM   28  N5  UNL     1      23.302 -31.347  15.209  1.00  0.00    -0.275 N 
ATOM     29  H5  UNL     1      23.771 -30.510  15.556  1.00  0.00     0.189 HD
BRANCH  28  30
HETATM   30  N6  UNL     1      24.050 -32.381  14.613  1.00  0.00    -0.343 N 
ATOM     31  H62 UNL     1      24.528 -33.057  15.210  1.00  0.00     0.176 HD
ATOM     32  H61 UNL     1      24.105 -32.442  13.597  1.00  0.00     0.176 HD
ENDBRANCH  28  30
ENDBRANCH  25  26
ENDBRANCH  23  25
ENDBRANCH  20  21
ENDBRANCH  19  20
ENDBRANCH   3  19
TORSDOF 8
ENDMDL
MODEL 3
REMARK VINA RESULT: -7.026771120      3.669      5.180
REMARK  8 active torsions:
REMARK  status: ('A' for Active; 'I' for Inactive)
REMARK    1  A    between atoms: C3_3  and  N1_4 
REMARK    2  A    between atoms: C5_10  and  C6_11 
REMARK       I    between atoms: C6_11  and  N3_13 
REMARK    3  A    between atoms: N3_13  and  C7_15 
REMARK    4  A    between atoms: C7_15  and  C8_16 
REMARK    5  A    between atoms: C8_16  and  C9_17 
REMARK       I    between atoms: C9_17  and  N4_19 
REMARK    6  A    between atoms: N4_19  and  C10_21 
REMARK    7  A    between atoms: C10_21  and  C11_22 
REMARK       I    between atoms: C11_22  and  N5_24 
REMARK    8  A    between atoms: N5_24  and  N6_26 
ROOT
HETATM    1  C6  UNL     1      18.906 -34.652  17.680  1.00  0.00     0.248 C 
HETATM    2  O1  UNL     1      17.806 -35.173  17.518  1.00  0.00    -0.268 OA
HETATM    3  N3  UNL     1      19.988 -35.393  18.195  1.00  0.00    -0.333 N 
ATOM      4  H3  UNL     1      20.832 -34.827  18.284  1.00  0.00     0.168 HD
ENDROOT
BRANCH   1   5
HETATM    5  C5  UNL     1      19.164 -33.245  17.355  1.00  0.00     0.122 C 
HETATM    6  C4  UNL     1      19.222 -32.225  18.174  1.00  0.00     0.114 A 
HETATM    7  N2  UNL     1      19.053 -32.268  19.487  1.00  0.00    -0.328 N 
HETATM    8  N7  UNL     1      19.482 -30.979  17.647  1.00  0.00    -0.309 N 
HETATM    9  C3  UNL     1      19.126 -31.165  20.304  1.00  0.00     0.115 A 
ATOM     10  H2  UNL     1      18.858 -33.172  19.916  1.00  0.00     0.169 HD
HETATM   11  C2  UNL     1      19.386 -29.930  19.771  1.00  0.00     0.066 A 
HETATM   12  C1  UNL     1      19.470 -28.834  20.508  1.00  0.00     0.033 C 
HETATM   13  C12 UNL     1      19.561 -29.886  18.406  1.00  0.00     0.260 A 
HETATM   14  O4  UNL     1      19.804 -28.738  17.901  1.00  0.00    -0.267 OA
ATOM     15  H7  UNL     1      19.620 -30.891  16.640  1.00  0.00     0.170 HD
BRANCH   9  16
HETATM   16  N1  UNL     1      18.954 -31.272  21.571  1.00  0.00    -0.385 N 
ATOM     17  H12 UNL     1      19.612 -31.797  22.147  1.00  0.00     0.157 HD
ATOM     18  H11 UNL     1      18.146 -30.821  22.000  1.00  0.00     0.157 HD
ENDBRANCH   9  16
ENDBRANCH   1   5
BRANCH   3  19
HETATM   19  C7  UNL     1      20.194 -36.714  18.615  1.00  0.00     0.097 C 
BRANCH  19  20
HETATM   20  C8  UNL     1      21.190 -37.529  17.929  1.00  0.00     0.091 C 
BRANCH  20  21
HETATM   21  C9  UNL     1      21.292 -37.700  16.510  1.00  0.00     0.242 C 
HETATM   22  O2  UNL     1      21.121 -36.881  15.579  1.00  0.00    -0.269 OA
HETATM   23  N4  UNL     1      21.649 -39.031  16.031  1.00  0.00    -0.349 N 
ATOM     24  H4  UNL     1      21.811 -39.778  16.706  1.00  0.00     0.163 HD
BRANCH  23  25
HETATM   25  C10 UNL     1      21.776 -39.308  14.631  1.00  0.00     0.227 C 
BRANCH  25  26
HETATM   26  C11 UNL     1      21.189 -40.627  14.338  1.00  0.00     0.253 C 
HETATM   27  O3  UNL     1      19.962 -40.742  14.093  1.00  0.00    -0.270 OA
HETATM   28  N5  UNL     1      22.060 -41.769  14.344  1.00  0.00    -0.275 N 
ATOM     29  H5  UNL     1      23.054 -41.656  14.546  1.00  0.00     0.189 HD
BRANCH  28  30
HETATM   30  N6  UNL     1      21.534 -43.047  14.070  1.00  0.00    -0.343 N 
ATOM     31  H62 UNL     1      20.590 -43.125  13.691  1.00  0.00     0.176 HD
ATOM     32  H61 UNL     1      22.101 -43.875  14.251  1.00  0.00     0.176 HD
ENDBRANCH  28  30
ENDBRANCH  25  26
ENDBRANCH  23  25
ENDBRANCH  20  21
ENDBRANCH  19  20
ENDBRANCH   3  19
TORSDOF 8
ENDMDL
MODEL 4
REMARK VINA RESULT: -7.000652969      1.834      2.089
REMARK  8 active torsions:
REMARK  status: ('A' for Active; 'I' for Inactive)
REMARK    1  A    between atoms: C3_3  and  N1_4 
REMARK    2  A    between atoms: C5_10  and  C6_11 
REMARK       I    between atoms: C6_11  and  N3_13 
REMARK    3  A    between atoms: N3_13  and  C7_15 
REMARK    4  A    between atoms: C7_15  and  C8_16 
REMARK    5  A    between atoms: C8_16  and  C9_17 
REMARK       I    between atoms: C9_17  and  N4_19 
REMARK    6  A    between atoms: N4_19  and  C10_21 
REMARK    7  A    between atoms: C10_21  and  C11_22 
REMARK       I    between atoms: C11_22  and  N5_24 
REMARK    8  A    between atoms: N5_24  and  N6_26 
ROOT
HETATM    1  C6  UNL     1      20.512 -31.830  18.795  1.00  0.00     0.248 C 
HETATM    2  O1  UNL     1      19.566 -32.471  18.345  1.00  0.00    -0.268 OA
HETATM    3  N3  UNL     1      21.303 -31.023  17.954  1.00  0.00    -0.333 N 
ATOM      4  H3  UNL     1      22.056 -30.561  18.465  1.00  0.00     0.168 HD
ENDROOT
BRANCH   1   5
HETATM    5  C5  UNL     1      20.876 -31.861  20.215  1.00  0.00     0.122 C 
HETATM    6  C4  UNL     1      20.099 -32.094  21.243  1.00  0.00     0.114 A 
HETATM    7  N2  UNL     1      18.801 -32.352  21.197  1.00  0.00    -0.328 N 
HETATM    8  N7  UNL     1      20.659 -32.077  22.501  1.00  0.00    -0.309 N 
HETATM    9  C3  UNL     1      18.029 -32.593  22.308  1.00  0.00     0.115 A 
ATOM     10  H2  UNL     1      18.348 -32.373  20.282  1.00  0.00     0.169 HD
HETATM   11  C2  UNL     1      18.594 -32.574  23.555  1.00  0.00     0.066 A 
HETATM   12  C1  UNL     1      17.902 -32.800  24.661  1.00  0.00     0.033 C 
HETATM   13  C12 UNL     1      19.944 -32.305  23.603  1.00  0.00     0.260 A 
HETATM   14  O4  UNL     1      20.479 -32.286  24.763  1.00  0.00    -0.267 OA
ATOM     15  H7  UNL     1      21.657 -31.883  22.593  1.00  0.00     0.170 HD
BRANCH   9  16
HETATM   16  N1  UNL     1      16.774 -32.838  22.197  1.00  0.00    -0.385 N 
ATOM     17  H12 UNL     1      16.346 -33.615  22.701  1.00  0.00     0.157 HD
ATOM     18  H11 UNL     1      16.205 -32.241  21.597  1.00  0.00     0.157 HD
ENDBRANCH   9  16
ENDBRANCH   1   5
BRANCH   3  19
HETATM   19  C7  UNL     1      21.315 -30.697  16.591  1.00  0.00     0.097 C 
BRANCH  19  20
HETATM   20  C8  UNL     1      22.135 -31.486  15.679  1.00  0.00     0.091 C 
BRANCH  20  21
HETATM   21  C9  UNL     1      21.856 -32.828  15.259  1.00  0.00     0.242 C 
HETATM   22  O2  UNL     1      21.880 -33.343  14.119  1.00  0.00    -0.269 OA
HETATM   23  N4  UNL     1      21.478 -33.777  16.299  1.00  0.00    -0.349 N 
ATOM     24  H4  UNL     1      21.426 -33.462  17.268  1.00  0.00     0.163 HD
BRANCH  23  25
HETATM   25  C10 UNL     1      21.178 -35.144  15.986  1.00  0.00     0.227 C 
BRANCH  25  26
HETATM   26  C11 UNL     1      19.882 -35.509  16.584  1.00  0.00     0.253 C 
HETATM   27  O3  UNL     1      18.940 -35.927  15.865  1.00  0.00    -0.270 OA
HETATM   28  N5  UNL     1      19.732 -35.371  18.006  1.00  0.00    -0.275 N 
ATOM     29  H5  UNL     1      20.508 -35.030  18.573  1.00  0.00     0.189 HD
BRANCH  28  30
HETATM   30  N6  UNL     1      18.507 -35.711  18.612  1.00  0.00    -0.343 N 
ATOM     31  H62 UNL     1      17.936 -34.974  19.027  1.00  0.00     0.176 HD
ATOM     32  H61 UNL     1      18.206 -36.685  18.630  1.00  0.00     0.176 HD
ENDBRANCH  28  30
ENDBRANCH  25  26
ENDBRANCH  23  25
ENDBRANCH  20  21
ENDBRANCH  19  20
ENDBRANCH   3  19
TORSDOF 8
ENDMDL
MODEL 5
REMARK VINA RESULT: -6.860858142      1.850      5.557
REMARK  8 active torsions:
REMARK  status: ('A' for Active; 'I' for Inactive)
REMARK    1  A    between atoms: C3_3  and  N1_4 
REMARK    2  A    between atoms: C5_10  and  C6_11 
REMARK       I    between atoms: C6_11  and  N3_13 
REMARK    3  A    between atoms: N3_13  and  C7_15 
REMARK    4  A    between atoms: C7_15  and  C8_16 
REMARK    5  A    between atoms: C8_16  and  C9_17 
REMARK       I    between atoms: C9_17  and  N4_19 
REMARK    6  A    between atoms: N4_19  and  C10_21 
REMARK    7  A    between atoms: C10_21  and  C11_22 
REMARK       I    between atoms: C11_22  and  N5_24 
REMARK    8  A    between atoms: N5_24  and  N6_26 
ROOT
HETATM    1  C6  UNL     1      20.751 -30.635  16.051  1.00  0.00     0.248 C 
HETATM    2  O1  UNL     1      20.410 -29.798  15.218  1.00  0.00    -0.268 OA
HETATM    3  N3  UNL     1      20.562 -30.405  17.427  1.00  0.00    -0.333 N 
ATOM      4  H3  UNL     1      20.902 -31.181  17.995  1.00  0.00     0.168 HD
ENDROOT
BRANCH   1   5
HETATM    5  C5  UNL     1      21.370 -31.910  15.672  1.00  0.00     0.122 C 
HETATM    6  C4  UNL     1      21.057 -33.113  16.085  1.00  0.00     0.114 A 
HETATM    7  N2  UNL     1      20.097 -33.417  16.945  1.00  0.00    -0.328 N 
HETATM    8  N7  UNL     1      21.775 -34.179  15.591  1.00  0.00    -0.309 N 
HETATM    9  C3  UNL     1      19.807 -34.700  17.345  1.00  0.00     0.115 A 
ATOM     10  H2  UNL     1      19.542 -32.655  17.334  1.00  0.00     0.169 HD
HETATM   11  C2  UNL     1      20.527 -35.754  16.848  1.00  0.00     0.066 A 
HETATM   12  C1  UNL     1      20.292 -37.010  17.195  1.00  0.00     0.033 C 
HETATM   13  C12 UNL     1      21.525 -35.437  15.954  1.00  0.00     0.260 A 
HETATM   14  O4  UNL     1      22.201 -36.415  15.486  1.00  0.00    -0.267 OA
ATOM     15  H7  UNL     1      22.527 -33.999  14.924  1.00  0.00     0.170 HD
BRANCH   9  16
HETATM   16  N1  UNL     1      18.863 -34.931  18.182  1.00  0.00    -0.385 N 
ATOM     17  H12 UNL     1      17.964 -34.455  18.103  1.00  0.00     0.157 HD
ATOM     18  H11 UNL     1      19.022 -35.602  18.934  1.00  0.00     0.157 HD
ENDBRANCH   9  16
ENDBRANCH   1   5
BRANCH   3  19
HETATM   19  C7  UNL     1      20.022 -29.376  18.211  1.00  0.00     0.097 C 
BRANCH  19  20
HETATM   20  C8  UNL     1      19.271 -29.719  19.413  1.00  0.00     0.091 C 
BRANCH  20  21
HETATM   21  C9  UNL     1      19.052 -31.046  19.907  1.00  0.00     0.242 C 
HETATM   22  O2  UNL     1      18.550 -32.048  19.348  1.00  0.00    -0.269 OA
HETATM   23  N4  UNL     1      19.466 -31.314  21.279  1.00  0.00    -0.349 N 
ATOM     24  H4  UNL     1      19.888 -30.566  21.829  1.00  0.00     0.163 HD
BRANCH  23  25
HETATM   25  C10 UNL     1      19.292 -32.609  21.870  1.00  0.00     0.227 C 
BRANCH  25  26
HETATM   26  C11 UNL     1      17.973 -32.674  22.522  1.00  0.00     0.253 C 
HETATM   27  O3  UNL     1      17.868 -32.563  23.770  1.00  0.00    -0.270 OA
HETATM   28  N5  UNL     1      16.818 -32.870  21.691  1.00  0.00    -0.275 N 
ATOM     29  H5  UNL     1      16.923 -32.959  20.680  1.00  0.00     0.189 HD
BRANCH  28  30
HETATM   30  N6  UNL     1      15.541 -32.938  22.279  1.00  0.00    -0.343 N 
ATOM     31  H62 UNL     1      14.717 -32.771  21.701  1.00  0.00     0.176 HD
ATOM     32  H61 UNL     1      15.454 -33.154  23.272  1.00  0.00     0.176 HD
ENDBRANCH  28  30
ENDBRANCH  25  26
ENDBRANCH  23  25
ENDBRANCH  20  21
ENDBRANCH  19  20
ENDBRANCH   3  19
TORSDOF 8
ENDMDL
