MODEL 1
REMARK VINA RESULT: -7.804699583      0.000      0.000
REMARK  7 active torsions:
REMARK  status: ('A' for Active; 'I' for Inactive)
REMARK    1  A    between atoms: C2_2  and  C3_3 
REMARK    2  A    between atoms: C2_2  and  N1_10 
REMARK    3  A    between atoms: C3_3  and  C4_4 
REMARK    4  A    between atoms: N1_10  and  C10_12 
REMARK    5  A    between atoms: C13_19  and  N4_20 
REMARK    6  A    between atoms: N4_20  and  C14_22 
REMARK    7  A    between atoms: N5_23  and  N6_25 
ROOT
HETATM    1  C10 UNL     1      16.232 -18.300  41.024  1.00  0.00     0.131 A 
HETATM    2  N2  UNL     1      14.961 -17.970  40.739  1.00  0.00    -0.337 N 
ATOM      3  H2  UNL     1      14.774 -17.297  39.996  1.00  0.00     0.168 HD
HETATM    4  C11 UNL     1      13.925 -18.511  41.420  1.00  0.00     0.182 A 
HETATM    5  N3  UNL     1      14.172 -19.397  42.402  1.00  0.00    -0.360 N 
ATOM      6  H3  UNL     1      13.381 -19.797  42.907  1.00  0.00     0.166 HD
HETATM    7  C12 UNL     1      15.420 -19.781  42.751  1.00  0.00     0.122 A 
HETATM    8  C13 UNL     1      16.464 -19.210  42.035  1.00  0.00     0.093 A 
ENDROOT
BRANCH   1   9
HETATM    9  N1  UNL     1      17.250 -17.811  40.403  1.00  0.00    -0.370 N 
ATOM     10  H1  UNL     1      17.915 -17.240  40.926  1.00  0.00     0.161 HD
BRANCH   9  11
HETATM   11  C2  UNL     1      17.489 -18.038  38.991  1.00  0.00     0.083 C 
HETATM   12  C1  UNL     1      16.743 -19.227  38.472  1.00  0.00     0.032 C 
BRANCH  11  13
HETATM   13  C3  UNL     1      18.954 -18.066  38.658  1.00  0.00     0.063 C 
BRANCH  13  14
HETATM   14  C4  UNL     1      19.721 -19.028  39.453  1.00  0.00    -0.056 A 
HETATM   15  C5  UNL     1      19.505 -20.382  39.354  1.00  0.00     0.007 A 
HETATM   16  C6  UNL     1      20.220 -21.296  40.097  1.00  0.00     0.001 A 
HETATM   17  C7  UNL     1      21.186 -20.880  40.972  1.00  0.00     0.000 A 
HETATM   18  C8  UNL     1      21.426 -19.529  41.093  1.00  0.00     0.001 A 
HETATM   19  C9  UNL     1      20.692 -18.609  40.333  1.00  0.00     0.007 A 
ENDBRANCH  13  14
ENDBRANCH  11  13
ENDBRANCH   9  11
ENDBRANCH   1   9
BRANCH   8  20
HETATM   20  N4  UNL     1      17.803 -19.567  42.344  1.00  0.00    -0.347 N 
ATOM     21  H4  UNL     1      18.256 -20.307  41.808  1.00  0.00     0.167 HD
BRANCH  20  22
HETATM   22  C14 UNL     1      18.528 -18.920  43.380  1.00  0.00     0.199 C 
HETATM   23  N5  UNL     1      19.090 -17.779  43.195  1.00  0.00    -0.282 N 
ATOM     24  H5  UNL     1      19.002 -17.343  42.277  1.00  0.00     0.189 HD
BRANCH  23  25
HETATM   25  N6  UNL     1      19.806 -17.110  44.170  1.00  0.00    -0.248 N 
HETATM   26  N7  UNL     1      20.880 -17.538  44.682  1.00  0.00    -0.331 N 
ATOM     27  H72 UNL     1      21.227 -18.435  44.343  1.00  0.00     0.178 HD
ATOM     28  H71 UNL     1      21.409 -17.044  45.401  1.00  0.00     0.178 HD
ATOM     29  H6  UNL     1      19.445 -16.215  44.497  1.00  0.00     0.207 HD
ENDBRANCH  23  25
ENDBRANCH  20  22
ENDBRANCH   8  20
TORSDOF 7
ENDMDL
MODEL 2
REMARK VINA RESULT: -7.689203754      1.881      4.878
REMARK  7 active torsions:
REMARK  status: ('A' for Active; 'I' for Inactive)
REMARK    1  A    between atoms: C2_2  and  C3_3 
REMARK    2  A    between atoms: C2_2  and  N1_10 
REMARK    3  A    between atoms: C3_3  and  C4_4 
REMARK    4  A    between atoms: N1_10  and  C10_12 
REMARK    5  A    between atoms: C13_19  and  N4_20 
REMARK    6  A    between atoms: N4_20  and  C14_22 
REMARK    7  A    between atoms: N5_23  and  N6_25 
ROOT
HETATM    1  C10 UNL     1      19.694 -21.158  43.025  1.00  0.00     0.131 A 
HETATM    2  N2  UNL     1      21.009 -21.435  43.035  1.00  0.00    -0.337 N 
ATOM      3  H2  UNL     1      21.330 -22.352  42.723  1.00  0.00     0.168 HD
HETATM    4  C11 UNL     1      21.916 -20.521  43.450  1.00  0.00     0.182 A 
HETATM    5  N3  UNL     1      21.494 -19.313  43.862  1.00  0.00    -0.360 N 
ATOM      6  H3  UNL     1      22.189 -18.633  44.171  1.00  0.00     0.166 HD
HETATM    7  C12 UNL     1      20.190 -18.956  43.884  1.00  0.00     0.122 A 
HETATM    8  C13 UNL     1      19.281 -19.913  43.453  1.00  0.00     0.093 A 
ENDROOT
BRANCH   1   9
HETATM    9  N1  UNL     1      18.794 -21.996  42.639  1.00  0.00    -0.370 N 
ATOM     10  H1  UNL     1      18.361 -22.605  43.333  1.00  0.00     0.161 HD
BRANCH   9  11
HETATM   11  C2  UNL     1      18.371 -22.108  41.257  1.00  0.00     0.083 C 
HETATM   12  C1  UNL     1      17.911 -23.491  40.913  1.00  0.00     0.032 C 
BRANCH  11  13
HETATM   13  C3  UNL     1      19.396 -21.570  40.301  1.00  0.00     0.063 C 
BRANCH  13  14
HETATM   14  C4  UNL     1      18.963 -20.367  39.587  1.00  0.00    -0.056 A 
HETATM   15  C5  UNL     1      19.786 -19.276  39.443  1.00  0.00     0.007 A 
HETATM   16  C6  UNL     1      19.388 -18.139  38.774  1.00  0.00     0.001 A 
HETATM   17  C7  UNL     1      18.140 -18.057  38.218  1.00  0.00     0.000 A 
HETATM   18  C8  UNL     1      17.292 -19.136  38.345  1.00  0.00     0.001 A 
HETATM   19  C9  UNL     1      17.707 -20.286  39.029  1.00  0.00     0.007 A 
ENDBRANCH  13  14
ENDBRANCH  11  13
ENDBRANCH   9  11
ENDBRANCH   1   9
BRANCH   8  20
HETATM   20  N4  UNL     1      17.894 -19.609  43.447  1.00  0.00    -0.347 N 
ATOM     21  H4  UNL     1      17.272 -20.120  44.073  1.00  0.00     0.167 HD
BRANCH  20  22
HETATM   22  C14 UNL     1      17.352 -18.613  42.593  1.00  0.00     0.199 C 
HETATM   23  N5  UNL     1      16.084 -18.501  42.413  1.00  0.00    -0.282 N 
ATOM     24  H5  UNL     1      15.470 -19.151  42.903  1.00  0.00     0.189 HD
BRANCH  23  25
HETATM   25  N6  UNL     1      15.508 -17.550  41.592  1.00  0.00    -0.248 N 
HETATM   26  N7  UNL     1      14.291 -17.208  41.645  1.00  0.00    -0.331 N 
ATOM     27  H72 UNL     1      13.712 -17.673  42.344  1.00  0.00     0.178 HD
ATOM     28  H71 UNL     1      13.866 -16.505  41.040  1.00  0.00     0.178 HD
ATOM     29  H6  UNL     1      16.102 -17.094  40.900  1.00  0.00     0.207 HD
ENDBRANCH  23  25
ENDBRANCH  20  22
ENDBRANCH   8  20
TORSDOF 7
ENDMDL
MODEL 3
REMARK VINA RESULT: -7.608536972      2.034      3.944
REMARK  7 active torsions:
REMARK  status: ('A' for Active; 'I' for Inactive)
REMARK    1  A    between atoms: C2_2  and  C3_3 
REMARK    2  A    between atoms: C2_2  and  N1_10 
REMARK    3  A    between atoms: C3_3  and  C4_4 
REMARK    4  A    between atoms: N1_10  and  C10_12 
REMARK    5  A    between atoms: C13_19  and  N4_20 
REMARK    6  A    between atoms: N4_20  and  C14_22 
REMARK    7  A    between atoms: N5_23  and  N6_25 
ROOT
HETATM    1  C10 UNL     1      17.227 -20.532  42.948  1.00  0.00     0.131 A 
HETATM    2  N2  UNL     1      17.216 -20.984  44.214  1.00  0.00    -0.337 N 
ATOM      3  H2  UNL     1      18.081 -21.328  44.629  1.00  0.00     0.168 HD
HETATM    4  C11 UNL     1      16.079 -20.990  44.947  1.00  0.00     0.182 A 
HETATM    5  N3  UNL     1      14.938 -20.536  44.398  1.00  0.00    -0.360 N 
ATOM      6  H3  UNL     1      14.089 -20.546  44.963  1.00  0.00     0.166 HD
HETATM    7  C12 UNL     1      14.865 -20.067  43.133  1.00  0.00     0.122 A 
HETATM    8  C13 UNL     1      16.047 -20.072  42.403  1.00  0.00     0.093 A 
ENDROOT
BRANCH   1   9
HETATM    9  N1  UNL     1      18.285 -20.507  42.211  1.00  0.00    -0.370 N 
ATOM     10  H1  UNL     1      18.864 -19.667  42.215  1.00  0.00     0.161 HD
BRANCH   9  11
HETATM   11  C2  UNL     1      18.686 -21.624  41.378  1.00  0.00     0.083 C 
HETATM   12  C1  UNL     1      19.176 -22.787  42.184  1.00  0.00     0.032 C 
BRANCH  11  13
HETATM   13  C3  UNL     1      19.637 -21.212  40.292  1.00  0.00     0.063 C 
BRANCH  13  14
HETATM   14  C4  UNL     1      19.076 -20.237  39.354  1.00  0.00    -0.056 A 
HETATM   15  C5  UNL     1      19.601 -18.974  39.225  1.00  0.00     0.007 A 
HETATM   16  C6  UNL     1      19.081 -18.049  38.346  1.00  0.00     0.001 A 
HETATM   17  C7  UNL     1      18.006 -18.362  37.559  1.00  0.00     0.000 A 
HETATM   18  C8  UNL     1      17.457 -19.621  37.666  1.00  0.00     0.001 A 
HETATM   19  C9  UNL     1      17.995 -20.553  38.563  1.00  0.00     0.007 A 
ENDBRANCH  13  14
ENDBRANCH  11  13
ENDBRANCH   9  11
ENDBRANCH   1   9
BRANCH   8  20
HETATM   20  N4  UNL     1      16.046 -19.592  41.067  1.00  0.00    -0.347 N 
ATOM     21  H4  UNL     1      16.168 -20.255  40.301  1.00  0.00     0.167 HD
BRANCH  20  22
HETATM   22  C14 UNL     1      15.881 -18.214  40.769  1.00  0.00     0.199 C 
HETATM   23  N5  UNL     1      16.764 -17.343  41.107  1.00  0.00    -0.282 N 
ATOM     24  H5  UNL     1      17.596 -17.668  41.599  1.00  0.00     0.189 HD
BRANCH  23  25
HETATM   25  N6  UNL     1      16.649 -15.992  40.841  1.00  0.00    -0.248 N 
HETATM   26  N7  UNL     1      17.048 -15.440  39.775  1.00  0.00    -0.331 N 
ATOM     27  H72 UNL     1      17.481 -16.046  39.077  1.00  0.00     0.178 HD
ATOM     28  H71 UNL     1      16.963 -14.443  39.578  1.00  0.00     0.178 HD
ATOM     29  H6  UNL     1      16.213 -15.401  41.549  1.00  0.00     0.207 HD
ENDBRANCH  23  25
ENDBRANCH  20  22
ENDBRANCH   8  20
TORSDOF 7
ENDMDL
MODEL 4
REMARK VINA RESULT: -7.584851930      1.274      4.706
REMARK  7 active torsions:
REMARK  status: ('A' for Active; 'I' for Inactive)
REMARK    1  A    between atoms: C2_2  and  C3_3 
REMARK    2  A    between atoms: C2_2  and  N1_10 
REMARK    3  A    between atoms: C3_3  and  C4_4 
REMARK    4  A    between atoms: N1_10  and  C10_12 
REMARK    5  A    between atoms: C13_19  and  N4_20 
REMARK    6  A    between atoms: N4_20  and  C14_22 
REMARK    7  A    between atoms: N5_23  and  N6_25 
ROOT
HETATM    1  C10 UNL     1      19.796 -19.764  43.064  1.00  0.00     0.131 A 
HETATM    2  N2  UNL     1      20.808 -19.070  43.611  1.00  0.00    -0.337 N 
ATOM      3  H2  UNL     1      21.725 -19.508  43.701  1.00  0.00     0.168 HD
HETATM    4  C11 UNL     1      20.635 -17.801  44.046  1.00  0.00     0.182 A 
HETATM    5  N3  UNL     1      19.426 -17.223  43.929  1.00  0.00    -0.360 N 
ATOM      6  H3  UNL     1      19.310 -16.265  44.260  1.00  0.00     0.166 HD
HETATM    7  C12 UNL     1      18.357 -17.853  43.392  1.00  0.00     0.122 A 
HETATM    8  C13 UNL     1      18.564 -19.155  42.954  1.00  0.00     0.093 A 
ENDROOT
BRANCH   1   9
HETATM    9  N1  UNL     1      19.914 -20.975  42.636  1.00  0.00    -0.370 N 
ATOM     10  H1  UNL     1      19.559 -21.736  43.215  1.00  0.00     0.161 HD
BRANCH   9  11
HETATM   11  C2  UNL     1      20.531 -21.300  41.365  1.00  0.00     0.083 C 
HETATM   12  C1  UNL     1      21.746 -22.160  41.526  1.00  0.00     0.032 C 
BRANCH  11  13
HETATM   13  C3  UNL     1      20.775 -20.081  40.522  1.00  0.00     0.063 C 
BRANCH  13  14
HETATM   14  C4  UNL     1      19.691 -19.786  39.583  1.00  0.00    -0.056 A 
HETATM   15  C5  UNL     1      19.588 -18.567  38.958  1.00  0.00     0.007 A 
HETATM   16  C6  UNL     1      18.571 -18.279  38.073  1.00  0.00     0.001 A 
HETATM   17  C7  UNL     1      17.615 -19.213  37.781  1.00  0.00     0.000 A 
HETATM   18  C8  UNL     1      17.691 -20.445  38.393  1.00  0.00     0.001 A 
HETATM   19  C9  UNL     1      18.729 -20.726  39.291  1.00  0.00     0.007 A 
ENDBRANCH  13  14
ENDBRANCH  11  13
ENDBRANCH   9  11
ENDBRANCH   1   9
BRANCH   8  20
HETATM   20  N4  UNL     1      17.487 -19.878  42.377  1.00  0.00    -0.347 N 
ATOM     21  H4  UNL     1      17.640 -20.842  42.078  1.00  0.00     0.167 HD
BRANCH  20  22
HETATM   22  C14 UNL     1      16.203 -19.297  42.206  1.00  0.00     0.199 C 
HETATM   23  N5  UNL     1      15.829 -18.816  41.075  1.00  0.00    -0.282 N 
ATOM     24  H5  UNL     1      16.483 -18.862  40.293  1.00  0.00     0.189 HD
BRANCH  23  25
HETATM   25  N6  UNL     1      14.592 -18.239  40.858  1.00  0.00    -0.248 N 
HETATM   26  N7  UNL     1      14.057 -17.393  41.630  1.00  0.00    -0.331 N 
ATOM     27  H72 UNL     1      14.585 -17.129  42.462  1.00  0.00     0.178 HD
ATOM     28  H71 UNL     1      13.144 -16.967  41.470  1.00  0.00     0.178 HD
ATOM     29  H6  UNL     1      14.078 -18.514  40.022  1.00  0.00     0.207 HD
ENDBRANCH  23  25
ENDBRANCH  20  22
ENDBRANCH   8  20
TORSDOF 7
ENDMDL
MODEL 5
REMARK VINA RESULT: -7.557283784      2.010      4.184
REMARK  7 active torsions:
REMARK  status: ('A' for Active; 'I' for Inactive)
REMARK    1  A    between atoms: C2_2  and  C3_3 
REMARK    2  A    between atoms: C2_2  and  N1_10 
REMARK    3  A    between atoms: C3_3  and  C4_4 
REMARK    4  A    between atoms: N1_10  and  C10_12 
REMARK    5  A    between atoms: C13_19  and  N4_20 
REMARK    6  A    between atoms: N4_20  and  C14_22 
REMARK    7  A    between atoms: N5_23  and  N6_25 
ROOT
HETATM    1  C10 UNL     1      18.554 -21.669  42.695  1.00  0.00     0.131 A 
HETATM    2  N2  UNL     1      18.401 -23.004  42.681  1.00  0.00    -0.337 N 
ATOM      3  H2  UNL     1      19.217 -23.599  42.542  1.00  0.00     0.168 HD
HETATM    4  C11 UNL     1      17.185 -23.573  42.846  1.00  0.00     0.182 A 
HETATM    5  N3  UNL     1      16.109 -22.787  43.028  1.00  0.00    -0.360 N 
ATOM      6  H3  UNL     1      15.198 -23.230  43.152  1.00  0.00     0.166 HD
HETATM    7  C12 UNL     1      16.178 -21.437  43.054  1.00  0.00     0.122 A 
HETATM    8  C13 UNL     1      17.438 -20.880  42.881  1.00  0.00     0.093 A 
ENDROOT
BRANCH   1   9
HETATM    9  N1  UNL     1      19.692 -21.082  42.541  1.00  0.00    -0.370 N 
ATOM     10  H1  UNL     1      20.081 -20.556  43.323  1.00  0.00     0.161 HD
BRANCH   9  11
HETATM   11  C2  UNL     1      20.441 -21.139  41.301  1.00  0.00     0.083 C 
HETATM   12  C1  UNL     1      21.740 -21.869  41.454  1.00  0.00     0.032 C 
BRANCH  11  13
HETATM   13  C3  UNL     1      20.593 -19.788  40.663  1.00  0.00     0.063 C 
BRANCH  13  14
HETATM   14  C4  UNL     1      19.597 -19.511  39.625  1.00  0.00    -0.056 A 
HETATM   15  C5  UNL     1      19.589 -18.326  38.929  1.00  0.00     0.007 A 
HETATM   16  C6  UNL     1      18.657 -18.055  37.951  1.00  0.00     0.001 A 
HETATM   17  C7  UNL     1      17.693 -18.972  37.633  1.00  0.00     0.000 A 
HETATM   18  C8  UNL     1      17.675 -20.171  38.314  1.00  0.00     0.001 A 
HETATM   19  C9  UNL     1      18.627 -20.434  39.307  1.00  0.00     0.007 A 
ENDBRANCH  13  14
ENDBRANCH  11  13
ENDBRANCH   9  11
ENDBRANCH   1   9
BRANCH   8  20
HETATM   20  N4  UNL     1      17.588 -19.469  42.898  1.00  0.00    -0.347 N 
ATOM     21  H4  UNL     1      18.260 -19.048  43.540  1.00  0.00     0.167 HD
BRANCH  20  22
HETATM   22  C14 UNL     1      16.826 -18.627  42.045  1.00  0.00     0.199 C 
HETATM   23  N5  UNL     1      17.286 -17.502  41.628  1.00  0.00    -0.282 N 
ATOM     24  H5  UNL     1      18.221 -17.224  41.926  1.00  0.00     0.189 HD
BRANCH  23  25
HETATM   25  N6  UNL     1      16.585 -16.647  40.798  1.00  0.00    -0.248 N 
HETATM   26  N7  UNL     1      16.700 -15.388  40.813  1.00  0.00    -0.331 N 
ATOM     27  H72 UNL     1      17.356 -14.993  41.487  1.00  0.00     0.178 HD
ATOM     28  H71 UNL     1      16.182 -14.757  40.200  1.00  0.00     0.178 HD
ATOM     29  H6  UNL     1      15.933 -17.059  40.131  1.00  0.00     0.207 HD
ENDBRANCH  23  25
ENDBRANCH  20  22
ENDBRANCH   8  20
TORSDOF 7
ENDMDL
