MODEL 1
REMARK VINA RESULT: -6.432200569      0.000      0.000
REMARK  9 active torsions:
REMARK  status: ('A' for Active; 'I' for Inactive)
REMARK    1  A    between atoms: N1_1  and  C1_4 
REMARK    2  A    between atoms: C4_9  and  N3_10 
REMARK    3  A    between atoms: N3_10  and  C5_12 
REMARK    4  A    between atoms: C5_12  and  C6_13 
REMARK    5  A    between atoms: C6_13  and  C7_14 
REMARK    6  A    between atoms: C7_14  and  N4_15 
REMARK    7  A    between atoms: C11_19  and  C12_20 
REMARK    8  A    between atoms: C12_20  and  C13_21 
REMARK    9  A    between atoms: C13_21  and  O1_22 
ROOT
HETATM    1  N3  UNL     1      18.676 -18.747  43.566  1.00  0.00    -0.376 N 
ATOM      2  H3  UNL     1      18.542 -18.439  44.529  1.00  0.00     0.161 HD
ENDROOT
BRANCH   1   3
HETATM    3  C4  UNL     1      17.631 -19.081  42.925  1.00  0.00     0.100 C 
HETATM    4  N2  UNL     1      16.950 -20.179  43.322  1.00  0.00    -0.353 N 
HETATM    5  C3  UNL     1      15.633 -20.429  43.273  1.00  0.00     0.092 C 
ATOM      6  H2  UNL     1      17.521 -20.928  43.716  1.00  0.00     0.166 HD
HETATM    7  C2  UNL     1      14.674 -19.769  42.497  1.00  0.00     0.046 C 
HETATM    8  C1  UNL     1      14.849 -18.704  41.639  1.00  0.00     0.027 C 
HETATM    9  C16 UNL     1      16.050 -18.138  41.256  1.00  0.00     0.033 C 
HETATM   10  C15 UNL     1      17.311 -18.242  41.855  1.00  0.00     0.050 C 
BRANCH   8  11
HETATM   11  N1  UNL     1      13.765 -18.221  41.176  1.00  0.00    -0.399 N 
ATOM     12  H12 UNL     1      13.321 -17.446  41.669  1.00  0.00     0.156 HD
ATOM     13  H11 UNL     1      13.434 -18.676  40.325  1.00  0.00     0.156 HD
ENDBRANCH   8  11
ENDBRANCH   1   3
BRANCH   1  14
HETATM   14  C5  UNL     1      20.017 -18.756  43.080  1.00  0.00     0.123 C 
BRANCH  14  15
HETATM   15  C6  UNL     1      20.528 -20.116  42.723  1.00  0.00     0.040 C 
BRANCH  15  16
HETATM   16  C7  UNL     1      21.047 -20.203  41.312  1.00  0.00     0.129 C 
BRANCH  16  17
HETATM   17  N4  UNL     1      19.939 -20.220  40.377  1.00  0.00    -0.366 N 
HETATM   18  C8  UNL     1      19.039 -21.238  40.374  1.00  0.00     0.090 A 
HETATM   19  C9  UNL     1      17.989 -21.261  39.494  1.00  0.00     0.018 A 
HETATM   20  C10 UNL     1      17.836 -20.239  38.592  1.00  0.00     0.010 A 
HETATM   21  C11 UNL     1      18.733 -19.193  38.573  1.00  0.00    -0.041 A 
HETATM   22  C14 UNL     1      19.771 -19.216  39.478  1.00  0.00     0.097 A 
BRANCH  21  23
HETATM   23  C12 UNL     1      18.517 -18.118  37.579  1.00  0.00     0.066 C 
BRANCH  23  24
HETATM   24  C13 UNL     1      17.314 -17.264  37.933  1.00  0.00     0.168 C 
BRANCH  24  25
HETATM   25  O1  UNL     1      17.694 -16.328  38.890  1.00  0.00    -0.401 OA
ATOM     26  H1  UNL     1      18.419 -15.818  38.548  1.00  0.00     0.209 HD
ENDBRANCH  24  25
ENDBRANCH  23  24
ENDBRANCH  21  23
ENDBRANCH  16  17
ENDBRANCH  15  16
ENDBRANCH  14  15
ENDBRANCH   1  14
TORSDOF 9
ENDMDL
MODEL 2
REMARK VINA RESULT: -6.325840787      1.160      1.673
REMARK  9 active torsions:
REMARK  status: ('A' for Active; 'I' for Inactive)
REMARK    1  A    between atoms: N1_1  and  C1_4 
REMARK    2  A    between atoms: C4_9  and  N3_10 
REMARK    3  A    between atoms: N3_10  and  C5_12 
REMARK    4  A    between atoms: C5_12  and  C6_13 
REMARK    5  A    between atoms: C6_13  and  C7_14 
REMARK    6  A    between atoms: C7_14  and  N4_15 
REMARK    7  A    between atoms: C11_19  and  C12_20 
REMARK    8  A    between atoms: C12_20  and  C13_21 
REMARK    9  A    between atoms: C13_21  and  O1_22 
ROOT
HETATM    1  N3  UNL     1      19.540 -18.345  42.717  1.00  0.00    -0.376 N 
ATOM      2  H3  UNL     1      19.786 -17.382  42.486  1.00  0.00     0.161 HD
ENDROOT
BRANCH   1   3
HETATM    3  C4  UNL     1      18.301 -18.610  42.804  1.00  0.00     0.100 C 
HETATM    4  N2  UNL     1      17.429 -17.887  42.067  1.00  0.00    -0.353 N 
HETATM    5  C3  UNL     1      16.267 -18.263  41.511  1.00  0.00     0.092 C 
ATOM      6  H2  UNL     1      17.693 -16.914  41.910  1.00  0.00     0.166 HD
HETATM    7  C2  UNL     1      15.499 -19.387  41.830  1.00  0.00     0.046 C 
HETATM    8  C1  UNL     1      15.768 -20.375  42.755  1.00  0.00     0.027 C 
HETATM    9  C16 UNL     1      16.803 -20.394  43.670  1.00  0.00     0.033 C 
HETATM   10  C15 UNL     1      17.989 -19.651  43.682  1.00  0.00     0.050 C 
BRANCH   8  11
HETATM   11  N1  UNL     1      14.953 -21.354  42.727  1.00  0.00    -0.399 N 
ATOM     12  H12 UNL     1      14.040 -21.223  42.289  1.00  0.00     0.156 HD
ATOM     13  H11 UNL     1      15.305 -22.205  43.164  1.00  0.00     0.156 HD
ENDBRANCH   8  11
ENDBRANCH   1   3
BRANCH   1  14
HETATM   14  C5  UNL     1      20.625 -19.250  42.909  1.00  0.00     0.123 C 
BRANCH  14  15
HETATM   15  C6  UNL     1      21.388 -19.563  41.660  1.00  0.00     0.040 C 
BRANCH  15  16
HETATM   16  C7  UNL     1      20.969 -20.858  41.017  1.00  0.00     0.129 C 
BRANCH  16  17
HETATM   17  N4  UNL     1      19.814 -20.638  40.168  1.00  0.00    -0.366 N 
HETATM   18  C8  UNL     1      18.781 -21.521  40.146  1.00  0.00     0.090 A 
HETATM   19  C9  UNL     1      17.686 -21.320  39.347  1.00  0.00     0.018 A 
HETATM   20  C10 UNL     1      17.623 -20.206  38.548  1.00  0.00     0.010 A 
HETATM   21  C11 UNL     1      18.656 -19.294  38.551  1.00  0.00    -0.041 A 
HETATM   22  C14 UNL     1      19.734 -19.541  39.371  1.00  0.00     0.097 A 
BRANCH  21  23
HETATM   23  C12 UNL     1      18.533 -18.111  37.669  1.00  0.00     0.066 C 
BRANCH  23  24
HETATM   24  C13 UNL     1      17.337 -17.256  38.046  1.00  0.00     0.168 C 
BRANCH  24  25
HETATM   25  O1  UNL     1      17.684 -16.450  39.125  1.00  0.00    -0.401 OA
ATOM     26  H1  UNL     1      16.890 -16.144  39.547  1.00  0.00     0.209 HD
ENDBRANCH  24  25
ENDBRANCH  23  24
ENDBRANCH  21  23
ENDBRANCH  16  17
ENDBRANCH  15  16
ENDBRANCH  14  15
ENDBRANCH   1  14
TORSDOF 9
ENDMDL
MODEL 3
REMARK VINA RESULT: -6.300627559      2.168      3.986
REMARK  9 active torsions:
REMARK  status: ('A' for Active; 'I' for Inactive)
REMARK    1  A    between atoms: N1_1  and  C1_4 
REMARK    2  A    between atoms: C4_9  and  N3_10 
REMARK    3  A    between atoms: N3_10  and  C5_12 
REMARK    4  A    between atoms: C5_12  and  C6_13 
REMARK    5  A    between atoms: C6_13  and  C7_14 
REMARK    6  A    between atoms: C7_14  and  N4_15 
REMARK    7  A    between atoms: C11_19  and  C12_20 
REMARK    8  A    between atoms: C12_20  and  C13_21 
REMARK    9  A    between atoms: C13_21  and  O1_22 
ROOT
HETATM    1  N3  UNL     1      17.274 -17.390  40.069  1.00  0.00    -0.376 N 
ATOM      2  H3  UNL     1      17.860 -16.596  40.326  1.00  0.00     0.161 HD
ENDROOT
BRANCH   1   3
HETATM    3  C4  UNL     1      16.585 -17.912  41.000  1.00  0.00     0.100 C 
HETATM    4  N2  UNL     1      15.312 -17.493  41.177  1.00  0.00    -0.353 N 
HETATM    5  C3  UNL     1      14.240 -18.181  41.599  1.00  0.00     0.092 C 
ATOM      6  H2  UNL     1      15.141 -16.511  40.958  1.00  0.00     0.166 HD
HETATM    7  C2  UNL     1      14.231 -19.402  42.281  1.00  0.00     0.046 C 
HETATM    8  C1  UNL     1      15.303 -20.189  42.646  1.00  0.00     0.027 C 
HETATM    9  C16 UNL     1      16.643 -19.870  42.530  1.00  0.00     0.033 C 
HETATM   10  C15 UNL     1      17.255 -18.885  41.745  1.00  0.00     0.050 C 
BRANCH   8  11
HETATM   11  N1  UNL     1      14.981 -21.320  43.134  1.00  0.00    -0.399 N 
ATOM     12  H12 UNL     1      14.003 -21.611  43.099  1.00  0.00     0.156 HD
ATOM     13  H11 UNL     1      15.761 -21.845  43.528  1.00  0.00     0.156 HD
ENDBRANCH   8  11
ENDBRANCH   1   3
BRANCH   1  14
HETATM   14  C5  UNL     1      17.316 -17.797  38.703  1.00  0.00     0.123 C 
BRANCH  14  15
HETATM   15  C6  UNL     1      18.531 -18.590  38.338  1.00  0.00     0.040 C 
BRANCH  15  16
HETATM   16  C7  UNL     1      19.781 -18.112  39.029  1.00  0.00     0.129 C 
BRANCH  16  17
HETATM   17  N4  UNL     1      20.255 -19.124  39.953  1.00  0.00    -0.366 N 
HETATM   18  C8  UNL     1      20.580 -20.370  39.523  1.00  0.00     0.090 A 
HETATM   19  C9  UNL     1      21.029 -21.332  40.390  1.00  0.00     0.018 A 
HETATM   20  C10 UNL     1      21.154 -21.038  41.725  1.00  0.00     0.010 A 
HETATM   21  C11 UNL     1      20.831 -19.781  42.189  1.00  0.00    -0.041 A 
HETATM   22  C14 UNL     1      20.385 -18.851  41.277  1.00  0.00     0.097 A 
BRANCH  21  23
HETATM   23  C12 UNL     1      20.986 -19.522  43.638  1.00  0.00     0.066 C 
BRANCH  23  24
HETATM   24  C13 UNL     1      20.167 -18.325  44.082  1.00  0.00     0.168 C 
BRANCH  24  25
HETATM   25  O1  UNL     1      20.936 -17.550  44.944  1.00  0.00    -0.401 OA
ATOM     26  H1  UNL     1      21.060 -16.691  44.556  1.00  0.00     0.209 HD
ENDBRANCH  24  25
ENDBRANCH  23  24
ENDBRANCH  21  23
ENDBRANCH  16  17
ENDBRANCH  15  16
ENDBRANCH  14  15
ENDBRANCH   1  14
TORSDOF 9
ENDMDL
MODEL 4
REMARK VINA RESULT: -6.261504689      2.067      3.265
REMARK  9 active torsions:
REMARK  status: ('A' for Active; 'I' for Inactive)
REMARK    1  A    between atoms: N1_1  and  C1_4 
REMARK    2  A    between atoms: C4_9  and  N3_10 
REMARK    3  A    between atoms: N3_10  and  C5_12 
REMARK    4  A    between atoms: C5_12  and  C6_13 
REMARK    5  A    between atoms: C6_13  and  C7_14 
REMARK    6  A    between atoms: C7_14  and  N4_15 
REMARK    7  A    between atoms: C11_19  and  C12_20 
REMARK    8  A    between atoms: C12_20  and  C13_21 
REMARK    9  A    between atoms: C13_21  and  O1_22 
ROOT
HETATM    1  N3  UNL     1      21.752 -20.639  44.151  1.00  0.00    -0.376 N 
ATOM      2  H3  UNL     1      22.549 -20.338  44.713  1.00  0.00     0.161 HD
ENDROOT
BRANCH   1   3
HETATM    3  C4  UNL     1      20.718 -19.901  44.189  1.00  0.00     0.100 C 
HETATM    4  N2  UNL     1      20.868 -18.589  44.475  1.00  0.00    -0.353 N 
HETATM    5  C3  UNL     1      20.160 -17.536  44.038  1.00  0.00     0.092 C 
ATOM      6  H2  UNL     1      21.630 -18.366  45.116  1.00  0.00     0.166 HD
HETATM    7  C2  UNL     1      18.890 -17.553  43.453  1.00  0.00     0.046 C 
HETATM    8  C1  UNL     1      18.093 -18.641  43.162  1.00  0.00     0.027 C 
HETATM    9  C16 UNL     1      18.327 -19.956  43.514  1.00  0.00     0.033 C 
HETATM   10  C15 UNL     1      19.519 -20.566  43.923  1.00  0.00     0.050 C 
BRANCH   8  11
HETATM   11  N1  UNL     1      17.044 -18.358  42.498  1.00  0.00    -0.399 N 
ATOM     12  H12 UNL     1      16.132 -18.506  42.931  1.00  0.00     0.156 HD
ATOM     13  H11 UNL     1      17.225 -18.000  41.560  1.00  0.00     0.156 HD
ENDBRANCH   8  11
ENDBRANCH   1   3
BRANCH   1  14
HETATM   14  C5  UNL     1      21.917 -21.843  43.405  1.00  0.00     0.123 C 
BRANCH  14  15
HETATM   15  C6  UNL     1      22.241 -21.628  41.960  1.00  0.00     0.040 C 
BRANCH  15  16
HETATM   16  C7  UNL     1      21.118 -22.019  41.036  1.00  0.00     0.129 C 
BRANCH  16  17
HETATM   17  N4  UNL     1      20.497 -20.832  40.481  1.00  0.00    -0.366 N 
HETATM   18  C8  UNL     1      21.120 -19.626  40.530  1.00  0.00     0.090 A 
HETATM   19  C9  UNL     1      20.541 -18.500  40.007  1.00  0.00     0.018 A 
HETATM   20  C10 UNL     1      19.304 -18.582  39.419  1.00  0.00     0.010 A 
HETATM   21  C11 UNL     1      18.649 -19.793  39.355  1.00  0.00    -0.041 A 
HETATM   22  C14 UNL     1      19.273 -20.895  39.895  1.00  0.00     0.097 A 
BRANCH  21  23
HETATM   23  C12 UNL     1      17.317 -19.822  38.709  1.00  0.00     0.066 C 
BRANCH  23  24
HETATM   24  C13 UNL     1      16.612 -18.483  38.824  1.00  0.00     0.168 C 
BRANCH  24  25
HETATM   25  O1  UNL     1      15.619 -18.581  39.794  1.00  0.00    -0.401 OA
ATOM     26  H1  UNL     1      15.279 -17.713  39.973  1.00  0.00     0.209 HD
ENDBRANCH  24  25
ENDBRANCH  23  24
ENDBRANCH  21  23
ENDBRANCH  16  17
ENDBRANCH  15  16
ENDBRANCH  14  15
ENDBRANCH   1  14
TORSDOF 9
ENDMDL
MODEL 5
REMARK VINA RESULT: -6.224851102      2.139      3.859
REMARK  9 active torsions:
REMARK  status: ('A' for Active; 'I' for Inactive)
REMARK    1  A    between atoms: N1_1  and  C1_4 
REMARK    2  A    between atoms: C4_9  and  N3_10 
REMARK    3  A    between atoms: N3_10  and  C5_12 
REMARK    4  A    between atoms: C5_12  and  C6_13 
REMARK    5  A    between atoms: C6_13  and  C7_14 
REMARK    6  A    between atoms: C7_14  and  N4_15 
REMARK    7  A    between atoms: C11_19  and  C12_20 
REMARK    8  A    between atoms: C12_20  and  C13_21 
REMARK    9  A    between atoms: C13_21  and  O1_22 
ROOT
HETATM    1  N3  UNL     1      17.234 -17.141  40.288  1.00  0.00    -0.376 N 
ATOM      2  H3  UNL     1      17.899 -16.447  40.628  1.00  0.00     0.161 HD
ENDROOT
BRANCH   1   3
HETATM    3  C4  UNL     1      16.543 -17.745  41.166  1.00  0.00     0.100 C 
HETATM    4  N2  UNL     1      15.226 -17.458  41.266  1.00  0.00    -0.353 N 
HETATM    5  C3  UNL     1      14.204 -18.256  41.611  1.00  0.00     0.092 C 
ATOM      6  H2  UNL     1      14.972 -16.494  41.047  1.00  0.00     0.166 HD
HETATM    7  C2  UNL     1      14.275 -19.483  42.278  1.00  0.00     0.046 C 
HETATM    8  C1  UNL     1      15.396 -20.166  42.702  1.00  0.00     0.027 C 
HETATM    9  C16 UNL     1      16.701 -19.713  42.677  1.00  0.00     0.033 C 
HETATM   10  C15 UNL     1      17.259 -18.659  41.943  1.00  0.00     0.050 C 
BRANCH   8  11
HETATM   11  N1  UNL     1      15.158 -21.332  43.157  1.00  0.00    -0.399 N 
ATOM     12  H12 UNL     1      15.205 -22.128  42.520  1.00  0.00     0.156 HD
ATOM     13  H11 UNL     1      14.934 -21.357  44.152  1.00  0.00     0.156 HD
ENDBRANCH   8  11
ENDBRANCH   1   3
BRANCH   1  14
HETATM   14  C5  UNL     1      17.179 -17.332  38.875  1.00  0.00     0.123 C 
BRANCH  14  15
HETATM   15  C6  UNL     1      18.420 -17.930  38.291  1.00  0.00     0.040 C 
BRANCH  15  16
HETATM   16  C7  UNL     1      18.260 -19.380  37.917  1.00  0.00     0.129 C 
BRANCH  16  17
HETATM   17  N4  UNL     1      18.653 -20.225  39.029  1.00  0.00    -0.366 N 
HETATM   18  C8  UNL     1      17.917 -21.311  39.378  1.00  0.00     0.090 A 
HETATM   19  C9  UNL     1      18.282 -22.115  40.427  1.00  0.00     0.018 A 
HETATM   20  C10 UNL     1      19.413 -21.821  41.147  1.00  0.00     0.010 A 
HETATM   21  C11 UNL     1      20.178 -20.724  40.814  1.00  0.00    -0.041 A 
HETATM   22  C14 UNL     1      19.769 -19.949  39.751  1.00  0.00     0.097 A 
BRANCH  21  23
HETATM   23  C12 UNL     1      21.387 -20.457  41.625  1.00  0.00     0.066 C 
BRANCH  23  24
HETATM   24  C13 UNL     1      21.045 -20.262  43.090  1.00  0.00     0.168 C 
BRANCH  24  25
HETATM   25  O1  UNL     1      22.209 -19.945  43.784  1.00  0.00    -0.401 OA
ATOM     26  H1  UNL     1      22.225 -20.438  44.596  1.00  0.00     0.209 HD
ENDBRANCH  24  25
ENDBRANCH  23  24
ENDBRANCH  21  23
ENDBRANCH  16  17
ENDBRANCH  15  16
ENDBRANCH  14  15
ENDBRANCH   1  14
TORSDOF 9
ENDMDL
