MODEL 1
REMARK VINA RESULT: -7.263498794      0.000      0.000
REMARK  6 active torsions:
REMARK  status: ('A' for Active; 'I' for Inactive)
REMARK    1  A    between atoms: N2_7  and  C3_8 
REMARK    2  A    between atoms: C3_8  and  C4_9 
REMARK    3  A    between atoms: C4_9  and  C5_10 
REMARK    4  A    between atoms: C5_10  and  C6_11 
REMARK    5  A    between atoms: C6_11  and  C7_12 
REMARK    6  A    between atoms: C7_12  and  C8_13 
ROOT
HETATM    1  O1  UNL     1      14.847 -18.378  41.192  1.00  0.00    -0.246 OA
HETATM    2  C1  UNL     1      15.894 -18.815  41.771  1.00  0.00     0.332 A 
HETATM    3  N1  UNL     1      16.165 -20.115  41.767  1.00  0.00    -0.260 N 
ATOM      4  H1  UNL     1      15.538 -20.772  41.300  1.00  0.00     0.175 HD
HETATM    5  C2  UNL     1      17.279 -20.557  42.388  1.00  0.00     0.334 A 
HETATM    6  O2  UNL     1      17.492 -21.798  42.355  1.00  0.00    -0.246 OA
HETATM    7  N2  UNL     1      18.129 -19.730  43.014  1.00  0.00    -0.251 N 
HETATM    8  C14 UNL     1      17.865 -18.416  43.025  1.00  0.00     0.334 A 
HETATM    9  O3  UNL     1      18.612 -17.575  43.592  1.00  0.00    -0.246 OA
HETATM   10  N3  UNL     1      16.744 -17.974  42.402  1.00  0.00    -0.260 N 
ATOM     11  H3  UNL     1      16.537 -16.975  42.408  1.00  0.00     0.175 HD
ENDROOT
BRANCH   7  12
HETATM   12  C3  UNL     1      19.300 -20.275  43.657  1.00  0.00     0.139 C 
BRANCH  12  13
HETATM   13  C4  UNL     1      20.558 -20.030  42.905  1.00  0.00     0.020 C 
BRANCH  13  14
HETATM   14  C5  UNL     1      20.964 -21.258  42.147  1.00  0.00     0.002 C 
BRANCH  14  15
HETATM   15  C6  UNL     1      20.941 -21.046  40.657  1.00  0.00     0.005 C 
BRANCH  15  16
HETATM   16  C7  UNL     1      20.733 -19.563  40.346  1.00  0.00     0.038 C 
BRANCH  16  17
HETATM   17  C8  UNL     1      19.604 -19.393  39.415  1.00  0.00    -0.058 A 
HETATM   18  C9  UNL     1      19.437 -18.213  38.722  1.00  0.00     0.007 A 
HETATM   19  C10 UNL     1      18.387 -18.031  37.846  1.00  0.00     0.001 A 
HETATM   20  C11 UNL     1      17.494 -19.050  37.664  1.00  0.00     0.000 A 
HETATM   21  C12 UNL     1      17.625 -20.261  38.345  1.00  0.00     0.001 A 
HETATM   22  C13 UNL     1      18.681 -20.414  39.213  1.00  0.00     0.007 A 
ENDBRANCH  16  17
ENDBRANCH  15  16
ENDBRANCH  14  15
ENDBRANCH  13  14
ENDBRANCH  12  13
ENDBRANCH   7  12
TORSDOF 6
ENDMDL
MODEL 2
REMARK VINA RESULT: -7.242159293      0.090      1.074
REMARK  6 active torsions:
REMARK  status: ('A' for Active; 'I' for Inactive)
REMARK    1  A    between atoms: N2_7  and  C3_8 
REMARK    2  A    between atoms: C3_8  and  C4_9 
REMARK    3  A    between atoms: C4_9  and  C5_10 
REMARK    4  A    between atoms: C5_10  and  C6_11 
REMARK    5  A    between atoms: C6_11  and  C7_12 
REMARK    6  A    between atoms: C7_12  and  C8_13 
ROOT
HETATM    1  O1  UNL     1      14.928 -18.263  41.192  1.00  0.00    -0.246 OA
HETATM    2  C1  UNL     1      15.955 -18.736  41.778  1.00  0.00     0.332 A 
HETATM    3  N1  UNL     1      16.182 -20.045  41.774  1.00  0.00    -0.260 N 
ATOM      4  H1  UNL     1      15.537 -20.680  41.302  1.00  0.00     0.175 HD
HETATM    5  C2  UNL     1      17.277 -20.525  42.401  1.00  0.00     0.334 A 
HETATM    6  O2  UNL     1      17.448 -21.773  42.368  1.00  0.00    -0.246 OA
HETATM    7  N2  UNL     1      18.150 -19.728  43.033  1.00  0.00    -0.251 N 
HETATM    8  C14 UNL     1      17.931 -18.405  43.044  1.00  0.00     0.334 A 
HETATM    9  O3  UNL     1      18.703 -17.591  43.616  1.00  0.00    -0.246 OA
HETATM   10  N3  UNL     1      16.830 -17.925  42.414  1.00  0.00    -0.260 N 
ATOM     11  H3  UNL     1      16.657 -16.920  42.420  1.00  0.00     0.175 HD
ENDROOT
BRANCH   7  12
HETATM   12  C3  UNL     1      19.299 -20.313  43.683  1.00  0.00     0.139 C 
BRANCH  12  13
HETATM   13  C4  UNL     1      20.572 -20.092  42.950  1.00  0.00     0.020 C 
BRANCH  13  14
HETATM   14  C5  UNL     1      20.915 -21.292  42.121  1.00  0.00     0.002 C 
BRANCH  14  15
HETATM   15  C6  UNL     1      20.960 -20.979  40.649  1.00  0.00     0.005 C 
BRANCH  15  16
HETATM   16  C7  UNL     1      20.630 -19.503  40.421  1.00  0.00     0.038 C 
BRANCH  16  17
HETATM   17  C8  UNL     1      19.556 -19.371  39.422  1.00  0.00    -0.058 A 
HETATM   18  C9  UNL     1      18.640 -20.384  39.236  1.00  0.00     0.007 A 
HETATM   19  C10 UNL     1      17.627 -20.283  38.306  1.00  0.00     0.001 A 
HETATM   20  C11 UNL     1      17.533 -19.145  37.553  1.00  0.00     0.000 A 
HETATM   21  C12 UNL     1      18.439 -18.095  37.707  1.00  0.00     0.001 A 
HETATM   22  C13 UNL     1      19.439 -18.224  38.642  1.00  0.00     0.007 A 
ENDBRANCH  16  17
ENDBRANCH  15  16
ENDBRANCH  14  15
ENDBRANCH  13  14
ENDBRANCH  12  13
ENDBRANCH   7  12
TORSDOF 6
ENDMDL
MODEL 3
REMARK VINA RESULT: -7.125336823      0.589      1.849
REMARK  6 active torsions:
REMARK  status: ('A' for Active; 'I' for Inactive)
REMARK    1  A    between atoms: N2_7  and  C3_8 
REMARK    2  A    between atoms: C3_8  and  C4_9 
REMARK    3  A    between atoms: C4_9  and  C5_10 
REMARK    4  A    between atoms: C5_10  and  C6_11 
REMARK    5  A    between atoms: C6_11  and  C7_12 
REMARK    6  A    between atoms: C7_12  and  C8_13 
ROOT
HETATM    1  O1  UNL     1      14.602 -18.229  41.151  1.00  0.00    -0.246 OA
HETATM    2  C1  UNL     1      15.582 -18.770  41.758  1.00  0.00     0.332 A 
HETATM    3  N1  UNL     1      16.590 -18.024  42.196  1.00  0.00    -0.260 N 
ATOM      4  H1  UNL     1      16.587 -17.014  42.050  1.00  0.00     0.175 HD
HETATM    5  C2  UNL     1      17.619 -18.619  42.837  1.00  0.00     0.334 A 
HETATM    6  O2  UNL     1      18.549 -17.868  43.234  1.00  0.00    -0.246 OA
HETATM    7  N2  UNL     1      17.664 -19.942  43.049  1.00  0.00    -0.251 N 
HETATM    8  C14 UNL     1      16.653 -20.705  42.611  1.00  0.00     0.334 A 
HETATM    9  O3  UNL     1      16.621 -21.954  42.771  1.00  0.00    -0.246 OA
HETATM   10  N3  UNL     1      15.620 -20.105  41.967  1.00  0.00    -0.260 N 
ATOM     11  H3  UNL     1      14.848 -20.680  41.630  1.00  0.00     0.175 HD
ENDROOT
BRANCH   7  12
HETATM   12  C3  UNL     1      18.798 -20.508  43.742  1.00  0.00     0.139 C 
BRANCH  12  13
HETATM   13  C4  UNL     1      19.718 -21.265  42.854  1.00  0.00     0.020 C 
BRANCH  13  14
HETATM   14  C5  UNL     1      20.890 -20.415  42.466  1.00  0.00     0.002 C 
BRANCH  14  15
HETATM   15  C6  UNL     1      21.043 -20.296  40.973  1.00  0.00     0.005 C 
BRANCH  15  16
HETATM   16  C7  UNL     1      20.580 -18.913  40.512  1.00  0.00     0.038 C 
BRANCH  16  17
HETATM   17  C8  UNL     1      19.513 -19.045  39.505  1.00  0.00    -0.058 A 
HETATM   18  C9  UNL     1      19.355 -18.093  38.521  1.00  0.00     0.007 A 
HETATM   19  C10 UNL     1      18.362 -18.195  37.568  1.00  0.00     0.001 A 
HETATM   20  C11 UNL     1      17.517 -19.270  37.607  1.00  0.00     0.000 A 
HETATM   21  C12 UNL     1      17.641 -20.256  38.586  1.00  0.00     0.001 A 
HETATM   22  C13 UNL     1      18.640 -20.128  39.523  1.00  0.00     0.007 A 
ENDBRANCH  16  17
ENDBRANCH  15  16
ENDBRANCH  14  15
ENDBRANCH  13  14
ENDBRANCH  12  13
ENDBRANCH   7  12
TORSDOF 6
ENDMDL
MODEL 4
REMARK VINA RESULT: -7.122372402      1.831      3.023
REMARK  6 active torsions:
REMARK  status: ('A' for Active; 'I' for Inactive)
REMARK    1  A    between atoms: N2_7  and  C3_8 
REMARK    2  A    between atoms: C3_8  and  C4_9 
REMARK    3  A    between atoms: C4_9  and  C5_10 
REMARK    4  A    between atoms: C5_10  and  C6_11 
REMARK    5  A    between atoms: C6_11  and  C7_12 
REMARK    6  A    between atoms: C7_12  and  C8_13 
ROOT
HETATM    1  O1  UNL     1      19.572 -16.571  44.071  1.00  0.00    -0.246 OA
HETATM    2  C1  UNL     1      19.730 -17.822  43.895  1.00  0.00     0.332 A 
HETATM    3  N1  UNL     1      20.912 -18.384  44.126  1.00  0.00    -0.260 N 
ATOM      4  H1  UNL     1      21.699 -17.818  44.445  1.00  0.00     0.175 HD
HETATM    5  C2  UNL     1      21.058 -19.713  43.933  1.00  0.00     0.334 A 
HETATM    6  O2  UNL     1      22.197 -20.197  44.167  1.00  0.00    -0.246 OA
HETATM    7  N2  UNL     1      20.051 -20.492  43.514  1.00  0.00    -0.251 N 
HETATM    8  C14 UNL     1      18.854 -19.936  43.277  1.00  0.00     0.334 A 
HETATM    9  O3  UNL     1      17.860 -20.600  42.881  1.00  0.00    -0.246 OA
HETATM   10  N3  UNL     1      18.710 -18.602  43.471  1.00  0.00    -0.260 N 
ATOM     11  H3  UNL     1      17.802 -18.172  43.291  1.00  0.00     0.175 HD
ENDROOT
BRANCH   7  12
HETATM   12  C3  UNL     1      20.282 -21.905  43.329  1.00  0.00     0.139 C 
BRANCH  12  13
HETATM   13  C4  UNL     1      20.211 -22.337  41.909  1.00  0.00     0.020 C 
BRANCH  13  14
HETATM   14  C5  UNL     1      21.317 -21.712  41.115  1.00  0.00     0.002 C 
BRANCH  14  15
HETATM   15  C6  UNL     1      20.807 -20.955  39.918  1.00  0.00     0.005 C 
BRANCH  15  16
HETATM   16  C7  UNL     1      19.305 -21.192  39.754  1.00  0.00     0.038 C 
BRANCH  16  17
HETATM   17  C8  UNL     1      18.637 -19.950  39.329  1.00  0.00    -0.058 A 
HETATM   18  C9  UNL     1      19.373 -18.881  38.863  1.00  0.00     0.007 A 
HETATM   19  C10 UNL     1      18.770 -17.708  38.460  1.00  0.00     0.001 A 
HETATM   20  C11 UNL     1      17.407 -17.609  38.526  1.00  0.00     0.000 A 
HETATM   21  C12 UNL     1      16.624 -18.666  38.992  1.00  0.00     0.001 A 
HETATM   22  C13 UNL     1      17.253 -19.824  39.387  1.00  0.00     0.007 A 
ENDBRANCH  16  17
ENDBRANCH  15  16
ENDBRANCH  14  15
ENDBRANCH  13  14
ENDBRANCH  12  13
ENDBRANCH   7  12
TORSDOF 6
ENDMDL
MODEL 5
REMARK VINA RESULT: -7.113916660      0.589      2.130
REMARK  6 active torsions:
REMARK  status: ('A' for Active; 'I' for Inactive)
REMARK    1  A    between atoms: N2_7  and  C3_8 
REMARK    2  A    between atoms: C3_8  and  C4_9 
REMARK    3  A    between atoms: C4_9  and  C5_10 
REMARK    4  A    between atoms: C5_10  and  C6_11 
REMARK    5  A    between atoms: C6_11  and  C7_12 
REMARK    6  A    between atoms: C7_12  and  C8_13 
ROOT
HETATM    1  O1  UNL     1      14.602 -18.232  41.153  1.00  0.00    -0.246 OA
HETATM    2  C1  UNL     1      15.584 -18.773  41.759  1.00  0.00     0.332 A 
HETATM    3  N1  UNL     1      16.590 -18.025  42.199  1.00  0.00    -0.260 N 
ATOM      4  H1  UNL     1      16.584 -17.015  42.055  1.00  0.00     0.175 HD
HETATM    5  C2  UNL     1      17.620 -18.620  42.838  1.00  0.00     0.334 A 
HETATM    6  O2  UNL     1      18.549 -17.868  43.237  1.00  0.00    -0.246 OA
HETATM    7  N2  UNL     1      17.669 -19.943  43.047  1.00  0.00    -0.251 N 
HETATM    8  C14 UNL     1      16.659 -20.707  42.607  1.00  0.00     0.334 A 
HETATM    9  O3  UNL     1      16.631 -21.957  42.764  1.00  0.00    -0.246 OA
HETATM   10  N3  UNL     1      15.625 -20.109  41.965  1.00  0.00    -0.260 N 
ATOM     11  H3  UNL     1      14.855 -20.685  41.626  1.00  0.00     0.175 HD
ENDROOT
BRANCH   7  12
HETATM   12  C3  UNL     1      18.804 -20.508  43.738  1.00  0.00     0.139 C 
BRANCH  12  13
HETATM   13  C4  UNL     1      19.722 -21.267  42.849  1.00  0.00     0.020 C 
BRANCH  13  14
HETATM   14  C5  UNL     1      20.894 -20.418  42.459  1.00  0.00     0.002 C 
BRANCH  14  15
HETATM   15  C6  UNL     1      21.040 -20.295  40.966  1.00  0.00     0.005 C 
BRANCH  15  16
HETATM   16  C7  UNL     1      20.572 -18.912  40.510  1.00  0.00     0.038 C 
BRANCH  16  17
HETATM   17  C8  UNL     1      19.504 -19.043  39.504  1.00  0.00    -0.058 A 
HETATM   18  C9  UNL     1      18.645 -20.120  39.528  1.00  0.00     0.007 A 
HETATM   19  C10 UNL     1      17.638 -20.265  38.597  1.00  0.00     0.001 A 
HETATM   20  C11 UNL     1      17.493 -19.311  37.627  1.00  0.00     0.000 A 
HETATM   21  C12 UNL     1      18.341 -18.204  37.565  1.00  0.00     0.001 A 
HETATM   22  C13 UNL     1      19.336 -18.087  38.507  1.00  0.00     0.007 A 
ENDBRANCH  16  17
ENDBRANCH  15  16
ENDBRANCH  14  15
ENDBRANCH  13  14
ENDBRANCH  12  13
ENDBRANCH   7  12
TORSDOF 6
ENDMDL
