MODEL 1
REMARK VINA RESULT: -6.485767775      0.000      0.000
REMARK  9 active torsions:
REMARK  status: ('A' for Active; 'I' for Inactive)
REMARK    1  A    between atoms: N1_2  and  C2_4 
REMARK    2  A    between atoms: C5_9  and  N3_10 
REMARK    3  A    between atoms: N3_10  and  C6_12 
REMARK    4  A    between atoms: C6_12  and  C7_13 
REMARK    5  A    between atoms: C7_13  and  C8_14 
REMARK    6  A    between atoms: C8_14  and  C9_15 
REMARK    7  A    between atoms: N4_19  and  C13_20 
REMARK    8  A    between atoms: C13_20  and  C14_21 
REMARK    9  A    between atoms: C14_21  and  O1_22 
ROOT
HETATM    1  N3  UNL     1      16.559 -18.267  39.191  1.00  0.00    -0.376 N 
ATOM      2  H3  UNL     1      15.665 -18.378  38.711  1.00  0.00     0.161 HD
ENDROOT
BRANCH   1   3
HETATM    3  C5  UNL     1      16.717 -18.858  40.325  1.00  0.00     0.118 A 
HETATM    4  C4  UNL     1      16.614 -18.214  41.542  1.00  0.00     0.066 A 
HETATM    5  C3  UNL     1      16.803 -18.948  42.686  1.00  0.00     0.110 A 
HETATM    6  N2  UNL     1      17.081 -20.251  42.628  1.00  0.00    -0.202 N 
HETATM    7  C2  UNL     1      17.185 -20.888  41.458  1.00  0.00     0.679 A 
ATOM      8  H2  UNL     1      17.217 -20.772  43.495  1.00  0.00     0.183 HD
HETATM    9  N5  UNL     1      16.999 -20.170  40.331  1.00  0.00    -0.177 N 
ATOM     10  H5  UNL     1      17.077 -20.651  39.435  1.00  0.00     0.185 HD
BRANCH   7  11
HETATM   11  N1  UNL     1      17.448 -22.128  41.363  1.00  0.00    -0.230 N 
HETATM   12  C1  UNL     1      17.735 -22.981  42.483  1.00  0.00     0.165 C 
ATOM     13  H1  UNL     1      17.455 -22.544  40.432  1.00  0.00     0.177 HD
ENDBRANCH   7  11
ENDBRANCH   1   3
BRANCH   1  14
HETATM   14  C6  UNL     1      17.579 -17.456  38.559  1.00  0.00     0.121 C 
BRANCH  14  15
HETATM   15  C7  UNL     1      18.775 -18.292  38.148  1.00  0.00     0.024 C 
BRANCH  15  16
HETATM   16  C8  UNL     1      19.983 -18.013  38.972  1.00  0.00     0.041 C 
BRANCH  16  17
HETATM   17  C9  UNL     1      20.289 -19.025  39.984  1.00  0.00    -0.043 A 
HETATM   18  C10 UNL     1      20.603 -20.302  39.557  1.00  0.00     0.010 A 
HETATM   19  C11 UNL     1      20.904 -21.309  40.473  1.00  0.00     0.018 A 
HETATM   20  C12 UNL     1      20.878 -20.982  41.833  1.00  0.00     0.090 A 
HETATM   21  N4  UNL     1      20.575 -19.744  42.245  1.00  0.00    -0.364 N 
HETATM   22  C15 UNL     1      20.288 -18.794  41.346  1.00  0.00     0.097 A 
BRANCH  21  23
HETATM   23  C13 UNL     1      20.559 -19.452  43.655  1.00  0.00     0.153 C 
BRANCH  23  24
HETATM   24  C14 UNL     1      20.158 -18.029  43.955  1.00  0.00     0.184 C 
BRANCH  24  25
HETATM   25  O1  UNL     1      20.899 -17.464  44.983  1.00  0.00    -0.399 OA
ATOM     26  H1  UNL     1      21.464 -16.760  44.688  1.00  0.00     0.209 HD
ENDBRANCH  24  25
ENDBRANCH  23  24
ENDBRANCH  21  23
ENDBRANCH  16  17
ENDBRANCH  15  16
ENDBRANCH  14  15
ENDBRANCH   1  14
TORSDOF 9
ENDMDL
MODEL 2
REMARK VINA RESULT: -6.343853625      1.917      4.040
REMARK  9 active torsions:
REMARK  status: ('A' for Active; 'I' for Inactive)
REMARK    1  A    between atoms: N1_2  and  C2_4 
REMARK    2  A    between atoms: C5_9  and  N3_10 
REMARK    3  A    between atoms: N3_10  and  C6_12 
REMARK    4  A    between atoms: C6_12  and  C7_13 
REMARK    5  A    between atoms: C7_13  and  C8_14 
REMARK    6  A    between atoms: C8_14  and  C9_15 
REMARK    7  A    between atoms: N4_19  and  C13_20 
REMARK    8  A    between atoms: C13_20  and  C14_21 
REMARK    9  A    between atoms: C14_21  and  O1_22 
ROOT
HETATM    1  N3  UNL     1      20.221 -17.928  39.489  1.00  0.00    -0.376 N 
ATOM      2  H3  UNL     1      20.560 -16.972  39.601  1.00  0.00     0.161 HD
ENDROOT
BRANCH   1   3
HETATM    3  C5  UNL     1      20.574 -18.805  40.364  1.00  0.00     0.118 A 
HETATM    4  C4  UNL     1      20.965 -20.089  40.043  1.00  0.00     0.066 A 
HETATM    5  C3  UNL     1      21.321 -20.937  41.062  1.00  0.00     0.110 A 
HETATM    6  N2  UNL     1      21.290 -20.535  42.333  1.00  0.00    -0.202 N 
HETATM    7  C2  UNL     1      20.913 -19.295  42.660  1.00  0.00     0.679 A 
ATOM      8  H2  UNL     1      21.560 -21.186  43.069  1.00  0.00     0.183 HD
HETATM    9  N5  UNL     1      20.563 -18.458  41.661  1.00  0.00    -0.177 N 
ATOM     10  H5  UNL     1      20.275 -17.511  41.904  1.00  0.00     0.185 HD
BRANCH   7  11
HETATM   11  N1  UNL     1      20.871 -18.875  43.859  1.00  0.00    -0.230 N 
HETATM   12  C1  UNL     1      20.275 -17.630  44.257  1.00  0.00     0.165 C 
ATOM     13  H1  UNL     1      21.288 -19.459  44.584  1.00  0.00     0.177 HD
ENDBRANCH   7  11
ENDBRANCH   1   3
BRANCH   1  14
HETATM   14  C6  UNL     1      19.369 -18.223  38.356  1.00  0.00     0.121 C 
BRANCH  14  15
HETATM   15  C7  UNL     1      17.916 -17.919  38.663  1.00  0.00     0.024 C 
BRANCH  15  16
HETATM   16  C8  UNL     1      17.075 -19.145  38.739  1.00  0.00     0.041 C 
BRANCH  16  17
HETATM   17  C9  UNL     1      17.316 -19.989  39.910  1.00  0.00    -0.043 A 
HETATM   18  C10 UNL     1      17.735 -21.290  39.703  1.00  0.00     0.010 A 
HETATM   19  C11 UNL     1      17.980 -22.143  40.778  1.00  0.00     0.018 A 
HETATM   20  C12 UNL     1      17.789 -21.636  42.068  1.00  0.00     0.090 A 
HETATM   21  N4  UNL     1      17.383 -20.375  42.267  1.00  0.00    -0.364 N 
HETATM   22  C15 UNL     1      17.153 -19.576  41.218  1.00  0.00     0.097 A 
BRANCH  21  23
HETATM   23  C13 UNL     1      17.198 -19.897  43.613  1.00  0.00     0.153 C 
BRANCH  23  24
HETATM   24  C14 UNL     1      16.220 -20.732  44.402  1.00  0.00     0.184 C 
BRANCH  24  25
HETATM   25  O1  UNL     1      15.715 -20.068  45.511  1.00  0.00    -0.399 OA
ATOM     26  H1  UNL     1      15.096 -19.385  45.283  1.00  0.00     0.209 HD
ENDBRANCH  24  25
ENDBRANCH  23  24
ENDBRANCH  21  23
ENDBRANCH  16  17
ENDBRANCH  15  16
ENDBRANCH  14  15
ENDBRANCH   1  14
TORSDOF 9
ENDMDL
MODEL 3
REMARK VINA RESULT: -6.290783568      2.202      4.491
REMARK  9 active torsions:
REMARK  status: ('A' for Active; 'I' for Inactive)
REMARK    1  A    between atoms: N1_2  and  C2_4 
REMARK    2  A    between atoms: C5_9  and  N3_10 
REMARK    3  A    between atoms: N3_10  and  C6_12 
REMARK    4  A    between atoms: C6_12  and  C7_13 
REMARK    5  A    between atoms: C7_13  and  C8_14 
REMARK    6  A    between atoms: C8_14  and  C9_15 
REMARK    7  A    between atoms: N4_19  and  C13_20 
REMARK    8  A    between atoms: C13_20  and  C14_21 
REMARK    9  A    between atoms: C14_21  and  O1_22 
ROOT
HETATM    1  N3  UNL     1      16.921 -21.464  43.721  1.00  0.00    -0.376 N 
ATOM      2  H3  UNL     1      16.794 -21.593  44.725  1.00  0.00     0.161 HD
ENDROOT
BRANCH   1   3
HETATM    3  C5  UNL     1      17.202 -20.282  43.290  1.00  0.00     0.118 A 
HETATM    4  C4  UNL     1      18.439 -19.688  43.443  1.00  0.00     0.066 A 
HETATM    5  C3  UNL     1      18.622 -18.424  42.942  1.00  0.00     0.110 A 
HETATM    6  N2  UNL     1      17.631 -17.780  42.322  1.00  0.00    -0.202 N 
HETATM    7  C2  UNL     1      16.428 -18.342  42.167  1.00  0.00     0.679 A 
ATOM      8  H2  UNL     1      17.795 -16.842  41.960  1.00  0.00     0.183 HD
HETATM    9  N5  UNL     1      16.245 -19.586  42.658  1.00  0.00    -0.177 N 
ATOM     10  H5  UNL     1      15.330 -20.019  42.542  1.00  0.00     0.185 HD
BRANCH   7  11
HETATM   11  N1  UNL     1      15.461 -17.762  41.582  1.00  0.00    -0.230 N 
HETATM   12  C1  UNL     1      14.108 -18.244  41.589  1.00  0.00     0.165 C 
ATOM     13  H1  UNL     1      15.658 -16.899  41.076  1.00  0.00     0.177 HD
ENDBRANCH   7  11
ENDBRANCH   1   3
BRANCH   1  14
HETATM   14  C6  UNL     1      16.777 -22.619  42.859  1.00  0.00     0.121 C 
BRANCH  14  15
HETATM   15  C7  UNL     1      18.101 -23.014  42.237  1.00  0.00     0.024 C 
BRANCH  15  16
HETATM   16  C8  UNL     1      18.098 -22.897  40.753  1.00  0.00     0.041 C 
BRANCH  16  17
HETATM   17  C9  UNL     1      18.545 -21.605  40.232  1.00  0.00    -0.043 A 
HETATM   18  C10 UNL     1      19.878 -21.268  40.377  1.00  0.00     0.010 A 
HETATM   19  C11 UNL     1      20.364 -20.050  39.902  1.00  0.00     0.018 A 
HETATM   20  C12 UNL     1      19.458 -19.187  39.276  1.00  0.00     0.090 A 
HETATM   21  N4  UNL     1      18.167 -19.515  39.137  1.00  0.00    -0.364 N 
HETATM   22  C15 UNL     1      17.724 -20.690  39.602  1.00  0.00     0.097 A 
BRANCH  21  23
HETATM   23  C13 UNL     1      17.270 -18.595  38.487  1.00  0.00     0.153 C 
BRANCH  23  24
HETATM   24  C14 UNL     1      17.787 -17.177  38.483  1.00  0.00     0.184 C 
BRANCH  24  25
HETATM   25  O1  UNL     1      17.273 -16.412  39.521  1.00  0.00    -0.399 OA
ATOM     26  H1  UNL     1      17.949 -16.044  40.078  1.00  0.00     0.209 HD
ENDBRANCH  24  25
ENDBRANCH  23  24
ENDBRANCH  21  23
ENDBRANCH  16  17
ENDBRANCH  15  16
ENDBRANCH  14  15
ENDBRANCH   1  14
TORSDOF 9
ENDMDL
MODEL 4
REMARK VINA RESULT: -6.217204803      1.772      2.889
REMARK  9 active torsions:
REMARK  status: ('A' for Active; 'I' for Inactive)
REMARK    1  A    between atoms: N1_2  and  C2_4 
REMARK    2  A    between atoms: C5_9  and  N3_10 
REMARK    3  A    between atoms: N3_10  and  C6_12 
REMARK    4  A    between atoms: C6_12  and  C7_13 
REMARK    5  A    between atoms: C7_13  and  C8_14 
REMARK    6  A    between atoms: C8_14  and  C9_15 
REMARK    7  A    between atoms: N4_19  and  C13_20 
REMARK    8  A    between atoms: C13_20  and  C14_21 
REMARK    9  A    between atoms: C14_21  and  O1_22 
ROOT
HETATM    1  N3  UNL     1      15.943 -18.097  40.284  1.00  0.00    -0.376 N 
ATOM      2  H3  UNL     1      15.310 -17.306  40.407  1.00  0.00     0.161 HD
ENDROOT
BRANCH   1   3
HETATM    3  C5  UNL     1      16.527 -18.576  41.328  1.00  0.00     0.118 A 
HETATM    4  C4  UNL     1      16.217 -19.803  41.879  1.00  0.00     0.066 A 
HETATM    5  C3  UNL     1      16.908 -20.210  42.993  1.00  0.00     0.110 A 
HETATM    6  N2  UNL     1      17.856 -19.443  43.533  1.00  0.00    -0.202 N 
HETATM    7  C2  UNL     1      18.167 -18.253  43.011  1.00  0.00     0.679 A 
ATOM      8  H2  UNL     1      18.353 -19.771  44.360  1.00  0.00     0.183 HD
HETATM    9  N5  UNL     1      17.490 -17.849  41.915  1.00  0.00    -0.177 N 
ATOM     10  H5  UNL     1      17.723 -16.942  41.512  1.00  0.00     0.185 HD
BRANCH   7  11
HETATM   11  N1  UNL     1      19.063 -17.493  43.496  1.00  0.00    -0.230 N 
HETATM   12  C1  UNL     1      20.241 -17.964  44.171  1.00  0.00     0.165 C 
ATOM     13  H1  UNL     1      18.938 -16.486  43.399  1.00  0.00     0.177 HD
ENDBRANCH   7  11
ENDBRANCH   1   3
BRANCH   1  14
HETATM   14  C6  UNL     1      16.135 -18.617  38.946  1.00  0.00     0.121 C 
BRANCH  14  15
HETATM   15  C7  UNL     1      17.170 -17.813  38.184  1.00  0.00     0.024 C 
BRANCH  15  16
HETATM   16  C8  UNL     1      18.365 -18.619  37.812  1.00  0.00     0.041 C 
BRANCH  16  17
HETATM   17  C9  UNL     1      19.264 -18.939  38.922  1.00  0.00    -0.043 A 
HETATM   18  C10 UNL     1      20.203 -17.996  39.296  1.00  0.00     0.010 A 
HETATM   19  C11 UNL     1      21.087 -18.243  40.345  1.00  0.00     0.018 A 
HETATM   20  C12 UNL     1      20.990 -19.475  41.002  1.00  0.00     0.090 A 
HETATM   21  N4  UNL     1      20.080 -20.388  40.638  1.00  0.00    -0.364 N 
HETATM   22  C15 UNL     1      19.242 -20.127  39.627  1.00  0.00     0.097 A 
BRANCH  21  23
HETATM   23  C13 UNL     1      20.017 -21.643  41.342  1.00  0.00     0.153 C 
BRANCH  23  24
HETATM   24  C14 UNL     1      20.827 -21.640  42.616  1.00  0.00     0.184 C 
BRANCH  24  25
HETATM   25  O1  UNL     1      20.041 -21.542  43.755  1.00  0.00    -0.399 OA
ATOM     26  H1  UNL     1      20.505 -21.791  44.546  1.00  0.00     0.209 HD
ENDBRANCH  24  25
ENDBRANCH  23  24
ENDBRANCH  21  23
ENDBRANCH  16  17
ENDBRANCH  15  16
ENDBRANCH  14  15
ENDBRANCH   1  14
TORSDOF 9
ENDMDL
MODEL 5
REMARK VINA RESULT: -6.176824213      1.115      1.178
REMARK  9 active torsions:
REMARK  status: ('A' for Active; 'I' for Inactive)
REMARK    1  A    between atoms: N1_2  and  C2_4 
REMARK    2  A    between atoms: C5_9  and  N3_10 
REMARK    3  A    between atoms: N3_10  and  C6_12 
REMARK    4  A    between atoms: C6_12  and  C7_13 
REMARK    5  A    between atoms: C7_13  and  C8_14 
REMARK    6  A    between atoms: C8_14  and  C9_15 
REMARK    7  A    between atoms: N4_19  and  C13_20 
REMARK    8  A    between atoms: C13_20  and  C14_21 
REMARK    9  A    between atoms: C14_21  and  O1_22 
ROOT
HETATM    1  N3  UNL     1      17.091 -17.630  40.164  1.00  0.00    -0.376 N 
ATOM      2  H3  UNL     1      17.680 -16.940  40.630  1.00  0.00     0.161 HD
ENDROOT
BRANCH   1   3
HETATM    3  C5  UNL     1      16.262 -18.306  40.883  1.00  0.00     0.118 A 
HETATM    4  C4  UNL     1      14.974 -17.892  41.155  1.00  0.00     0.066 A 
HETATM    5  C3  UNL     1      14.180 -18.697  41.933  1.00  0.00     0.110 A 
HETATM    6  N2  UNL     1      14.639 -19.852  42.418  1.00  0.00    -0.202 N 
HETATM    7  C2  UNL     1      15.884 -20.266  42.164  1.00  0.00     0.679 A 
ATOM      8  H2  UNL     1      14.027 -20.430  42.993  1.00  0.00     0.183 HD
HETATM    9  N5  UNL     1      16.667 -19.477  41.398  1.00  0.00    -0.177 N 
ATOM     10  H5  UNL     1      17.618 -19.788  41.201  1.00  0.00     0.185 HD
BRANCH   7  11
HETATM   11  N1  UNL     1      16.356 -21.360  42.607  1.00  0.00    -0.230 N 
HETATM   12  C1  UNL     1      17.635 -21.896  42.234  1.00  0.00     0.165 C 
ATOM     13  H1  UNL     1      15.791 -21.890  43.269  1.00  0.00     0.177 HD
ENDBRANCH   7  11
ENDBRANCH   1   3
BRANCH   1  14
HETATM   14  C6  UNL     1      17.233 -17.796  38.733  1.00  0.00     0.121 C 
BRANCH  14  15
HETATM   15  C7  UNL     1      18.410 -18.690  38.394  1.00  0.00     0.024 C 
BRANCH  15  16
HETATM   16  C8  UNL     1      19.666 -18.272  39.076  1.00  0.00     0.041 C 
BRANCH  16  17
HETATM   17  C9  UNL     1      20.175 -19.217  40.071  1.00  0.00    -0.043 A 
HETATM   18  C10 UNL     1      20.634 -20.444  39.631  1.00  0.00     0.010 A 
HETATM   19  C11 UNL     1      21.130 -21.387  40.531  1.00  0.00     0.018 A 
HETATM   20  C12 UNL     1      21.147 -21.047  41.888  1.00  0.00     0.090 A 
HETATM   21  N4  UNL     1      20.703 -19.856  42.312  1.00  0.00    -0.364 N 
HETATM   22  C15 UNL     1      20.230 -18.968  41.429  1.00  0.00     0.097 A 
BRANCH  21  23
HETATM   23  C13 UNL     1      20.739 -19.549  43.719  1.00  0.00     0.153 C 
BRANCH  23  24
HETATM   24  C14 UNL     1      20.103 -18.220  44.044  1.00  0.00     0.184 C 
BRANCH  24  25
HETATM   25  O1  UNL     1      20.868 -17.454  44.912  1.00  0.00    -0.399 OA
ATOM     26  H1  UNL     1      21.420 -17.979  45.479  1.00  0.00     0.209 HD
ENDBRANCH  24  25
ENDBRANCH  23  24
ENDBRANCH  21  23
ENDBRANCH  16  17
ENDBRANCH  15  16
ENDBRANCH  14  15
ENDBRANCH   1  14
TORSDOF 9
ENDMDL
