MODEL 1
REMARK VINA RESULT: -7.365320906      0.000      0.000
REMARK  16 active torsions:
REMARK  status: ('A' for Active; 'I' for Inactive)
REMARK    1  A    between atoms: C2_2  and  C3_3 
REMARK    2  A    between atoms: C2_2  and  C4_6 
REMARK    3  A    between atoms: C2_2  and  O3_9 
REMARK    4  A    between atoms: C3_3  and  O1_4 
REMARK    5  A    between atoms: C4_6  and  O2_7 
REMARK    6  A    between atoms: O3_9  and  C5_10 
REMARK    7  A    between atoms: C5_10  and  N1_11 
REMARK    8  A    between atoms: C6_16  and  C7_17 
REMARK    9  A    between atoms: C7_17  and  N4_18 
REMARK   10  A    between atoms: C7_17  and  C8_21 
REMARK   11  A    between atoms: C9_24  and  N6_25 
REMARK   12  A    between atoms: C11_36  and  N10_37 
REMARK   13  A    between atoms: N10_37  and  C12_39 
REMARK   14  A    between atoms: C12_39  and  C13_40 
REMARK   15  A    between atoms: C13_40  and  N12_44 
REMARK   16  A    between atoms: C17_48  and  O5_49 
ROOT
HETATM    1  N4  UNL     1     -18.931  35.798  -4.865  1.00  0.00    -0.277 NA
HETATM    2  O4  UNL     1     -18.188  35.488  -3.944  1.00  0.00    -0.218 OA
ATOM      3  H4  UNL     1     -17.612  35.249  -3.227  1.00  0.00     0.261 HD
ENDROOT
BRANCH   1   4
HETATM    4  C7  UNL     1     -19.678  36.108  -5.794  1.00  0.00     0.216 C 
BRANCH   4   5
HETATM    5  C6  UNL     1     -19.880  35.216  -6.951  1.00  0.00     0.142 A 
HETATM    6  N3  UNL     1     -20.939  34.923  -7.675  1.00  0.00    -0.279 N 
HETATM    7  N2  UNL     1     -20.664  34.103  -8.643  1.00  0.00    -0.236 N 
ATOM      8  H3  UNL     1     -21.870  35.298  -7.495  1.00  0.00     0.189 HD
HETATM    9  N1  UNL     1     -19.352  33.819  -8.580  1.00  0.00    -0.236 N 
ATOM     10  H2  UNL     1     -21.325  33.740  -9.329  1.00  0.00     0.208 HD
HETATM   11  C11 UNL     1     -18.819  34.479  -7.551  1.00  0.00     0.154 A 
BRANCH   9  12
HETATM   12  C5  UNL     1     -18.726  32.925  -9.559  1.00  0.00     0.321 C 
BRANCH  12  13
HETATM   13  O3  UNL     1     -17.536  33.514  -9.984  1.00  0.00    -0.355 OA
BRANCH  13  14
HETATM   14  C2  UNL     1     -17.644  34.051 -11.238  1.00  0.00     0.101 C 
HETATM   15  C1  UNL     1     -18.980  33.721 -11.893  1.00  0.00     0.051 C 
BRANCH  14  16
HETATM   16  C3  UNL     1     -16.556  33.681 -12.196  1.00  0.00     0.204 C 
BRANCH  16  17
HETATM   17  O1  UNL     1     -15.354  34.190 -11.674  1.00  0.00    -0.398 OA
ATOM     18  H1  UNL     1     -14.855  34.537 -12.404  1.00  0.00     0.209 HD
ENDBRANCH  16  17
ENDBRANCH  14  16
BRANCH  14  19
HETATM   19  C4  UNL     1     -17.592  35.577 -11.058  1.00  0.00     0.204 C 
BRANCH  19  20
HETATM   20  O2  UNL     1     -16.809  35.873  -9.948  1.00  0.00    -0.398 OA
ATOM     21  H2  UNL     1     -16.103  36.450 -10.214  1.00  0.00     0.209 HD
ENDBRANCH  19  20
ENDBRANCH  14  19
ENDBRANCH  13  14
ENDBRANCH  12  13
ENDBRANCH   9  12
BRANCH  11  22
HETATM   22  N10 UNL     1     -17.633  34.501  -7.115  1.00  0.00    -0.366 N 
ATOM     23  H10 UNL     1     -17.328  35.412  -6.772  1.00  0.00     0.161 HD
BRANCH  22  24
HETATM   24  C12 UNL     1     -16.653  33.480  -7.019  1.00  0.00     0.197 C 
BRANCH  24  25
HETATM   25  C13 UNL     1     -16.452  33.073  -5.601  1.00  0.00     0.101 C 
HETATM   26  N11 UNL     1     -17.446  32.923  -4.807  1.00  0.00    -0.387 N 
ATOM     27 2H11 UNL     1     -18.394  33.084  -5.148  1.00  0.00     0.157 HD
ATOM     28 1H11 UNL     1     -17.308  32.644  -3.835  1.00  0.00     0.157 HD
BRANCH  25  29
HETATM   29  N12 UNL     1     -15.136  32.850  -5.128  1.00  0.00    -0.291 N 
HETATM   30  C14 UNL     1     -14.502  33.570  -4.157  1.00  0.00     0.101 A 
HETATM   31  C15 UNL     1     -13.245  33.103  -3.928  1.00  0.00     0.022 A 
HETATM   32  C16 UNL     1     -13.067  32.037  -4.789  1.00  0.00     0.058 A 
HETATM   33  C17 UNL     1     -14.234  31.917  -5.497  1.00  0.00     0.147 A 
BRANCH  33  34
HETATM   34  O5  UNL     1     -14.513  30.966  -6.492  1.00  0.00    -0.346 OA
ATOM     35  H5  UNL     1     -13.887  30.753  -7.175  1.00  0.00     0.219 HD
ENDBRANCH  33  34
ENDBRANCH  25  29
ENDBRANCH  24  25
ENDBRANCH  22  24
ENDBRANCH  11  22
ENDBRANCH   4   5
BRANCH   4  36
HETATM   36  C8  UNL     1     -20.351  37.393  -5.704  1.00  0.00     0.182 A 
HETATM   37  N5  UNL     1     -21.589  37.434  -5.093  1.00  0.00    -0.172 N 
HETATM   38  C9  UNL     1     -22.308  38.550  -4.963  1.00  0.00     0.692 A 
ATOM     39  H5  UNL     1     -21.973  36.566  -4.721  1.00  0.00     0.186 HD
HETATM   40  N7  UNL     1     -21.769  39.671  -5.464  1.00  0.00    -0.023 N 
HETATM   41  C10 UNL     1     -20.562  39.660  -6.065  1.00  0.00     0.692 A 
ATOM     42  H7  UNL     1     -22.282  40.549  -5.389  1.00  0.00     0.203 HD
HETATM   43  N8  UNL     1     -20.055  40.749  -6.545  1.00  0.00    -0.234 N 
HETATM   44  N9  UNL     1     -19.833  38.503  -6.192  1.00  0.00    -0.172 N 
ATOM     45  H82 UNL     1     -20.596  41.608  -6.450  1.00  0.00     0.174 HD
ATOM     46  H81 UNL     1     -19.142  40.741  -6.999  1.00  0.00     0.174 HD
ATOM     47  H9  UNL     1     -18.921  38.503  -6.649  1.00  0.00     0.186 HD
BRANCH  38  48
HETATM   48  N6  UNL     1     -23.466  38.577  -4.388  1.00  0.00    -0.234 N 
ATOM     49  H62 UNL     1     -24.040  37.735  -4.336  1.00  0.00     0.174 HD
ATOM     50  H61 UNL     1     -23.857  39.420  -3.968  1.00  0.00     0.174 HD
ENDBRANCH  38  48
ENDBRANCH   4  36
ENDBRANCH   1   4
TORSDOF 16
ENDMDL
MODEL 2
REMARK VINA RESULT: -7.343195190      2.578      6.769
REMARK  16 active torsions:
REMARK  status: ('A' for Active; 'I' for Inactive)
REMARK    1  A    between atoms: C2_2  and  C3_3 
REMARK    2  A    between atoms: C2_2  and  C4_6 
REMARK    3  A    between atoms: C2_2  and  O3_9 
REMARK    4  A    between atoms: C3_3  and  O1_4 
REMARK    5  A    between atoms: C4_6  and  O2_7 
REMARK    6  A    between atoms: O3_9  and  C5_10 
REMARK    7  A    between atoms: C5_10  and  N1_11 
REMARK    8  A    between atoms: C6_16  and  C7_17 
REMARK    9  A    between atoms: C7_17  and  N4_18 
REMARK   10  A    between atoms: C7_17  and  C8_21 
REMARK   11  A    between atoms: C9_24  and  N6_25 
REMARK   12  A    between atoms: C11_36  and  N10_37 
REMARK   13  A    between atoms: N10_37  and  C12_39 
REMARK   14  A    between atoms: C12_39  and  C13_40 
REMARK   15  A    between atoms: C13_40  and  N12_44 
REMARK   16  A    between atoms: C17_48  and  O5_49 
ROOT
HETATM    1  N4  UNL     1     -19.828  34.999  -9.338  1.00  0.00    -0.277 NA
HETATM    2  O4  UNL     1     -21.030  35.121  -9.532  1.00  0.00    -0.218 OA
ATOM      3  H4  UNL     1     -21.962  35.217  -9.686  1.00  0.00     0.261 HD
ENDROOT
BRANCH   1   4
HETATM    4  C7  UNL     1     -18.618  34.875  -9.139  1.00  0.00     0.216 C 
BRANCH   4   5
HETATM    5  C6  UNL     1     -18.084  33.795  -8.290  1.00  0.00     0.142 A 
HETATM    6  N3  UNL     1     -17.762  32.543  -8.538  1.00  0.00    -0.279 N 
HETATM    7  N2  UNL     1     -17.283  31.940  -7.494  1.00  0.00    -0.236 N 
ATOM      8  H3  UNL     1     -17.876  32.099  -9.449  1.00  0.00     0.189 HD
HETATM    9  N1  UNL     1     -17.277  32.819  -6.479  1.00  0.00    -0.236 N 
ATOM     10  H2  UNL     1     -16.967  30.971  -7.452  1.00  0.00     0.208 HD
HETATM   11  C11 UNL     1     -17.763  33.982  -6.914  1.00  0.00     0.154 A 
BRANCH   9  12
HETATM   12  C5  UNL     1     -16.771  32.441  -5.155  1.00  0.00     0.321 C 
BRANCH  12  13
HETATM   13  O3  UNL     1     -15.714  31.549  -5.334  1.00  0.00    -0.355 OA
BRANCH  13  14
HETATM   14  C2  UNL     1     -14.514  32.088  -4.959  1.00  0.00     0.101 C 
HETATM   15  C1  UNL     1     -13.718  32.608  -6.151  1.00  0.00     0.051 C 
BRANCH  14  16
HETATM   16  C3  UNL     1     -13.622  31.190  -4.163  1.00  0.00     0.204 C 
BRANCH  16  17
HETATM   17  O1  UNL     1     -13.895  31.432  -2.805  1.00  0.00    -0.398 OA
ATOM     18  H1  UNL     1     -14.623  30.872  -2.561  1.00  0.00     0.209 HD
ENDBRANCH  16  17
ENDBRANCH  14  16
BRANCH  14  19
HETATM   19  C4  UNL     1     -14.846  33.300  -4.073  1.00  0.00     0.204 C 
BRANCH  19  20
HETATM   20  O2  UNL     1     -13.702  34.076  -3.924  1.00  0.00    -0.398 OA
ATOM     21  H2  UNL     1     -13.517  34.177  -2.998  1.00  0.00     0.209 HD
ENDBRANCH  19  20
ENDBRANCH  14  19
ENDBRANCH  13  14
ENDBRANCH  12  13
ENDBRANCH   9  12
BRANCH  11  22
HETATM   22  N10 UNL     1     -17.949  35.074  -6.307  1.00  0.00    -0.366 N 
ATOM     23  H10 UNL     1     -17.290  35.812  -6.556  1.00  0.00     0.161 HD
BRANCH  22  24
HETATM   24  C12 UNL     1     -18.916  35.453  -5.340  1.00  0.00     0.197 C 
BRANCH  24  25
HETATM   25  C13 UNL     1     -20.149  35.965  -5.999  1.00  0.00     0.101 C 
HETATM   26  N11 UNL     1     -21.046  35.164  -6.440  1.00  0.00    -0.387 N 
ATOM     27 2H11 UNL     1     -20.918  34.157  -6.340  1.00  0.00     0.157 HD
ATOM     28 1H11 UNL     1     -21.891  35.515  -6.892  1.00  0.00     0.157 HD
BRANCH  25  29
HETATM   29  N12 UNL     1     -20.326  37.363  -6.138  1.00  0.00    -0.291 N 
HETATM   30  C14 UNL     1     -19.660  38.171  -7.014  1.00  0.00     0.101 A 
HETATM   31  C15 UNL     1     -20.061  39.466  -6.904  1.00  0.00     0.022 A 
HETATM   32  C16 UNL     1     -21.027  39.488  -5.915  1.00  0.00     0.058 A 
HETATM   33  C17 UNL     1     -21.157  38.196  -5.478  1.00  0.00     0.147 A 
BRANCH  33  34
HETATM   34  O5  UNL     1     -22.028  37.738  -4.476  1.00  0.00    -0.346 OA
ATOM     35  H5  UNL     1     -22.933  37.517  -4.658  1.00  0.00     0.219 HD
ENDBRANCH  33  34
ENDBRANCH  25  29
ENDBRANCH  24  25
ENDBRANCH  22  24
ENDBRANCH  11  22
ENDBRANCH   4   5
BRANCH   4  36
HETATM   36  C8  UNL     1     -17.739  35.841  -9.776  1.00  0.00     0.182 A 
HETATM   37  N5  UNL     1     -18.290  37.033 -10.205  1.00  0.00    -0.172 N 
HETATM   38  C9  UNL     1     -17.589  37.990 -10.814  1.00  0.00     0.692 A 
ATOM     39  H5  UNL     1     -19.285  37.190 -10.047  1.00  0.00     0.186 HD
HETATM   40  N7  UNL     1     -16.284  37.747 -11.002  1.00  0.00    -0.023 N 
HETATM   41  C10 UNL     1     -15.720  36.593 -10.593  1.00  0.00     0.692 A 
ATOM     42  H7  UNL     1     -15.706  38.449 -11.464  1.00  0.00     0.203 HD
HETATM   43  N8  UNL     1     -14.459  36.373 -10.782  1.00  0.00    -0.234 N 
HETATM   44  N9  UNL     1     -16.454  35.616  -9.968  1.00  0.00    -0.172 N 
ATOM     45  H82 UNL     1     -13.913  37.098 -11.247  1.00  0.00     0.174 HD
ATOM     46  H81 UNL     1     -14.032  35.499 -10.472  1.00  0.00     0.174 HD
ATOM     47  H9  UNL     1     -16.021  34.746  -9.662  1.00  0.00     0.186 HD
BRANCH  38  48
HETATM   48  N6  UNL     1     -18.115  39.103 -11.211  1.00  0.00    -0.234 N 
ATOM     49  H62 UNL     1     -18.013  39.953 -10.655  1.00  0.00     0.174 HD
ATOM     50  H61 UNL     1     -18.645  39.188 -12.079  1.00  0.00     0.174 HD
ENDBRANCH  38  48
ENDBRANCH   4  36
ENDBRANCH   1   4
TORSDOF 16
ENDMDL
MODEL 3
REMARK VINA RESULT: -7.315194695      1.504      2.088
REMARK  16 active torsions:
REMARK  status: ('A' for Active; 'I' for Inactive)
REMARK    1  A    between atoms: C2_2  and  C3_3 
REMARK    2  A    between atoms: C2_2  and  C4_6 
REMARK    3  A    between atoms: C2_2  and  O3_9 
REMARK    4  A    between atoms: C3_3  and  O1_4 
REMARK    5  A    between atoms: C4_6  and  O2_7 
REMARK    6  A    between atoms: O3_9  and  C5_10 
REMARK    7  A    between atoms: C5_10  and  N1_11 
REMARK    8  A    between atoms: C6_16  and  C7_17 
REMARK    9  A    between atoms: C7_17  and  N4_18 
REMARK   10  A    between atoms: C7_17  and  C8_21 
REMARK   11  A    between atoms: C9_24  and  N6_25 
REMARK   12  A    between atoms: C11_36  and  N10_37 
REMARK   13  A    between atoms: N10_37  and  C12_39 
REMARK   14  A    between atoms: C12_39  and  C13_40 
REMARK   15  A    between atoms: C13_40  and  N12_44 
REMARK   16  A    between atoms: C17_48  and  O5_49 
ROOT
HETATM    1  N4  UNL     1     -19.166  35.171  -5.613  1.00  0.00    -0.277 NA
HETATM    2  O4  UNL     1     -18.868  34.368  -4.740  1.00  0.00    -0.218 OA
ATOM      3  H4  UNL     1     -18.633  33.745  -4.062  1.00  0.00     0.261 HD
ENDROOT
BRANCH   1   4
HETATM    4  C7  UNL     1     -19.470  35.979  -6.492  1.00  0.00     0.216 C 
BRANCH   4   5
HETATM    5  C6  UNL     1     -19.160  35.725  -7.912  1.00  0.00     0.142 A 
HETATM    6  N3  UNL     1     -19.742  36.099  -9.031  1.00  0.00    -0.279 N 
HETATM    7  N2  UNL     1     -19.107  35.680 -10.082  1.00  0.00    -0.236 N 
ATOM      8  H3  UNL     1     -20.596  36.655  -9.068  1.00  0.00     0.189 HD
HETATM    9  N1  UNL     1     -18.036  34.983  -9.664  1.00  0.00    -0.236 N 
ATOM     10  H2  UNL     1     -19.372  35.848 -11.052  1.00  0.00     0.208 HD
HETATM   11  C11 UNL     1     -18.021  34.978  -8.331  1.00  0.00     0.154 A 
BRANCH   9  12
HETATM   12  C5  UNL     1     -17.100  34.390 -10.624  1.00  0.00     0.321 C 
BRANCH  12  13
HETATM   13  O3  UNL     1     -17.574  33.124 -10.964  1.00  0.00    -0.355 OA
BRANCH  13  14
HETATM   14  C2  UNL     1     -17.622  32.936 -12.319  1.00  0.00     0.101 C 
HETATM   15  C1  UNL     1     -17.704  34.254 -13.080  1.00  0.00     0.051 C 
BRANCH  14  16
HETATM   16  C3  UNL     1     -18.720  32.048 -12.811  1.00  0.00     0.204 C 
BRANCH  16  17
HETATM   17  O1  UNL     1     -19.296  31.436 -11.683  1.00  0.00    -0.398 OA
ATOM     18  H1  UNL     1     -19.687  32.125 -11.159  1.00  0.00     0.209 HD
ENDBRANCH  16  17
ENDBRANCH  14  16
BRANCH  14  19
HETATM   19  C4  UNL     1     -16.291  32.271 -12.707  1.00  0.00     0.204 C 
BRANCH  19  20
HETATM   20  O2  UNL     1     -16.162  31.078 -12.005  1.00  0.00    -0.398 OA
ATOM     21  H2  UNL     1     -16.418  30.359 -12.571  1.00  0.00     0.209 HD
ENDBRANCH  19  20
ENDBRANCH  14  19
ENDBRANCH  13  14
ENDBRANCH  12  13
ENDBRANCH   9  12
BRANCH  11  22
HETATM   22  N10 UNL     1     -17.214  34.442  -7.520  1.00  0.00    -0.366 N 
ATOM     23  H10 UNL     1     -17.036  34.990  -6.678  1.00  0.00     0.161 HD
BRANCH  22  24
HETATM   24  C12 UNL     1     -16.512  33.210  -7.576  1.00  0.00     0.197 C 
BRANCH  24  25
HETATM   25  C13 UNL     1     -16.418  32.594  -6.225  1.00  0.00     0.101 C 
HETATM   26  N11 UNL     1     -17.384  31.906  -5.741  1.00  0.00    -0.387 N 
ATOM     27 2H11 UNL     1     -18.234  31.774  -6.288  1.00  0.00     0.157 HD
ATOM     28 1H11 UNL     1     -17.319  31.484  -4.814  1.00  0.00     0.157 HD
BRANCH  25  29
HETATM   29  N12 UNL     1     -15.237  32.777  -5.464  1.00  0.00    -0.291 N 
HETATM   30  C14 UNL     1     -13.995  32.316  -5.792  1.00  0.00     0.101 A 
HETATM   31  C15 UNL     1     -13.070  32.661  -4.856  1.00  0.00     0.022 A 
HETATM   32  C16 UNL     1     -13.750  33.376  -3.888  1.00  0.00     0.058 A 
HETATM   33  C17 UNL     1     -15.058  33.423  -4.294  1.00  0.00     0.147 A 
BRANCH  33  34
HETATM   34  O5  UNL     1     -16.119  34.049  -3.620  1.00  0.00    -0.346 OA
ATOM     35  H5  UNL     1     -16.283  34.982  -3.695  1.00  0.00     0.219 HD
ENDBRANCH  33  34
ENDBRANCH  25  29
ENDBRANCH  24  25
ENDBRANCH  22  24
ENDBRANCH  11  22
ENDBRANCH   4   5
BRANCH   4  36
HETATM   36  C8  UNL     1     -20.146  37.195  -6.072  1.00  0.00     0.182 A 
HETATM   37  N5  UNL     1     -21.287  37.069  -5.303  1.00  0.00    -0.172 N 
HETATM   38  C9  UNL     1     -22.000  38.109  -4.870  1.00  0.00     0.692 A 
ATOM     39  H5  UNL     1     -21.600  36.131  -5.054  1.00  0.00     0.186 HD
HETATM   40  N7  UNL     1     -21.555  39.325  -5.218  1.00  0.00    -0.023 N 
HETATM   41  C10 UNL     1     -20.445  39.478  -5.967  1.00  0.00     0.692 A 
ATOM     42  H7  UNL     1     -22.068  40.152  -4.910  1.00  0.00     0.203 HD
HETATM   43  N8  UNL     1     -20.029  40.658  -6.295  1.00  0.00    -0.234 N 
HETATM   44  N9  UNL     1     -19.721  38.397  -6.407  1.00  0.00    -0.172 N 
ATOM     45  H82 UNL     1     -20.566  41.460  -5.969  1.00  0.00     0.174 HD
ATOM     46  H81 UNL     1     -19.188  40.773  -6.862  1.00  0.00     0.174 HD
ATOM     47  H9  UNL     1     -18.882  38.521  -6.974  1.00  0.00     0.186 HD
BRANCH  38  48
HETATM   48  N6  UNL     1     -23.067  37.980  -4.150  1.00  0.00    -0.234 N 
ATOM     49  H62 UNL     1     -23.015  37.578  -3.213  1.00  0.00     0.174 HD
ATOM     50  H61 UNL     1     -23.991  38.265  -4.472  1.00  0.00     0.174 HD
ENDBRANCH  38  48
ENDBRANCH   4  36
ENDBRANCH   1   4
TORSDOF 16
ENDMDL
MODEL 4
REMARK VINA RESULT: -7.304274310      2.060      5.800
REMARK  16 active torsions:
REMARK  status: ('A' for Active; 'I' for Inactive)
REMARK    1  A    between atoms: C2_2  and  C3_3 
REMARK    2  A    between atoms: C2_2  and  C4_6 
REMARK    3  A    between atoms: C2_2  and  O3_9 
REMARK    4  A    between atoms: C3_3  and  O1_4 
REMARK    5  A    between atoms: C4_6  and  O2_7 
REMARK    6  A    between atoms: O3_9  and  C5_10 
REMARK    7  A    between atoms: C5_10  and  N1_11 
REMARK    8  A    between atoms: C6_16  and  C7_17 
REMARK    9  A    between atoms: C7_17  and  N4_18 
REMARK   10  A    between atoms: C7_17  and  C8_21 
REMARK   11  A    between atoms: C9_24  and  N6_25 
REMARK   12  A    between atoms: C11_36  and  N10_37 
REMARK   13  A    between atoms: N10_37  and  C12_39 
REMARK   14  A    between atoms: C12_39  and  C13_40 
REMARK   15  A    between atoms: C13_40  and  N12_44 
REMARK   16  A    between atoms: C17_48  and  O5_49 
ROOT
HETATM    1  N4  UNL     1     -20.645  35.149  -7.727  1.00  0.00    -0.277 NA
HETATM    2  O4  UNL     1     -21.264  34.678  -8.671  1.00  0.00    -0.218 OA
ATOM      3  H4  UNL     1     -21.747  34.314  -9.404  1.00  0.00     0.261 HD
ENDROOT
BRANCH   1   4
HETATM    4  C7  UNL     1     -20.019  35.620  -6.776  1.00  0.00     0.216 C 
BRANCH   4   5
HETATM    5  C6  UNL     1     -18.873  34.910  -6.180  1.00  0.00     0.142 A 
HETATM    6  N3  UNL     1     -18.466  34.760  -4.937  1.00  0.00    -0.279 N 
HETATM    7  N2  UNL     1     -17.411  34.011  -4.849  1.00  0.00    -0.236 N 
ATOM      8  H3  UNL     1     -18.929  35.186  -4.134  1.00  0.00     0.189 HD
HETATM    9  N1  UNL     1     -17.075  33.627  -6.092  1.00  0.00    -0.236 N 
ATOM     10  H2  UNL     1     -16.923  33.758  -3.990  1.00  0.00     0.208 HD
HETATM   11  C11 UNL     1     -17.944  34.156  -6.954  1.00  0.00     0.154 A 
BRANCH   9  12
HETATM   12  C5  UNL     1     -15.924  32.750  -6.327  1.00  0.00     0.321 C 
BRANCH  12  13
HETATM   13  O3  UNL     1     -15.561  32.177  -5.108  1.00  0.00    -0.355 OA
BRANCH  13  14
HETATM   14  C2  UNL     1     -14.208  32.195  -4.911  1.00  0.00     0.101 C 
HETATM   15  C1  UNL     1     -13.446  32.565  -6.177  1.00  0.00     0.051 C 
BRANCH  14  16
HETATM   16  C3  UNL     1     -13.616  30.934  -4.366  1.00  0.00     0.204 C 
BRANCH  16  17
HETATM   17  O1  UNL     1     -13.608  31.051  -2.965  1.00  0.00    -0.398 OA
ATOM     18  H1  UNL     1     -12.725  30.861  -2.672  1.00  0.00     0.209 HD
ENDBRANCH  16  17
ENDBRANCH  14  16
BRANCH  14  19
HETATM   19  C4  UNL     1     -13.940  33.304  -3.881  1.00  0.00     0.204 C 
BRANCH  19  20
HETATM   20  O2  UNL     1     -15.073  33.472  -3.094  1.00  0.00    -0.398 OA
ATOM     21  H2  UNL     1     -14.822  33.881  -2.274  1.00  0.00     0.209 HD
ENDBRANCH  19  20
ENDBRANCH  14  19
ENDBRANCH  13  14
ENDBRANCH  12  13
ENDBRANCH   9  12
BRANCH  11  22
HETATM   22  N10 UNL     1     -18.008  34.072  -8.213  1.00  0.00    -0.366 N 
ATOM     23  H10 UNL     1     -18.654  33.360  -8.556  1.00  0.00     0.161 HD
BRANCH  22  24
HETATM   24  C12 UNL     1     -17.338  34.795  -9.234  1.00  0.00     0.197 C 
BRANCH  24  25
HETATM   25  C13 UNL     1     -18.315  35.432 -10.158  1.00  0.00     0.101 C 
HETATM   26  N11 UNL     1     -19.203  34.737 -10.766  1.00  0.00    -0.387 N 
ATOM     27 2H11 UNL     1     -19.245  33.729 -10.616  1.00  0.00     0.157 HD
ATOM     28 1H11 UNL     1     -19.872  35.174 -11.400  1.00  0.00     0.157 HD
BRANCH  25  29
HETATM   29  N12 UNL     1     -18.256  36.832 -10.366  1.00  0.00    -0.291 N 
HETATM   30  C14 UNL     1     -17.180  37.526 -10.837  1.00  0.00     0.101 A 
HETATM   31  C15 UNL     1     -17.443  38.858 -10.927  1.00  0.00     0.022 A 
HETATM   32  C16 UNL     1     -18.745  39.023 -10.494  1.00  0.00     0.058 A 
HETATM   33  C17 UNL     1     -19.201  37.773 -10.165  1.00  0.00     0.147 A 
BRANCH  33  34
HETATM   34  O5  UNL     1     -20.478  37.453  -9.675  1.00  0.00    -0.346 OA
ATOM     35  H5  UNL     1     -20.686  37.492  -8.749  1.00  0.00     0.219 HD
ENDBRANCH  33  34
ENDBRANCH  25  29
ENDBRANCH  24  25
ENDBRANCH  22  24
ENDBRANCH  11  22
ENDBRANCH   4   5
BRANCH   4  36
HETATM   36  C8  UNL     1     -20.460  36.907  -6.264  1.00  0.00     0.182 A 
HETATM   37  N5  UNL     1     -21.550  36.927  -5.416  1.00  0.00    -0.172 N 
HETATM   38  C9  UNL     1     -22.056  38.045  -4.895  1.00  0.00     0.692 A 
ATOM     39  H5  UNL     1     -21.992  36.040  -5.176  1.00  0.00     0.186 HD
HETATM   40  N7  UNL     1     -21.448  39.191  -5.234  1.00  0.00    -0.023 N 
HETATM   41  C10 UNL     1     -20.381  39.201  -6.059  1.00  0.00     0.692 A 
ATOM     42  H7  UNL     1     -21.798  40.073  -4.861  1.00  0.00     0.203 HD
HETATM   43  N8  UNL     1     -19.805  40.315  -6.378  1.00  0.00    -0.234 N 
HETATM   44  N9  UNL     1     -19.872  38.042  -6.589  1.00  0.00    -0.172 N 
ATOM     45  H82 UNL     1     -20.183  41.176  -5.984  1.00  0.00     0.174 HD
ATOM     46  H81 UNL     1     -18.998  40.323  -7.002  1.00  0.00     0.174 HD
ATOM     47  H9  UNL     1     -19.066  38.057  -7.213  1.00  0.00     0.186 HD
BRANCH  38  48
HETATM   48  N6  UNL     1     -23.077  38.053  -4.101  1.00  0.00    -0.234 N 
ATOM     49  H62 UNL     1     -23.901  37.488  -4.311  1.00  0.00     0.174 HD
ATOM     50  H61 UNL     1     -23.112  38.609  -3.247  1.00  0.00     0.174 HD
ENDBRANCH  38  48
ENDBRANCH   4  36
ENDBRANCH   1   4
TORSDOF 16
ENDMDL
MODEL 5
REMARK VINA RESULT: -7.251741912      1.995      6.903
REMARK  16 active torsions:
REMARK  status: ('A' for Active; 'I' for Inactive)
REMARK    1  A    between atoms: C2_2  and  C3_3 
REMARK    2  A    between atoms: C2_2  and  C4_6 
REMARK    3  A    between atoms: C2_2  and  O3_9 
REMARK    4  A    between atoms: C3_3  and  O1_4 
REMARK    5  A    between atoms: C4_6  and  O2_7 
REMARK    6  A    between atoms: O3_9  and  C5_10 
REMARK    7  A    between atoms: C5_10  and  N1_11 
REMARK    8  A    between atoms: C6_16  and  C7_17 
REMARK    9  A    between atoms: C7_17  and  N4_18 
REMARK   10  A    between atoms: C7_17  and  C8_21 
REMARK   11  A    between atoms: C9_24  and  N6_25 
REMARK   12  A    between atoms: C11_36  and  N10_37 
REMARK   13  A    between atoms: N10_37  and  C12_39 
REMARK   14  A    between atoms: C12_39  and  C13_40 
REMARK   15  A    between atoms: C13_40  and  N12_44 
REMARK   16  A    between atoms: C17_48  and  O5_49 
ROOT
HETATM    1  N4  UNL     1     -16.711  33.986  -3.852  1.00  0.00    -0.277 NA
HETATM    2  O4  UNL     1     -17.395  34.696  -3.127  1.00  0.00    -0.218 OA
ATOM      3  H4  UNL     1     -17.924  35.249  -2.564  1.00  0.00     0.261 HD
ENDROOT
BRANCH   1   4
HETATM    4  C7  UNL     1     -16.025  33.269  -4.582  1.00  0.00     0.216 C 
BRANCH   4   5
HETATM    5  C6  UNL     1     -16.503  32.837  -5.908  1.00  0.00     0.142 A 
HETATM    6  N3  UNL     1     -16.256  31.773  -6.641  1.00  0.00    -0.279 N 
HETATM    7  N2  UNL     1     -16.930  31.769  -7.750  1.00  0.00    -0.236 N 
ATOM      8  H3  UNL     1     -15.607  31.035  -6.368  1.00  0.00     0.189 HD
HETATM    9  N1  UNL     1     -17.676  32.886  -7.780  1.00  0.00    -0.236 N 
ATOM     10  H2  UNL     1     -16.899  31.047  -8.470  1.00  0.00     0.208 HD
HETATM   11  C11 UNL     1     -17.450  33.584  -6.667  1.00  0.00     0.154 A 
BRANCH   9  12
HETATM   12  C5  UNL     1     -18.571  33.165  -8.908  1.00  0.00     0.321 C 
BRANCH  12  13
HETATM   13  O3  UNL     1     -18.331  34.469  -9.338  1.00  0.00    -0.355 OA
BRANCH  13  14
HETATM   14  C2  UNL     1     -17.795  34.509 -10.595  1.00  0.00     0.101 C 
HETATM   15  C1  UNL     1     -18.712  35.209 -11.591  1.00  0.00     0.051 C 
BRANCH  14  16
HETATM   16  C3  UNL     1     -17.404  33.187 -11.175  1.00  0.00     0.204 C 
BRANCH  16  17
HETATM   17  O1  UNL     1     -16.206  33.382 -11.884  1.00  0.00    -0.398 OA
ATOM     18  H1  UNL     1     -15.569  32.772 -11.532  1.00  0.00     0.209 HD
ENDBRANCH  16  17
ENDBRANCH  14  16
BRANCH  14  19
HETATM   19  C4  UNL     1     -16.514  35.354 -10.489  1.00  0.00     0.204 C 
BRANCH  19  20
HETATM   20  O2  UNL     1     -15.763  34.899  -9.412  1.00  0.00    -0.398 OA
ATOM     21  H2  UNL     1     -16.194  35.156  -8.605  1.00  0.00     0.209 HD
ENDBRANCH  19  20
ENDBRANCH  14  19
ENDBRANCH  13  14
ENDBRANCH  12  13
ENDBRANCH   9  12
BRANCH  11  22
HETATM   22  N10 UNL     1     -17.921  34.691  -6.281  1.00  0.00    -0.366 N 
ATOM     23  H10 UNL     1     -17.216  35.385  -6.032  1.00  0.00     0.161 HD
BRANCH  22  24
HETATM   24  C12 UNL     1     -19.260  35.138  -6.135  1.00  0.00     0.197 C 
BRANCH  24  25
HETATM   25  C13 UNL     1     -19.298  36.518  -5.581  1.00  0.00     0.101 C 
HETATM   26  N11 UNL     1     -18.866  36.772  -4.402  1.00  0.00    -0.387 N 
ATOM     27 2H11 UNL     1     -18.487  36.017  -3.829  1.00  0.00     0.157 HD
ATOM     28 1H11 UNL     1     -18.893  37.719  -4.022  1.00  0.00     0.157 HD
BRANCH  25  29
HETATM   29  N12 UNL     1     -19.824  37.566  -6.376  1.00  0.00    -0.291 N 
HETATM   30  C14 UNL     1     -19.563  37.774  -7.699  1.00  0.00     0.101 A 
HETATM   31  C15 UNL     1     -20.225  38.864  -8.175  1.00  0.00     0.022 A 
HETATM   32  C16 UNL     1     -20.942  39.374  -7.109  1.00  0.00     0.058 A 
HETATM   33  C17 UNL     1     -20.672  38.560  -6.040  1.00  0.00     0.147 A 
BRANCH  33  34
HETATM   34  O5  UNL     1     -21.183  38.694  -4.739  1.00  0.00    -0.346 OA
ATOM     35  H5  UNL     1     -21.796  39.381  -4.507  1.00  0.00     0.219 HD
ENDBRANCH  33  34
ENDBRANCH  25  29
ENDBRANCH  24  25
ENDBRANCH  22  24
ENDBRANCH  11  22
ENDBRANCH   4   5
BRANCH   4  36
HETATM   36  C8  UNL     1     -14.723  32.863  -4.079  1.00  0.00     0.182 A 
HETATM   37  N5  UNL     1     -14.420  31.515  -4.081  1.00  0.00    -0.172 N 
HETATM   38  C9  UNL     1     -13.266  31.021  -3.632  1.00  0.00     0.692 A 
ATOM     39  H5  UNL     1     -15.115  30.864  -4.445  1.00  0.00     0.186 HD
HETATM   40  N7  UNL     1     -12.377  31.908  -3.162  1.00  0.00    -0.023 N 
HETATM   41  C10 UNL     1     -12.646  33.229  -3.149  1.00  0.00     0.692 A 
ATOM     42  H7  UNL     1     -11.480  31.578  -2.808  1.00  0.00     0.203 HD
HETATM   43  N8  UNL     1     -11.779  34.074  -2.691  1.00  0.00    -0.234 N 
HETATM   44  N9  UNL     1     -13.840  33.724  -3.613  1.00  0.00    -0.172 N 
ATOM     45  H82 UNL     1     -10.893  33.706  -2.346  1.00  0.00     0.174 HD
ATOM     46  H81 UNL     1     -11.983  35.073  -2.681  1.00  0.00     0.174 HD
ATOM     47  H9  UNL     1     -14.036  34.725  -3.599  1.00  0.00     0.186 HD
BRANCH  38  48
HETATM   48  N6  UNL     1     -12.991  29.757  -3.639  1.00  0.00    -0.234 N 
ATOM     49  H62 UNL     1     -13.665  29.082  -4.002  1.00  0.00     0.174 HD
ATOM     50  H61 UNL     1     -12.111  29.378  -3.292  1.00  0.00     0.174 HD
ENDBRANCH  38  48
ENDBRANCH   4  36
ENDBRANCH   1   4
TORSDOF 16
ENDMDL
