MODEL 1
REMARK VINA RESULT: -8.543729864      0.000      0.000
REMARK  14 active torsions:
REMARK  status: ('A' for Active; 'I' for Inactive)
REMARK    1  A    between atoms: C2_2  and  N1_3 
REMARK    2  A    between atoms: C4_5  and  C5_6 
REMARK    3  A    between atoms: C5_6  and  O1_7 
REMARK    4  A    between atoms: C5_6  and  N2_9 
REMARK    5  A    between atoms: N2_9  and  C6_11 
REMARK    6  A    between atoms: C7_12  and  C8_13 
REMARK    7  A    between atoms: C8_13  and  O2_14 
REMARK    8  A    between atoms: C8_13  and  C9_16 
REMARK    9  A    between atoms: C9_16  and  O3_17 
REMARK   10  A    between atoms: C9_16  and  O4_19 
REMARK   11  A    between atoms: C11_29  and  C12_30 
REMARK   12  A    between atoms: C14_32  and  N7_33 
REMARK   13  A    between atoms: N7_33  and  C15_35 
REMARK   14  A    between atoms: C18_44  and  N11_45 
ROOT
HETATM    1  N1  UNL     1     -13.347  31.791  -3.424  1.00  0.00    -0.316 N 
HETATM    2  C3  UNL     1     -13.988  32.631  -4.327  1.00  0.00     0.127 A 
HETATM    3  C4  UNL     1     -14.367  31.892  -5.405  1.00  0.00     0.075 A 
HETATM    4  N6  UNL     1     -13.967  30.645  -5.163  1.00  0.00    -0.339 N 
ATOM      5  H6  UNL     1     -14.108  29.855  -5.792  1.00  0.00     0.167 HD
HETATM    6  C11 UNL     1     -13.333  30.577  -3.937  1.00  0.00     0.139 A 
ENDROOT
BRANCH   3   7
HETATM    7  C5  UNL     1     -15.073  32.397  -6.621  1.00  0.00     0.271 C 
BRANCH   7   8
HETATM    8  O1  UNL     1     -14.553  33.608  -7.024  1.00  0.00    -0.371 OA
ATOM      9  H1  UNL     1     -13.943  33.492  -7.744  1.00  0.00     0.212 HD
ENDBRANCH   7   8
BRANCH   7  10
HETATM   10  N2  UNL     1     -16.504  32.396  -6.450  1.00  0.00    -0.354 N 
ATOM     11  H2  UNL     1     -17.003  31.511  -6.550  1.00  0.00     0.162 HD
BRANCH  10  12
HETATM   12  C6  UNL     1     -17.253  33.559  -6.151  1.00  0.00     0.100 A 
HETATM   13  C7  UNL     1     -17.762  34.521  -6.983  1.00  0.00     0.089 A 
HETATM   14  N3  UNL     1     -18.433  35.436  -6.210  1.00  0.00    -0.298 N 
HETATM   15  N4  UNL     1     -18.360  35.081  -4.948  1.00  0.00    -0.286 N 
ATOM     16  H3  UNL     1     -18.914  36.264  -6.562  1.00  0.00     0.186 HD
HETATM   17  C10 UNL     1     -17.652  33.947  -4.862  1.00  0.00     0.159 A 
ATOM     18  H4  UNL     1     -18.774  35.586  -4.164  1.00  0.00     0.188 HD
HETATM   19  N5  UNL     1     -17.316  33.197  -3.705  1.00  0.00    -0.079 NA
BRANCH  13  20
HETATM   20  C8  UNL     1     -17.628  34.621  -8.446  1.00  0.00     0.226 C 
BRANCH  20  21
HETATM   21  O2  UNL     1     -16.312  34.573  -8.838  1.00  0.00    -0.384 OA
ATOM     22  H2  UNL     1     -15.995  35.428  -9.102  1.00  0.00     0.210 HD
ENDBRANCH  20  21
BRANCH  20  23
HETATM   23  C9  UNL     1     -18.313  33.425  -9.099  1.00  0.00     0.288 C 
BRANCH  23  24
HETATM   24  O3  UNL     1     -17.366  32.451  -9.428  1.00  0.00    -0.368 OA
ATOM     25  H3  UNL     1     -17.405  31.736  -8.804  1.00  0.00     0.212 HD
ENDBRANCH  23  24
BRANCH  23  26
HETATM   26  O4  UNL     1     -18.976  33.787 -10.267  1.00  0.00    -0.368 OA
ATOM     27  H4  UNL     1     -19.307  33.027 -10.733  1.00  0.00     0.212 HD
ENDBRANCH  23  26
ENDBRANCH  20  23
ENDBRANCH  13  20
ENDBRANCH  10  12
ENDBRANCH   7  10
ENDBRANCH   3   7
BRANCH   1  28
HETATM   28  C2  UNL     1     -12.846  32.288  -2.200  1.00  0.00     0.088 C 
HETATM   29  C1  UNL     1     -11.725  33.032  -2.259  1.00  0.00     0.030 C 
ENDBRANCH   1  28
BRANCH   6  30
HETATM   30  C12 UNL     1     -12.783  29.331  -3.416  1.00  0.00     0.097 A 
HETATM   31  C13 UNL     1     -11.496  29.380  -2.858  1.00  0.00     0.083 A 
HETATM   32  C14 UNL     1     -10.877  28.254  -2.363  1.00  0.00     0.125 A 
HETATM   33  N10 UNL     1     -11.550  27.093  -2.428  1.00  0.00    -0.177 N 
HETATM   34  C18 UNL     1     -12.777  26.997  -2.950  1.00  0.00     0.678 A 
ATOM     35  H10 UNL     1     -11.106  26.250  -2.065  1.00  0.00     0.185 HD
HETATM   36  N12 UNL     1     -13.349  28.139  -3.428  1.00  0.00    -0.188 N 
ATOM     37  H12 UNL     1     -14.286  28.065  -3.826  1.00  0.00     0.184 HD
BRANCH  32  38
HETATM   38  N7  UNL     1      -9.695  28.311  -1.852  1.00  0.00    -0.314 N 
ATOM     39  H7  UNL     1      -9.508  27.885  -0.944  1.00  0.00     0.170 HD
BRANCH  38  40
HETATM   40  C15 UNL     1      -8.652  28.968  -2.560  1.00  0.00     0.176 C 
HETATM   41  N8  UNL     1      -7.635  29.480  -1.952  1.00  0.00    -0.361 N 
HETATM   42  C16 UNL     1      -6.725  30.083  -2.871  1.00  0.00     0.142 C 
ATOM     43  H8  UNL     1      -7.498  29.456  -0.941  1.00  0.00     0.162 HD
HETATM   44  C17 UNL     1      -7.174  29.556  -4.215  1.00  0.00     0.142 C 
HETATM   45  N9  UNL     1      -8.544  29.168  -3.962  1.00  0.00    -0.361 N 
ATOM     46  H9  UNL     1      -9.286  29.061  -4.653  1.00  0.00     0.162 HD
ENDBRANCH  38  40
ENDBRANCH  32  38
BRANCH  34  47
HETATM   47  N11 UNL     1     -13.395  25.872  -2.998  1.00  0.00    -0.234 N 
ATOM     48 2H11 UNL     1     -13.168  25.116  -2.352  1.00  0.00     0.174 HD
ATOM     49 1H11 UNL     1     -14.130  25.700  -3.684  1.00  0.00     0.174 HD
ENDBRANCH  34  47
ENDBRANCH   6  30
TORSDOF 14
ENDMDL
MODEL 2
REMARK VINA RESULT: -8.475887980      2.119      2.706
REMARK  14 active torsions:
REMARK  status: ('A' for Active; 'I' for Inactive)
REMARK    1  A    between atoms: C2_2  and  N1_3 
REMARK    2  A    between atoms: C4_5  and  C5_6 
REMARK    3  A    between atoms: C5_6  and  O1_7 
REMARK    4  A    between atoms: C5_6  and  N2_9 
REMARK    5  A    between atoms: N2_9  and  C6_11 
REMARK    6  A    between atoms: C7_12  and  C8_13 
REMARK    7  A    between atoms: C8_13  and  O2_14 
REMARK    8  A    between atoms: C8_13  and  C9_16 
REMARK    9  A    between atoms: C9_16  and  O3_17 
REMARK   10  A    between atoms: C9_16  and  O4_19 
REMARK   11  A    between atoms: C11_29  and  C12_30 
REMARK   12  A    between atoms: C14_32  and  N7_33 
REMARK   13  A    between atoms: N7_33  and  C15_35 
REMARK   14  A    between atoms: C18_44  and  N11_45 
ROOT
HETATM    1  N1  UNL     1     -13.212  32.241  -2.810  1.00  0.00    -0.316 N 
HETATM    2  C3  UNL     1     -13.939  33.270  -3.398  1.00  0.00     0.127 A 
HETATM    3  C4  UNL     1     -14.513  32.792  -4.535  1.00  0.00     0.075 A 
HETATM    4  N6  UNL     1     -14.145  31.516  -4.634  1.00  0.00    -0.339 N 
ATOM      5  H6  UNL     1     -14.420  30.886  -5.387  1.00  0.00     0.167 HD
HETATM    6  C11 UNL     1     -13.338  31.169  -3.567  1.00  0.00     0.139 A 
ENDROOT
BRANCH   3   7
HETATM    7  C5  UNL     1     -15.368  33.564  -5.487  1.00  0.00     0.271 C 
BRANCH   7   8
HETATM    8  O1  UNL     1     -15.313  34.914  -5.214  1.00  0.00    -0.371 OA
ATOM      9  H1  UNL     1     -14.422  35.184  -5.022  1.00  0.00     0.212 HD
ENDBRANCH   7   8
BRANCH   7  10
HETATM   10  N2  UNL     1     -16.705  33.030  -5.563  1.00  0.00    -0.354 N 
ATOM     11  H2  UNL     1     -16.936  32.221  -4.986  1.00  0.00     0.162 HD
BRANCH  10  12
HETATM   12  C6  UNL     1     -17.713  33.572  -6.395  1.00  0.00     0.100 A 
HETATM   13  C7  UNL     1     -18.655  34.531  -6.133  1.00  0.00     0.089 A 
HETATM   14  N3  UNL     1     -19.389  34.725  -7.277  1.00  0.00    -0.298 N 
HETATM   15  N4  UNL     1     -18.943  33.935  -8.225  1.00  0.00    -0.286 N 
ATOM     16  H3  UNL     1     -20.163  35.383  -7.375  1.00  0.00     0.186 HD
HETATM   17  C10 UNL     1     -17.924  33.214  -7.736  1.00  0.00     0.159 A 
ATOM     18  H4  UNL     1     -19.310  33.879  -9.175  1.00  0.00     0.188 HD
HETATM   19  N5  UNL     1     -17.136  32.233  -8.393  1.00  0.00    -0.079 NA
BRANCH  13  20
HETATM   20  C8  UNL     1     -18.899  35.244  -4.868  1.00  0.00     0.226 C 
BRANCH  20  21
HETATM   21  O2  UNL     1     -17.731  35.715  -4.319  1.00  0.00    -0.384 OA
ATOM     22  H2  UNL     1     -17.797  36.636  -4.097  1.00  0.00     0.210 HD
ENDBRANCH  20  21
BRANCH  20  23
HETATM   23  C9  UNL     1     -19.770  36.467  -5.138  1.00  0.00     0.288 C 
BRANCH  23  24
HETATM   24  O3  UNL     1     -19.044  37.423  -5.854  1.00  0.00    -0.368 OA
ATOM     25  H3  UNL     1     -18.440  36.994  -6.449  1.00  0.00     0.212 HD
ENDBRANCH  23  24
BRANCH  23  26
HETATM   26  O4  UNL     1     -20.205  37.059  -3.957  1.00  0.00    -0.368 OA
ATOM     27  H4  UNL     1     -21.144  37.208  -3.964  1.00  0.00     0.212 HD
ENDBRANCH  23  26
ENDBRANCH  20  23
ENDBRANCH  13  20
ENDBRANCH  10  12
ENDBRANCH   7  10
ENDBRANCH   3   7
BRANCH   1  28
HETATM   28  C2  UNL     1     -12.508  32.448  -1.603  1.00  0.00     0.088 C 
HETATM   29  C1  UNL     1     -11.292  33.020  -1.700  1.00  0.00     0.030 C 
ENDBRANCH   1  28
BRANCH   6  30
HETATM   30  C12 UNL     1     -12.780  29.830  -3.420  1.00  0.00     0.097 A 
HETATM   31  C13 UNL     1     -11.381  29.714  -3.411  1.00  0.00     0.083 A 
HETATM   32  C14 UNL     1     -10.756  28.492  -3.304  1.00  0.00     0.125 A 
HETATM   33  N10 UNL     1     -11.533  27.401  -3.204  1.00  0.00    -0.177 N 
HETATM   34  C18 UNL     1     -12.868  27.462  -3.206  1.00  0.00     0.678 A 
ATOM     35  H10 UNL     1     -11.085  26.488  -3.122  1.00  0.00     0.185 HD
HETATM   36  N12 UNL     1     -13.443  28.694  -3.316  1.00  0.00    -0.188 N 
ATOM     37  H12 UNL     1     -14.462  28.740  -3.318  1.00  0.00     0.184 HD
BRANCH  32  38
HETATM   38  N7  UNL     1      -9.470  28.397  -3.297  1.00  0.00    -0.314 N 
ATOM     39  H7  UNL     1      -9.011  27.628  -3.785  1.00  0.00     0.170 HD
BRANCH  38  40
HETATM   40  C15 UNL     1      -8.695  29.368  -2.606  1.00  0.00     0.176 C 
HETATM   41  N8  UNL     1      -7.511  29.699  -3.002  1.00  0.00    -0.361 N 
HETATM   42  C16 UNL     1      -6.934  30.689  -2.151  1.00  0.00     0.142 C 
ATOM     43  H8  UNL     1      -7.047  29.303  -3.819  1.00  0.00     0.162 HD
HETATM   44  C17 UNL     1      -8.106  31.188  -1.338  1.00  0.00     0.142 C 
HETATM   45  N9  UNL     1      -9.052  30.097  -1.441  1.00  0.00    -0.361 N 
ATOM     46  H9  UNL     1      -9.821  29.893  -0.804  1.00  0.00     0.162 HD
ENDBRANCH  38  40
ENDBRANCH  32  38
BRANCH  34  47
HETATM   47  N11 UNL     1     -13.584  26.399  -3.109  1.00  0.00    -0.234 N 
ATOM     48 2H11 UNL     1     -13.357  25.668  -2.436  1.00  0.00     0.174 HD
ATOM     49 1H11 UNL     1     -14.401  26.255  -3.703  1.00  0.00     0.174 HD
ENDBRANCH  34  47
ENDBRANCH   6  30
TORSDOF 14
ENDMDL
MODEL 3
REMARK VINA RESULT: -8.330998569      2.084      2.725
REMARK  14 active torsions:
REMARK  status: ('A' for Active; 'I' for Inactive)
REMARK    1  A    between atoms: C2_2  and  N1_3 
REMARK    2  A    between atoms: C4_5  and  C5_6 
REMARK    3  A    between atoms: C5_6  and  O1_7 
REMARK    4  A    between atoms: C5_6  and  N2_9 
REMARK    5  A    between atoms: N2_9  and  C6_11 
REMARK    6  A    between atoms: C7_12  and  C8_13 
REMARK    7  A    between atoms: C8_13  and  O2_14 
REMARK    8  A    between atoms: C8_13  and  C9_16 
REMARK    9  A    between atoms: C9_16  and  O3_17 
REMARK   10  A    between atoms: C9_16  and  O4_19 
REMARK   11  A    between atoms: C11_29  and  C12_30 
REMARK   12  A    between atoms: C14_32  and  N7_33 
REMARK   13  A    between atoms: N7_33  and  C15_35 
REMARK   14  A    between atoms: C18_44  and  N11_45 
ROOT
HETATM    1  N1  UNL     1     -13.419  32.259  -4.241  1.00  0.00    -0.316 N 
HETATM    2  C3  UNL     1     -14.353  32.942  -5.010  1.00  0.00     0.127 A 
HETATM    3  C4  UNL     1     -15.213  32.035  -5.546  1.00  0.00     0.075 A 
HETATM    4  N6  UNL     1     -14.812  30.839  -5.116  1.00  0.00    -0.339 N 
ATOM      5  H6  UNL     1     -15.262  29.954  -5.350  1.00  0.00     0.167 HD
HETATM    6  C11 UNL     1     -13.700  30.972  -4.307  1.00  0.00     0.139 A 
ENDROOT
BRANCH   3   7
HETATM    7  C5  UNL     1     -16.363  32.332  -6.452  1.00  0.00     0.271 C 
BRANCH   7   8
HETATM    8  O1  UNL     1     -16.346  31.506  -7.556  1.00  0.00    -0.371 OA
ATOM      9  H1  UNL     1     -16.516  31.999  -8.350  1.00  0.00     0.212 HD
ENDBRANCH   7   8
BRANCH   7  10
HETATM   10  N2  UNL     1     -16.451  33.736  -6.766  1.00  0.00    -0.354 N 
ATOM     11  H2  UNL     1     -15.642  34.327  -6.573  1.00  0.00     0.162 HD
BRANCH  10  12
HETATM   12  C6  UNL     1     -17.603  34.337  -7.327  1.00  0.00     0.100 A 
HETATM   13  C7  UNL     1     -18.670  34.942  -6.717  1.00  0.00     0.089 A 
HETATM   14  N3  UNL     1     -19.520  35.388  -7.699  1.00  0.00    -0.298 N 
HETATM   15  N4  UNL     1     -19.027  35.086  -8.877  1.00  0.00    -0.286 N 
ATOM     16  H3  UNL     1     -20.401  35.878  -7.537  1.00  0.00     0.186 HD
HETATM   17  C10 UNL     1     -17.862  34.446  -8.702  1.00  0.00     0.159 A 
ATOM     18  H4  UNL     1     -19.458  35.303  -9.776  1.00  0.00     0.188 HD
HETATM   19  N5  UNL     1     -16.977  33.931  -9.685  1.00  0.00    -0.079 NA
BRANCH  13  20
HETATM   20  C8  UNL     1     -18.926  35.098  -5.276  1.00  0.00     0.226 C 
BRANCH  20  21
HETATM   21  O2  UNL     1     -17.756  35.201  -4.563  1.00  0.00    -0.384 OA
ATOM     22  H2  UNL     1     -17.555  34.395  -4.103  1.00  0.00     0.210 HD
ENDBRANCH  20  21
BRANCH  20  23
HETATM   23  C9  UNL     1     -19.689  36.397  -5.035  1.00  0.00     0.288 C 
BRANCH  23  24
HETATM   24  O3  UNL     1     -19.006  37.468  -5.617  1.00  0.00    -0.368 OA
ATOM     25  H3  UNL     1     -19.429  38.288  -5.387  1.00  0.00     0.212 HD
ENDBRANCH  23  24
BRANCH  23  26
HETATM   26  O4  UNL     1     -19.829  36.668  -3.678  1.00  0.00    -0.368 OA
ATOM     27  H4  UNL     1     -19.037  37.043  -3.312  1.00  0.00     0.212 HD
ENDBRANCH  23  26
ENDBRANCH  20  23
ENDBRANCH  13  20
ENDBRANCH  10  12
ENDBRANCH   7  10
ENDBRANCH   3   7
BRANCH   1  28
HETATM   28  C2  UNL     1     -12.397  32.951  -3.554  1.00  0.00     0.088 C 
HETATM   29  C1  UNL     1     -12.418  32.886  -2.209  1.00  0.00     0.030 C 
ENDBRANCH   1  28
BRANCH   6  30
HETATM   30  C12 UNL     1     -13.040  29.822  -3.701  1.00  0.00     0.097 A 
HETATM   31  C13 UNL     1     -11.787  30.040  -3.106  1.00  0.00     0.083 A 
HETATM   32  C14 UNL     1     -11.071  29.015  -2.529  1.00  0.00     0.125 A 
HETATM   33  N10 UNL     1     -11.614  27.786  -2.551  1.00  0.00    -0.177 N 
HETATM   34  C18 UNL     1     -12.803  27.531  -3.104  1.00  0.00     0.678 A 
ATOM     35  H10 UNL     1     -11.096  27.016  -2.127  1.00  0.00     0.185 HD
HETATM   36  N12 UNL     1     -13.475  28.577  -3.664  1.00  0.00    -0.188 N 
ATOM     37  H12 UNL     1     -14.383  28.381  -4.086  1.00  0.00     0.184 HD
BRANCH  32  38
HETATM   38  N7  UNL     1      -9.921  29.226  -1.985  1.00  0.00    -0.314 N 
ATOM     39  H7  UNL     1      -9.845  29.335  -0.974  1.00  0.00     0.170 HD
BRANCH  38  40
HETATM   40  C15 UNL     1      -8.760  29.306  -2.802  1.00  0.00     0.176 C 
HETATM   41  N8  UNL     1      -7.574  29.162  -2.312  1.00  0.00    -0.361 N 
HETATM   42  C16 UNL     1      -6.573  29.284  -3.322  1.00  0.00     0.142 C 
ATOM     43  H8  UNL     1      -7.376  28.985  -1.327  1.00  0.00     0.162 HD
HETATM   44  C17 UNL     1      -7.354  29.183  -4.612  1.00  0.00     0.142 C 
HETATM   45  N9  UNL     1      -8.694  29.541  -4.200  1.00  0.00    -0.361 N 
ATOM     46  H9  UNL     1      -9.443  29.893  -4.797  1.00  0.00     0.162 HD
ENDBRANCH  38  40
ENDBRANCH  32  38
BRANCH  34  47
HETATM   47  N11 UNL     1     -13.295  26.343  -3.109  1.00  0.00    -0.234 N 
ATOM     48 2H11 UNL     1     -13.174  25.725  -3.910  1.00  0.00     0.174 HD
ATOM     49 1H11 UNL     1     -13.820  25.985  -2.312  1.00  0.00     0.174 HD
ENDBRANCH  34  47
ENDBRANCH   6  30
TORSDOF 14
ENDMDL
MODEL 4
REMARK VINA RESULT: -8.137602616      6.251     11.388
REMARK  14 active torsions:
REMARK  status: ('A' for Active; 'I' for Inactive)
REMARK    1  A    between atoms: C2_2  and  N1_3 
REMARK    2  A    between atoms: C4_5  and  C5_6 
REMARK    3  A    between atoms: C5_6  and  O1_7 
REMARK    4  A    between atoms: C5_6  and  N2_9 
REMARK    5  A    between atoms: N2_9  and  C6_11 
REMARK    6  A    between atoms: C7_12  and  C8_13 
REMARK    7  A    between atoms: C8_13  and  O2_14 
REMARK    8  A    between atoms: C8_13  and  C9_16 
REMARK    9  A    between atoms: C9_16  and  O3_17 
REMARK   10  A    between atoms: C9_16  and  O4_19 
REMARK   11  A    between atoms: C11_29  and  C12_30 
REMARK   12  A    between atoms: C14_32  and  N7_33 
REMARK   13  A    between atoms: N7_33  and  C15_35 
REMARK   14  A    between atoms: C18_44  and  N11_45 
ROOT
HETATM    1  N1  UNL     1     -17.663  35.143 -11.240  1.00  0.00    -0.316 N 
HETATM    2  C3  UNL     1     -17.806  34.017 -10.437  1.00  0.00     0.127 A 
HETATM    3  C4  UNL     1     -17.435  34.345  -9.170  1.00  0.00     0.075 A 
HETATM    4  N6  UNL     1     -17.079  35.628  -9.204  1.00  0.00    -0.339 N 
ATOM      5  H6  UNL     1     -16.751  36.164  -8.401  1.00  0.00     0.167 HD
HETATM    6  C11 UNL     1     -17.217  36.127 -10.485  1.00  0.00     0.139 A 
ENDROOT
BRANCH   3   7
HETATM    7  C5  UNL     1     -17.418  33.431  -7.988  1.00  0.00     0.271 C 
BRANCH   7   8
HETATM    8  O1  UNL     1     -17.308  32.116  -8.385  1.00  0.00    -0.371 OA
ATOM      9  H1  UNL     1     -17.431  32.034  -9.323  1.00  0.00     0.212 HD
ENDBRANCH   7   8
BRANCH   7  10
HETATM   10  N2  UNL     1     -18.517  33.690  -7.093  1.00  0.00    -0.354 N 
ATOM     11  H2  UNL     1     -19.378  33.156  -7.217  1.00  0.00     0.162 HD
BRANCH  10  12
HETATM   12  C6  UNL     1     -18.464  34.646  -6.051  1.00  0.00     0.100 A 
HETATM   13  C7  UNL     1     -17.921  34.557  -4.797  1.00  0.00     0.089 A 
HETATM   14  N3  UNL     1     -18.105  35.764  -4.170  1.00  0.00    -0.298 N 
HETATM   15  N4  UNL     1     -18.733  36.586  -4.977  1.00  0.00    -0.286 N 
ATOM     16  H3  UNL     1     -17.801  35.988  -3.222  1.00  0.00     0.186 HD
HETATM   17  C10 UNL     1     -18.973  35.951  -6.133  1.00  0.00     0.159 A 
ATOM     18  H4  UNL     1     -18.995  37.548  -4.761  1.00  0.00     0.188 HD
HETATM   19  N5  UNL     1     -19.625  36.440  -7.295  1.00  0.00    -0.079 NA
BRANCH  13  20
HETATM   20  C8  UNL     1     -17.264  33.397  -4.170  1.00  0.00     0.226 C 
BRANCH  20  21
HETATM   21  O2  UNL     1     -17.497  32.241  -4.876  1.00  0.00    -0.384 OA
ATOM     22  H2  UNL     1     -16.740  31.987  -5.389  1.00  0.00     0.210 HD
ENDBRANCH  20  21
BRANCH  20  23
HETATM   23  C9  UNL     1     -15.752  33.606  -4.180  1.00  0.00     0.288 C 
BRANCH  23  24
HETATM   24  O3  UNL     1     -15.432  34.751  -4.915  1.00  0.00    -0.368 OA
ATOM     25  H3  UNL     1     -15.554  34.587  -5.843  1.00  0.00     0.212 HD
ENDBRANCH  23  24
BRANCH  23  26
HETATM   26  O4  UNL     1     -15.088  32.529  -4.757  1.00  0.00    -0.368 OA
ATOM     27  H4  UNL     1     -15.529  31.708  -4.577  1.00  0.00     0.212 HD
ENDBRANCH  23  26
ENDBRANCH  20  23
ENDBRANCH  13  20
ENDBRANCH  10  12
ENDBRANCH   7  10
ENDBRANCH   3   7
BRANCH   1  28
HETATM   28  C2  UNL     1     -17.982  35.099 -12.615  1.00  0.00     0.088 C 
HETATM   29  C1  UNL     1     -17.635  33.983 -13.284  1.00  0.00     0.030 C 
ENDBRANCH   1  28
BRANCH   6  30
HETATM   30  C12 UNL     1     -16.890  37.509 -10.818  1.00  0.00     0.097 A 
HETATM   31  C13 UNL     1     -17.963  38.386 -11.045  1.00  0.00     0.083 A 
HETATM   32  C14 UNL     1     -17.760  39.703 -11.390  1.00  0.00     0.125 A 
HETATM   33  N10 UNL     1     -16.492  40.130 -11.505  1.00  0.00    -0.177 N 
HETATM   34  C18 UNL     1     -15.439  39.333 -11.298  1.00  0.00     0.678 A 
ATOM     35  H10 UNL     1     -16.325  41.104 -11.759  1.00  0.00     0.185 HD
HETATM   36  N12 UNL     1     -15.688  38.036 -10.959  1.00  0.00    -0.188 N 
ATOM     37  H12 UNL     1     -14.885  37.428 -10.801  1.00  0.00     0.184 HD
BRANCH  32  38
HETATM   38  N7  UNL     1     -18.753  40.501 -11.596  1.00  0.00    -0.314 N 
ATOM     39  H7  UNL     1     -18.680  41.239 -12.296  1.00  0.00     0.170 HD
BRANCH  38  40
HETATM   40  C15 UNL     1     -19.949  40.347 -10.843  1.00  0.00     0.176 C 
HETATM   41  N8  UNL     1     -20.031  40.731  -9.613  1.00  0.00    -0.361 N 
HETATM   42  C16 UNL     1     -21.326  40.472  -9.070  1.00  0.00     0.142 C 
ATOM     43  H8  UNL     1     -19.268  41.165  -9.094  1.00  0.00     0.162 HD
HETATM   44  C17 UNL     1     -22.169  40.169 -10.288  1.00  0.00     0.142 C 
HETATM   45  N9  UNL     1     -21.180  39.783 -11.271  1.00  0.00    -0.361 N 
ATOM     46  H9  UNL     1     -21.336  39.218 -12.105  1.00  0.00     0.162 HD
ENDBRANCH  38  40
ENDBRANCH  32  38
BRANCH  34  47
HETATM   47  N11 UNL     1     -14.237  39.772 -11.416  1.00  0.00    -0.234 N 
ATOM     48 2H11 UNL     1     -14.051  40.730 -11.711  1.00  0.00     0.174 HD
ATOM     49 1H11 UNL     1     -13.434  39.175 -11.217  1.00  0.00     0.174 HD
ENDBRANCH  34  47
ENDBRANCH   6  30
TORSDOF 14
ENDMDL
MODEL 5
REMARK VINA RESULT: -7.930430875      3.810      9.846
REMARK  14 active torsions:
REMARK  status: ('A' for Active; 'I' for Inactive)
REMARK    1  A    between atoms: C2_2  and  N1_3 
REMARK    2  A    between atoms: C4_5  and  C5_6 
REMARK    3  A    between atoms: C5_6  and  O1_7 
REMARK    4  A    between atoms: C5_6  and  N2_9 
REMARK    5  A    between atoms: N2_9  and  C6_11 
REMARK    6  A    between atoms: C7_12  and  C8_13 
REMARK    7  A    between atoms: C8_13  and  O2_14 
REMARK    8  A    between atoms: C8_13  and  C9_16 
REMARK    9  A    between atoms: C9_16  and  O3_17 
REMARK   10  A    between atoms: C9_16  and  O4_19 
REMARK   11  A    between atoms: C11_29  and  C12_30 
REMARK   12  A    between atoms: C14_32  and  N7_33 
REMARK   13  A    between atoms: N7_33  and  C15_35 
REMARK   14  A    between atoms: C18_44  and  N11_45 
ROOT
HETATM    1  N1  UNL     1     -19.443  35.471  -6.645  1.00  0.00    -0.316 N 
HETATM    2  C3  UNL     1     -19.100  35.015  -5.378  1.00  0.00     0.127 A 
HETATM    3  C4  UNL     1     -17.818  34.562  -5.418  1.00  0.00     0.075 A 
HETATM    4  N6  UNL     1     -17.398  34.737  -6.670  1.00  0.00    -0.339 N 
ATOM      5  H6  UNL     1     -16.469  34.492  -7.013  1.00  0.00     0.167 HD
HETATM    6  C11 UNL     1     -18.401  35.300  -7.435  1.00  0.00     0.139 A 
ENDROOT
BRANCH   3   7
HETATM    7  C5  UNL     1     -17.052  33.968  -4.280  1.00  0.00     0.271 C 
BRANCH   7   8
HETATM    8  O1  UNL     1     -17.384  34.582  -3.091  1.00  0.00    -0.371 OA
ATOM      9  H1  UNL     1     -16.612  34.935  -2.666  1.00  0.00     0.212 HD
ENDBRANCH   7   8
BRANCH   7  10
HETATM   10  N2  UNL     1     -15.637  33.926  -4.549  1.00  0.00    -0.354 N 
ATOM     11  H2  UNL     1     -15.124  34.807  -4.579  1.00  0.00     0.162 HD
BRANCH  10  12
HETATM   12  C6  UNL     1     -14.924  32.725  -4.774  1.00  0.00     0.100 A 
HETATM   13  C7  UNL     1     -13.918  32.145  -4.047  1.00  0.00     0.089 A 
HETATM   14  N3  UNL     1     -13.572  30.970  -4.667  1.00  0.00    -0.298 N 
HETATM   15  N4  UNL     1     -14.316  30.802  -5.735  1.00  0.00    -0.286 N 
ATOM     16  H3  UNL     1     -12.849  30.326  -4.346  1.00  0.00     0.186 HD
HETATM   17  C10 UNL     1     -15.153  31.843  -5.842  1.00  0.00     0.159 A 
ATOM     18  H4  UNL     1     -14.265  30.010  -6.377  1.00  0.00     0.188 HD
HETATM   19  N5  UNL     1     -16.135  32.093  -6.836  1.00  0.00    -0.079 NA
BRANCH  13  20
HETATM   20  C8  UNL     1     -13.270  32.652  -2.826  1.00  0.00     0.226 C 
BRANCH  20  21
HETATM   21  O2  UNL     1     -13.893  32.189  -1.692  1.00  0.00    -0.384 OA
ATOM     22  H2  UNL     1     -14.799  32.470  -1.652  1.00  0.00     0.210 HD
ENDBRANCH  20  21
BRANCH  20  23
HETATM   23  C9  UNL     1     -11.834  32.138  -2.765  1.00  0.00     0.288 C 
BRANCH  23  24
HETATM   24  O3  UNL     1     -11.826  30.780  -2.439  1.00  0.00    -0.368 OA
ATOM     25  H3  UNL     1     -11.252  30.627  -1.697  1.00  0.00     0.212 HD
ENDBRANCH  23  24
BRANCH  23  26
HETATM   26  O4  UNL     1     -11.087  32.812  -1.805  1.00  0.00    -0.368 OA
ATOM     27  H4  UNL     1     -10.261  33.123  -2.158  1.00  0.00     0.212 HD
ENDBRANCH  23  26
ENDBRANCH  20  23
ENDBRANCH  13  20
ENDBRANCH  10  12
ENDBRANCH   7  10
ENDBRANCH   3   7
BRANCH   1  28
HETATM   28  C2  UNL     1     -20.724  36.008  -6.902  1.00  0.00     0.088 C 
HETATM   29  C1  UNL     1     -21.700  35.130  -7.208  1.00  0.00     0.030 C 
ENDBRANCH   1  28
BRANCH   6  30
HETATM   30  C12 UNL     1     -18.222  35.597  -8.851  1.00  0.00     0.097 A 
HETATM   31  C13 UNL     1     -17.245  34.863  -9.543  1.00  0.00     0.083 A 
HETATM   32  C14 UNL     1     -16.980  35.086 -10.875  1.00  0.00     0.125 A 
HETATM   33  N10 UNL     1     -17.694  36.036 -11.503  1.00  0.00    -0.177 N 
HETATM   34  C18 UNL     1     -18.634  36.759 -10.887  1.00  0.00     0.678 A 
ATOM     35  H10 UNL     1     -17.510  36.212 -12.491  1.00  0.00     0.185 HD
HETATM   36  N12 UNL     1     -18.861  36.504  -9.567  1.00  0.00    -0.188 N 
ATOM     37  H12 UNL     1     -19.578  37.056  -9.097  1.00  0.00     0.184 HD
BRANCH  32  38
HETATM   38  N7  UNL     1     -16.081  34.406 -11.501  1.00  0.00    -0.314 N 
ATOM     39  H7  UNL     1     -15.094  34.641 -11.394  1.00  0.00     0.170 HD
BRANCH  38  40
HETATM   40  C15 UNL     1     -16.470  33.327 -12.341  1.00  0.00     0.176 C 
HETATM   41  N8  UNL     1     -15.647  32.781 -13.172  1.00  0.00    -0.361 N 
HETATM   42  C16 UNL     1     -16.266  31.723 -13.903  1.00  0.00     0.142 C 
ATOM     43  H8  UNL     1     -14.675  33.070 -13.292  1.00  0.00     0.162 HD
HETATM   44  C17 UNL     1     -17.542  31.460 -13.137  1.00  0.00     0.142 C 
HETATM   45  N9  UNL     1     -17.741  32.699 -12.417  1.00  0.00    -0.361 N 
ATOM     46  H9  UNL     1     -18.621  33.052 -12.040  1.00  0.00     0.162 HD
ENDBRANCH  38  40
ENDBRANCH  32  38
BRANCH  34  47
HETATM   47  N11 UNL     1     -19.299  37.661 -11.515  1.00  0.00    -0.234 N 
ATOM     48 2H11 UNL     1     -19.780  38.407 -11.014  1.00  0.00     0.174 HD
ATOM     49 1H11 UNL     1     -19.366  37.657 -12.533  1.00  0.00     0.174 HD
ENDBRANCH  34  47
ENDBRANCH   6  30
TORSDOF 14
ENDMDL
