MODEL 1
REMARK VINA RESULT: -8.097751615      0.000      0.000
REMARK  12 active torsions:
REMARK  status: ('A' for Active; 'I' for Inactive)
REMARK    1  A    between atoms: C4_9  and  N3_10 
REMARK    2  A    between atoms: N3_10  and  C5_12 
REMARK    3  A    between atoms: C5_12  and  C6_13 
REMARK    4  A    between atoms: C5_12  and  C7_16 
REMARK    5  A    between atoms: C6_13  and  O1_14 
REMARK    6  A    between atoms: N9_31  and  C11_32 
REMARK    7  A    between atoms: C11_32  and  C12_33 
REMARK    8  A    between atoms: C12_33  and  O2_34 
REMARK    9  A    between atoms: C12_33  and  C13_36 
REMARK   10  A    between atoms: C13_36  and  O3_37 
REMARK   11  A    between atoms: C14_39  and  N10_40 
REMARK   12  A    between atoms: N10_40  and  C15_42 
ROOT
HETATM    1  C5  UNL     1     -19.664  36.702  -8.803  1.00  0.00     0.158 C 
ENDROOT
BRANCH   1   2
HETATM    2  N3  UNL     1     -19.300  38.041  -9.081  1.00  0.00    -0.372 N 
ATOM      3  H3  UNL     1     -19.657  38.705  -8.394  1.00  0.00     0.160 HD
BRANCH   2   4
HETATM    4  C4  UNL     1     -18.557  38.646 -10.094  1.00  0.00     0.117 A 
HETATM    5  C3  UNL     1     -18.829  39.975 -10.434  1.00  0.00     0.131 A 
HETATM    6  N1  UNL     1     -18.154  40.607 -11.437  1.00  0.00    -0.331 N 
HETATM    7  N2  UNL     1     -19.678  40.712  -9.813  1.00  0.00    -0.383 N 
HETATM    8  C2  UNL     1     -17.198  40.000 -12.146  1.00  0.00     0.080 A 
ATOM      9  H1  UNL     1     -18.386  41.577 -11.652  1.00  0.00     0.168 HD
HETATM   10  C1  UNL     1     -16.477  40.733 -13.251  1.00  0.00     0.089 C 
HETATM   11  N13 UNL     1     -16.913  38.741 -11.847  1.00  0.00    -0.330 N 
HETATM   12  C14 UNL     1     -17.568  38.061 -10.844  1.00  0.00     0.139 A 
ATOM     13  H13 UNL     1     -16.186  38.261 -12.376  1.00  0.00     0.168 HD
ATOM     14  H22 UNL     1     -19.876  41.682 -10.061  1.00  0.00     0.157 HD
ATOM     15  H21 UNL     1     -20.183  40.240  -9.063  1.00  0.00     0.157 HD
BRANCH  12  16
HETATM   16  N10 UNL     1     -17.154  36.726 -10.589  1.00  0.00    -0.327 N 
ATOM     17  H10 UNL     1     -16.694  36.484  -9.712  1.00  0.00     0.169 HD
BRANCH  16  18
HETATM   18  C15 UNL     1     -17.370  35.829 -11.483  1.00  0.00     0.108 A 
HETATM   19  C16 UNL     1     -16.704  34.601 -11.391  1.00  0.00     0.075 A 
HETATM   20  C17 UNL     1     -16.887  33.596 -12.309  1.00  0.00     0.051 A 
HETATM   21  N11 UNL     1     -16.195  32.339 -12.207  1.00  0.00    -0.102 NA
HETATM   22  C18 UNL     1     -17.766  33.814 -13.363  1.00  0.00     0.043 A 
HETATM   23  C19 UNL     1     -18.405  35.031 -13.427  1.00  0.00     0.091 A 
HETATM   24  N12 UNL     1     -18.210  36.004 -12.514  1.00  0.00    -0.352 N 
ATOM     25  H12 UNL     1     -18.709  36.889 -12.609  1.00  0.00     0.166 HD
ENDBRANCH  16  18
ENDBRANCH  12  16
ENDBRANCH   2   4
ENDBRANCH   1   2
BRANCH   1  26
HETATM   26  C6  UNL     1     -21.172  36.464  -8.880  1.00  0.00     0.195 C 
BRANCH  26  27
HETATM   27  O1  UNL     1     -21.776  37.451  -8.098  1.00  0.00    -0.398 OA
ATOM     28  H1  UNL     1     -22.590  37.682  -8.530  1.00  0.00     0.209 HD
ENDBRANCH  26  27
ENDBRANCH   1  26
BRANCH   1  29
HETATM   29  C7  UNL     1     -19.220  36.072  -7.567  1.00  0.00     0.083 A 
HETATM   30  N4  UNL     1     -19.420  36.660  -6.363  1.00  0.00    -0.191 N 
HETATM   31  C8  UNL     1     -18.955  36.103  -5.203  1.00  0.00     0.677 A 
ATOM     32  H4  UNL     1     -19.931  37.541  -6.320  1.00  0.00     0.184 HD
HETATM   33  N5  UNL     1     -19.157  36.681  -4.067  1.00  0.00    -0.234 N 
HETATM   34  N6  UNL     1     -18.278  34.949  -5.185  1.00  0.00    -0.173 N 
ATOM     35  H52 UNL     1     -19.673  37.561  -4.080  1.00  0.00     0.174 HD
ATOM     36  H51 UNL     1     -18.810  36.265  -3.202  1.00  0.00     0.174 HD
HETATM   37  C9  UNL     1     -18.056  34.329  -6.350  1.00  0.00     0.169 A 
ATOM     38  H6  UNL     1     -17.941  34.553  -4.308  1.00  0.00     0.186 HD
HETATM   39  C10 UNL     1     -18.522  34.887  -7.515  1.00  0.00     0.120 A 
HETATM   40  N9  UNL     1     -17.419  33.144  -6.597  1.00  0.00    -0.257 N 
HETATM   41  N7  UNL     1     -18.146  34.001  -8.468  1.00  0.00    -0.281 N 
HETATM   42  N8  UNL     1     -17.492  32.977  -7.889  1.00  0.00    -0.238 N 
ATOM     43  H7  UNL     1     -18.330  34.095  -9.468  1.00  0.00     0.188 HD
ATOM     44  H8  UNL     1     -17.105  32.178  -8.392  1.00  0.00     0.208 HD
BRANCH  40  45
HETATM   45  C11 UNL     1     -16.792  32.287  -5.650  1.00  0.00     0.186 C 
BRANCH  45  46
HETATM   46  C12 UNL     1     -15.320  32.447  -5.506  1.00  0.00     0.161 C 
BRANCH  46  47
HETATM   47  O2  UNL     1     -14.679  32.785  -6.689  1.00  0.00    -0.392 OA
ATOM     48  H2  UNL     1     -13.772  33.038  -6.572  1.00  0.00     0.210 HD
ENDBRANCH  46  47
BRANCH  46  49
HETATM   49  C13 UNL     1     -14.891  33.358  -4.387  1.00  0.00     0.197 C 
BRANCH  49  50
HETATM   50  O3  UNL     1     -15.188  34.689  -4.584  1.00  0.00    -0.398 OA
ATOM     51  H3  UNL     1     -14.567  35.295  -4.197  1.00  0.00     0.209 HD
ENDBRANCH  49  50
ENDBRANCH  46  49
ENDBRANCH  45  46
ENDBRANCH  40  45
ENDBRANCH   1  29
TORSDOF 12
ENDMDL
MODEL 2
REMARK VINA RESULT: -7.964926008      0.677      1.102
REMARK  12 active torsions:
REMARK  status: ('A' for Active; 'I' for Inactive)
REMARK    1  A    between atoms: C4_9  and  N3_10 
REMARK    2  A    between atoms: N3_10  and  C5_12 
REMARK    3  A    between atoms: C5_12  and  C6_13 
REMARK    4  A    between atoms: C5_12  and  C7_16 
REMARK    5  A    between atoms: C6_13  and  O1_14 
REMARK    6  A    between atoms: N9_31  and  C11_32 
REMARK    7  A    between atoms: C11_32  and  C12_33 
REMARK    8  A    between atoms: C12_33  and  O2_34 
REMARK    9  A    between atoms: C12_33  and  C13_36 
REMARK   10  A    between atoms: C13_36  and  O3_37 
REMARK   11  A    between atoms: C14_39  and  N10_40 
REMARK   12  A    between atoms: N10_40  and  C15_42 
ROOT
HETATM    1  C5  UNL     1     -19.761  36.725  -8.693  1.00  0.00     0.158 C 
ENDROOT
BRANCH   1   2
HETATM    2  N3  UNL     1     -19.341  38.034  -9.026  1.00  0.00    -0.372 N 
ATOM      3  H3  UNL     1     -19.680  38.742  -8.375  1.00  0.00     0.160 HD
BRANCH   2   4
HETATM    4  C4  UNL     1     -18.562  38.562 -10.055  1.00  0.00     0.117 A 
HETATM    5  C3  UNL     1     -18.850  39.846 -10.533  1.00  0.00     0.131 A 
HETATM    6  N1  UNL     1     -18.139  40.400 -11.557  1.00  0.00    -0.331 N 
HETATM    7  N2  UNL     1     -19.746  40.613 -10.027  1.00  0.00    -0.383 N 
HETATM    8  C2  UNL     1     -17.134  39.757 -12.159  1.00  0.00     0.080 A 
ATOM      9  H1  UNL     1     -18.384  41.338 -11.875  1.00  0.00     0.168 HD
HETATM   10  C1  UNL     1     -16.375  40.405 -13.292  1.00  0.00     0.089 C 
HETATM   11  N13 UNL     1     -16.833  38.541 -11.727  1.00  0.00    -0.330 N 
HETATM   12  C14 UNL     1     -17.522  37.939 -10.697  1.00  0.00     0.139 A 
ATOM     13  H13 UNL     1     -16.068  38.035 -12.172  1.00  0.00     0.168 HD
ATOM     14  H22 UNL     1     -19.955  41.549 -10.376  1.00  0.00     0.157 HD
ATOM     15  H21 UNL     1     -20.277  40.199  -9.262  1.00  0.00     0.157 HD
BRANCH  12  16
HETATM   16  N10 UNL     1     -17.089  36.647 -10.296  1.00  0.00    -0.327 N 
ATOM     17  H10 UNL     1     -16.689  36.498  -9.371  1.00  0.00     0.169 HD
BRANCH  16  18
HETATM   18  C15 UNL     1     -17.211  35.669 -11.121  1.00  0.00     0.108 A 
HETATM   19  C16 UNL     1     -18.373  35.572 -11.896  1.00  0.00     0.075 A 
HETATM   20  C17 UNL     1     -18.572  34.556 -12.798  1.00  0.00     0.051 A 
HETATM   21  N11 UNL     1     -19.770  34.464 -13.587  1.00  0.00    -0.102 NA
HETATM   22  C18 UNL     1     -17.580  33.594 -12.939  1.00  0.00     0.043 A 
HETATM   23  C19 UNL     1     -16.449  33.714 -12.163  1.00  0.00     0.091 A 
HETATM   24  N12 UNL     1     -16.276  34.721 -11.283  1.00  0.00    -0.352 N 
ATOM     25  H12 UNL     1     -15.419  34.764 -10.731  1.00  0.00     0.166 HD
ENDBRANCH  16  18
ENDBRANCH  12  16
ENDBRANCH   2   4
ENDBRANCH   1   2
BRANCH   1  26
HETATM   26  C6  UNL     1     -21.282  36.574  -8.661  1.00  0.00     0.195 C 
BRANCH  26  27
HETATM   27  O1  UNL     1     -21.776  37.643  -7.910  1.00  0.00    -0.398 OA
ATOM     28  H1  UNL     1     -22.698  37.470  -7.762  1.00  0.00     0.209 HD
ENDBRANCH  26  27
ENDBRANCH   1  26
BRANCH   1  29
HETATM   29  C7  UNL     1     -19.268  36.093  -7.477  1.00  0.00     0.083 A 
HETATM   30  N4  UNL     1     -19.424  36.678  -6.264  1.00  0.00    -0.191 N 
HETATM   31  C8  UNL     1     -18.914  36.119  -5.125  1.00  0.00     0.677 A 
ATOM     32  H4  UNL     1     -19.935  37.558  -6.200  1.00  0.00     0.184 HD
HETATM   33  N5  UNL     1     -19.074  36.694  -3.980  1.00  0.00    -0.234 N 
HETATM   34  N6  UNL     1     -18.234  34.967  -5.135  1.00  0.00    -0.173 N 
ATOM     35  H52 UNL     1     -19.592  37.573  -3.972  1.00  0.00     0.174 HD
ATOM     36  H51 UNL     1     -18.693  36.278  -3.130  1.00  0.00     0.174 HD
HETATM   37  C9  UNL     1     -18.055  34.350  -6.309  1.00  0.00     0.169 A 
ATOM     38  H6  UNL     1     -17.862  34.570  -4.272  1.00  0.00     0.186 HD
HETATM   39  C10 UNL     1     -18.567  34.909  -7.454  1.00  0.00     0.120 A 
HETATM   40  N9  UNL     1     -17.425  33.168  -6.583  1.00  0.00    -0.257 N 
HETATM   41  N7  UNL     1     -18.225  34.026  -8.423  1.00  0.00    -0.281 N 
HETATM   42  N8  UNL     1     -17.547  33.003  -7.872  1.00  0.00    -0.238 N 
ATOM     43  H7  UNL     1     -18.447  34.122  -9.414  1.00  0.00     0.188 HD
ATOM     44  H8  UNL     1     -17.178  32.206  -8.391  1.00  0.00     0.208 HD
BRANCH  40  45
HETATM   45  C11 UNL     1     -16.761  32.310  -5.662  1.00  0.00     0.186 C 
BRANCH  45  46
HETATM   46  C12 UNL     1     -15.285  32.476  -5.571  1.00  0.00     0.161 C 
BRANCH  46  47
HETATM   47  O2  UNL     1     -14.694  32.867  -6.764  1.00  0.00    -0.392 OA
ATOM     48  H2  UNL     1     -14.122  33.619  -6.677  1.00  0.00     0.210 HD
ENDBRANCH  46  47
BRANCH  46  49
HETATM   49  C13 UNL     1     -14.818  33.347  -4.434  1.00  0.00     0.197 C 
BRANCH  49  50
HETATM   50  O3  UNL     1     -15.166  34.675  -4.547  1.00  0.00    -0.398 OA
ATOM     51  H3  UNL     1     -15.376  35.101  -3.725  1.00  0.00     0.209 HD
ENDBRANCH  49  50
ENDBRANCH  46  49
ENDBRANCH  45  46
ENDBRANCH  40  45
ENDBRANCH   1  29
TORSDOF 12
ENDMDL
MODEL 3
REMARK VINA RESULT: -7.631467066      1.775      4.059
REMARK  12 active torsions:
REMARK  status: ('A' for Active; 'I' for Inactive)
REMARK    1  A    between atoms: C4_9  and  N3_10 
REMARK    2  A    between atoms: N3_10  and  C5_12 
REMARK    3  A    between atoms: C5_12  and  C6_13 
REMARK    4  A    between atoms: C5_12  and  C7_16 
REMARK    5  A    between atoms: C6_13  and  O1_14 
REMARK    6  A    between atoms: N9_31  and  C11_32 
REMARK    7  A    between atoms: C11_32  and  C12_33 
REMARK    8  A    between atoms: C12_33  and  O2_34 
REMARK    9  A    between atoms: C12_33  and  C13_36 
REMARK   10  A    between atoms: C13_36  and  O3_37 
REMARK   11  A    between atoms: C14_39  and  N10_40 
REMARK   12  A    between atoms: N10_40  and  C15_42 
ROOT
HETATM    1  C5  UNL     1     -20.074  34.684  -8.338  1.00  0.00     0.158 C 
ENDROOT
BRANCH   1   2
HETATM    2  N3  UNL     1     -19.429  35.147  -9.510  1.00  0.00    -0.372 N 
ATOM      3  H3  UNL     1     -19.704  36.094  -9.773  1.00  0.00     0.160 HD
BRANCH   2   4
HETATM    4  C4  UNL     1     -18.499  34.584 -10.383  1.00  0.00     0.117 A 
HETATM    5  C3  UNL     1     -18.764  33.328 -10.938  1.00  0.00     0.131 A 
HETATM    6  N1  UNL     1     -17.875  32.717 -11.774  1.00  0.00    -0.331 N 
HETATM    7  N2  UNL     1     -19.858  32.681 -10.757  1.00  0.00    -0.383 N 
HETATM    8  C2  UNL     1     -16.710  33.278 -12.112  1.00  0.00     0.080 A 
ATOM      9  H1  UNL     1     -18.108  31.799 -12.155  1.00  0.00     0.168 HD
HETATM   10  C1  UNL     1     -15.753  32.567 -13.037  1.00  0.00     0.089 C 
HETATM   11  N13 UNL     1     -16.431  34.470 -11.606  1.00  0.00    -0.330 N 
HETATM   12  C14 UNL     1     -17.295  35.126 -10.757  1.00  0.00     0.139 A 
ATOM     13  H13 UNL     1     -15.548  34.917 -11.853  1.00  0.00     0.168 HD
ATOM     14  H22 UNL     1     -20.051  31.765 -11.162  1.00  0.00     0.157 HD
ATOM     15  H21 UNL     1     -20.522  33.138 -10.132  1.00  0.00     0.157 HD
BRANCH  12  16
HETATM   16  N10 UNL     1     -16.906  36.415 -10.304  1.00  0.00    -0.327 N 
ATOM     17  H10 UNL     1     -16.465  36.534  -9.393  1.00  0.00     0.169 HD
BRANCH  16  18
HETATM   18  C15 UNL     1     -17.118  37.430 -11.064  1.00  0.00     0.108 A 
HETATM   19  C16 UNL     1     -16.271  38.540 -10.971  1.00  0.00     0.075 A 
HETATM   20  C17 UNL     1     -16.437  39.658 -11.751  1.00  0.00     0.051 A 
HETATM   21  N11 UNL     1     -15.564  40.795 -11.645  1.00  0.00    -0.102 NA
HETATM   22  C18 UNL     1     -17.486  39.678 -12.663  1.00  0.00     0.043 A 
HETATM   23  C19 UNL     1     -18.302  38.573 -12.731  1.00  0.00     0.091 A 
HETATM   24  N12 UNL     1     -18.120  37.486 -11.954  1.00  0.00    -0.352 N 
ATOM     25  H12 UNL     1     -18.756  36.692 -12.044  1.00  0.00     0.166 HD
ENDBRANCH  16  18
ENDBRANCH  12  16
ENDBRANCH   2   4
ENDBRANCH   1   2
BRANCH   1  26
HETATM   26  C6  UNL     1     -21.488  35.241  -8.173  1.00  0.00     0.195 C 
BRANCH  26  27
HETATM   27  O1  UNL     1     -22.136  34.422  -7.246  1.00  0.00    -0.398 OA
ATOM     28  H1  UNL     1     -22.895  34.904  -6.939  1.00  0.00     0.209 HD
ENDBRANCH  26  27
ENDBRANCH   1  26
BRANCH   1  29
HETATM   29  C7  UNL     1     -19.425  34.844  -7.044  1.00  0.00     0.083 A 
HETATM   30  N4  UNL     1     -19.908  35.700  -6.112  1.00  0.00    -0.191 N 
HETATM   31  C8  UNL     1     -19.273  35.898  -4.917  1.00  0.00     0.677 A 
ATOM     32  H4  UNL     1     -20.769  36.211  -6.307  1.00  0.00     0.184 HD
HETATM   33  N5  UNL     1     -19.751  36.720  -4.044  1.00  0.00    -0.234 N 
HETATM   34  N6  UNL     1     -18.141  35.262  -4.595  1.00  0.00    -0.173 N 
ATOM     35  H52 UNL     1     -20.614  37.205  -4.290  1.00  0.00     0.174 HD
ATOM     36  H51 UNL     1     -19.277  36.867  -3.152  1.00  0.00     0.174 HD
HETATM   37  C9  UNL     1     -17.624  34.403  -5.482  1.00  0.00     0.169 A 
ATOM     38  H6  UNL     1     -17.684  35.426  -3.698  1.00  0.00     0.186 HD
HETATM   39  C10 UNL     1     -18.261  34.204  -6.683  1.00  0.00     0.120 A 
HETATM   40  N9  UNL     1     -16.506  33.623  -5.388  1.00  0.00    -0.257 N 
HETATM   41  N7  UNL     1     -17.492  33.279  -7.304  1.00  0.00    -0.281 N 
HETATM   42  N8  UNL     1     -16.456  32.955  -6.507  1.00  0.00    -0.238 N 
ATOM     43  H7  UNL     1     -17.669  32.889  -8.230  1.00  0.00     0.188 HD
ATOM     44  H8  UNL     1     -15.730  32.279  -6.747  1.00  0.00     0.208 HD
BRANCH  40  45
HETATM   45  C11 UNL     1     -15.582  33.565  -4.306  1.00  0.00     0.186 C 
BRANCH  45  46
HETATM   46  C12 UNL     1     -14.323  32.816  -4.569  1.00  0.00     0.161 C 
BRANCH  46  47
HETATM   47  O2  UNL     1     -13.595  33.311  -5.641  1.00  0.00    -0.392 OA
ATOM     48  H2  UNL     1     -12.773  32.857  -5.784  1.00  0.00     0.210 HD
ENDBRANCH  46  47
BRANCH  46  49
HETATM   49  C13 UNL     1     -13.440  32.628  -3.363  1.00  0.00     0.197 C 
BRANCH  49  50
HETATM   50  O3  UNL     1     -13.649  31.454  -2.674  1.00  0.00    -0.398 OA
ATOM     51  H3  UNL     1     -12.949  31.214  -2.079  1.00  0.00     0.209 HD
ENDBRANCH  49  50
ENDBRANCH  46  49
ENDBRANCH  45  46
ENDBRANCH  40  45
ENDBRANCH   1  29
TORSDOF 12
ENDMDL
MODEL 4
REMARK VINA RESULT: -7.569661272      1.334      1.450
REMARK  12 active torsions:
REMARK  status: ('A' for Active; 'I' for Inactive)
REMARK    1  A    between atoms: C4_9  and  N3_10 
REMARK    2  A    between atoms: N3_10  and  C5_12 
REMARK    3  A    between atoms: C5_12  and  C6_13 
REMARK    4  A    between atoms: C5_12  and  C7_16 
REMARK    5  A    between atoms: C6_13  and  O1_14 
REMARK    6  A    between atoms: N9_31  and  C11_32 
REMARK    7  A    between atoms: C11_32  and  C12_33 
REMARK    8  A    between atoms: C12_33  and  O2_34 
REMARK    9  A    between atoms: C12_33  and  C13_36 
REMARK   10  A    between atoms: C13_36  and  O3_37 
REMARK   11  A    between atoms: C14_39  and  N10_40 
REMARK   12  A    between atoms: N10_40  and  C15_42 
ROOT
HETATM    1  C5  UNL     1     -19.656  35.240  -8.683  1.00  0.00     0.158 C 
ENDROOT
BRANCH   1   2
HETATM    2  N3  UNL     1     -19.797  36.485  -9.341  1.00  0.00    -0.372 N 
ATOM      3  H3  UNL     1     -20.762  36.811  -9.382  1.00  0.00     0.160 HD
BRANCH   2   4
HETATM    4  C4  UNL     1     -18.896  37.360  -9.947  1.00  0.00     0.117 A 
HETATM    5  C3  UNL     1     -19.248  38.707 -10.084  1.00  0.00     0.131 A 
HETATM    6  N1  UNL     1     -18.418  39.601 -10.695  1.00  0.00    -0.331 N 
HETATM    7  N2  UNL     1     -20.329  39.216  -9.614  1.00  0.00    -0.383 N 
HETATM    8  C2  UNL     1     -17.229  39.248 -11.192  1.00  0.00     0.080 A 
ATOM      9  H1  UNL     1     -18.716  40.574 -10.775  1.00  0.00     0.168 HD
HETATM   10  C1  UNL     1     -16.342  40.268 -11.864  1.00  0.00     0.089 C 
HETATM   11  N13 UNL     1     -16.864  37.980 -11.075  1.00  0.00    -0.330 N 
HETATM   12  C14 UNL     1     -17.667  37.040 -10.467  1.00  0.00     0.139 A 
ATOM     13  H13 UNL     1     -15.959  37.690 -11.446  1.00  0.00     0.168 HD
ATOM     14  H22 UNL     1     -20.585  40.198  -9.714  1.00  0.00     0.157 HD
ATOM     15  H21 UNL     1     -20.949  38.547  -9.157  1.00  0.00     0.157 HD
BRANCH  12  16
HETATM   16  N10 UNL     1     -17.157  35.718 -10.368  1.00  0.00    -0.327 N 
ATOM     17  H10 UNL     1     -16.707  35.398  -9.510  1.00  0.00     0.169 HD
BRANCH  16  18
HETATM   18  C15 UNL     1     -17.272  34.932 -11.377  1.00  0.00     0.108 A 
HETATM   19  C16 UNL     1     -16.781  33.624 -11.282  1.00  0.00     0.075 A 
HETATM   20  C17 UNL     1     -16.870  32.729 -12.320  1.00  0.00     0.051 A 
HETATM   21  N11 UNL     1     -16.359  31.389 -12.212  1.00  0.00    -0.102 NA
HETATM   22  C18 UNL     1     -17.469  33.145 -13.502  1.00  0.00     0.043 A 
HETATM   23  C19 UNL     1     -17.942  34.435 -13.566  1.00  0.00     0.091 A 
HETATM   24  N12 UNL     1     -17.843  35.298 -12.534  1.00  0.00    -0.352 N 
ATOM     25  H12 UNL     1     -18.209  36.245 -12.635  1.00  0.00     0.166 HD
ENDBRANCH  16  18
ENDBRANCH  12  16
ENDBRANCH   2   4
ENDBRANCH   1   2
BRANCH   1  26
HETATM   26  C6  UNL     1     -20.931  34.397  -8.717  1.00  0.00     0.195 C 
BRANCH  26  27
HETATM   27  O1  UNL     1     -21.938  35.168  -8.132  1.00  0.00    -0.398 OA
ATOM     28  H1  UNL     1     -22.205  35.808  -8.781  1.00  0.00     0.209 HD
ENDBRANCH  26  27
ENDBRANCH   1  26
BRANCH   1  29
HETATM   29  C7  UNL     1     -19.183  35.199  -7.306  1.00  0.00     0.083 A 
HETATM   30  N4  UNL     1     -19.741  35.973  -6.344  1.00  0.00    -0.191 N 
HETATM   31  C8  UNL     1     -19.266  35.982  -5.061  1.00  0.00     0.677 A 
ATOM     32  H4  UNL     1     -20.537  36.564  -6.582  1.00  0.00     0.184 HD
HETATM   33  N5  UNL     1     -19.813  36.728  -4.161  1.00  0.00    -0.234 N 
HETATM   34  N6  UNL     1     -18.226  35.232  -4.678  1.00  0.00    -0.173 N 
ATOM     35  H52 UNL     1     -20.605  37.300  -4.453  1.00  0.00     0.174 HD
ATOM     36  H51 UNL     1     -19.458  36.735  -3.204  1.00  0.00     0.174 HD
HETATM   37  C9  UNL     1     -17.641  34.448  -5.592  1.00  0.00     0.169 A 
ATOM     38  H6  UNL     1     -17.889  35.256  -3.716  1.00  0.00     0.186 HD
HETATM   39  C10 UNL     1     -18.118  34.438  -6.881  1.00  0.00     0.120 A 
HETATM   40  N9  UNL     1     -16.592  33.583  -5.453  1.00  0.00    -0.257 N 
HETATM   41  N7  UNL     1     -17.323  33.539  -7.509  1.00  0.00    -0.281 N 
HETATM   42  N8  UNL     1     -16.426  33.050  -6.632  1.00  0.00    -0.238 N 
ATOM     43  H7  UNL     1     -17.394  33.274  -8.492  1.00  0.00     0.188 HD
ATOM     44  H8  UNL     1     -15.714  32.356  -6.859  1.00  0.00     0.208 HD
BRANCH  40  45
HETATM   45  C11 UNL     1     -15.831  33.332  -4.277  1.00  0.00     0.186 C 
BRANCH  45  46
HETATM   46  C12 UNL     1     -14.473  32.762  -4.494  1.00  0.00     0.161 C 
BRANCH  46  47
HETATM   47  O2  UNL     1     -13.770  33.375  -5.521  1.00  0.00    -0.392 OA
ATOM     48  H2  UNL     1     -13.079  32.835  -5.884  1.00  0.00     0.210 HD
ENDBRANCH  46  47
BRANCH  46  49
HETATM   49  C13 UNL     1     -13.627  32.662  -3.252  1.00  0.00     0.197 C 
BRANCH  49  50
HETATM   50  O3  UNL     1     -13.734  31.466  -2.578  1.00  0.00    -0.398 OA
ATOM     51  H3  UNL     1     -12.915  31.130  -2.234  1.00  0.00     0.209 HD
ENDBRANCH  49  50
ENDBRANCH  46  49
ENDBRANCH  45  46
ENDBRANCH  40  45
ENDBRANCH   1  29
TORSDOF 12
ENDMDL
MODEL 5
REMARK VINA RESULT: -7.506628009      2.015      4.339
REMARK  12 active torsions:
REMARK  status: ('A' for Active; 'I' for Inactive)
REMARK    1  A    between atoms: C4_9  and  N3_10 
REMARK    2  A    between atoms: N3_10  and  C5_12 
REMARK    3  A    between atoms: C5_12  and  C6_13 
REMARK    4  A    between atoms: C5_12  and  C7_16 
REMARK    5  A    between atoms: C6_13  and  O1_14 
REMARK    6  A    between atoms: N9_31  and  C11_32 
REMARK    7  A    between atoms: C11_32  and  C12_33 
REMARK    8  A    between atoms: C12_33  and  O2_34 
REMARK    9  A    between atoms: C12_33  and  C13_36 
REMARK   10  A    between atoms: C13_36  and  O3_37 
REMARK   11  A    between atoms: C14_39  and  N10_40 
REMARK   12  A    between atoms: N10_40  and  C15_42 
ROOT
HETATM    1  C5  UNL     1     -19.683  34.786  -8.897  1.00  0.00     0.158 C 
ENDROOT
BRANCH   1   2
HETATM    2  N3  UNL     1     -19.777  35.947  -9.699  1.00  0.00    -0.372 N 
ATOM      3  H3  UNL     1     -20.720  36.118 -10.049  1.00  0.00     0.160 HD
BRANCH   2   4
HETATM    4  C4  UNL     1     -18.856  36.909 -10.113  1.00  0.00     0.117 A 
HETATM    5  C3  UNL     1     -17.566  36.502 -10.470  1.00  0.00     0.131 A 
HETATM    6  N1  UNL     1     -16.616  37.403 -10.854  1.00  0.00    -0.331 N 
HETATM    7  N2  UNL     1     -17.190  35.275 -10.518  1.00  0.00    -0.383 N 
HETATM    8  C2  UNL     1     -16.859  38.715 -10.914  1.00  0.00     0.080 A 
ATOM      9  H1  UNL     1     -15.687  37.062 -11.105  1.00  0.00     0.168 HD
HETATM   10  C1  UNL     1     -15.779  39.680 -11.341  1.00  0.00     0.089 C 
HETATM   11  N13 UNL     1     -18.073  39.133 -10.586  1.00  0.00    -0.330 N 
HETATM   12  C14 UNL     1     -19.065  38.263 -10.191  1.00  0.00     0.139 A 
ATOM     13  H13 UNL     1     -18.279  40.131 -10.626  1.00  0.00     0.168 HD
ATOM     14  H22 UNL     1     -16.249  34.979 -10.779  1.00  0.00     0.157 HD
ATOM     15  H21 UNL     1     -17.900  34.602 -10.231  1.00  0.00     0.157 HD
BRANCH  12  16
HETATM   16  N10 UNL     1     -20.337  38.821  -9.897  1.00  0.00    -0.327 N 
ATOM     17  H10 UNL     1     -21.057  38.880 -10.616  1.00  0.00     0.169 HD
BRANCH  16  18
HETATM   18  C15 UNL     1     -20.566  39.250  -8.707  1.00  0.00     0.108 A 
HETATM   19  C16 UNL     1     -21.397  38.505  -7.862  1.00  0.00     0.075 A 
HETATM   20  C17 UNL     1     -21.684  38.901  -6.579  1.00  0.00     0.051 A 
HETATM   21  N11 UNL     1     -22.542  38.130  -5.720  1.00  0.00    -0.102 NA
HETATM   22  C18 UNL     1     -21.126  40.084  -6.111  1.00  0.00     0.043 A 
HETATM   23  C19 UNL     1     -20.314  40.795  -6.965  1.00  0.00     0.091 A 
HETATM   24  N12 UNL     1     -20.046  40.387  -8.222  1.00  0.00    -0.352 N 
ATOM     25  H12 UNL     1     -19.437  40.952  -8.814  1.00  0.00     0.166 HD
ENDBRANCH  16  18
ENDBRANCH  12  16
ENDBRANCH   2   4
ENDBRANCH   1   2
BRANCH   1  26
HETATM   26  C6  UNL     1     -20.988  33.993  -8.834  1.00  0.00     0.195 C 
BRANCH  26  27
HETATM   27  O1  UNL     1     -21.972  34.875  -8.381  1.00  0.00    -0.398 OA
ATOM     28  H1  UNL     1     -22.340  34.493  -7.593  1.00  0.00     0.209 HD
ENDBRANCH  26  27
ENDBRANCH   1  26
BRANCH   1  29
HETATM   29  C7  UNL     1     -19.209  34.890  -7.524  1.00  0.00     0.083 A 
HETATM   30  N4  UNL     1     -19.791  35.735  -6.638  1.00  0.00    -0.191 N 
HETATM   31  C8  UNL     1     -19.316  35.881  -5.364  1.00  0.00     0.677 A 
ATOM     32  H4  UNL     1     -20.605  36.276  -6.930  1.00  0.00     0.184 HD
HETATM   33  N5  UNL     1     -19.886  36.692  -4.537  1.00  0.00    -0.234 N 
HETATM   34  N6  UNL     1     -18.254  35.203  -4.914  1.00  0.00    -0.173 N 
ATOM     35  H52 UNL     1     -20.695  37.210  -4.880  1.00  0.00     0.174 HD
ATOM     36  H51 UNL     1     -19.532  36.801  -3.586  1.00  0.00     0.174 HD
HETATM   37  C9  UNL     1     -17.646  34.354  -5.750  1.00  0.00     0.169 A 
ATOM     38  H6  UNL     1     -17.918  35.329  -3.959  1.00  0.00     0.186 HD
HETATM   39  C10 UNL     1     -18.121  34.206  -7.031  1.00  0.00     0.120 A 
HETATM   40  N9  UNL     1     -16.570  33.538  -5.532  1.00  0.00    -0.257 N 
HETATM   41  N7  UNL     1     -17.299  33.276  -7.573  1.00  0.00    -0.281 N 
HETATM   42  N8  UNL     1     -16.388  32.900  -6.656  1.00  0.00    -0.238 N 
ATOM     43  H7  UNL     1     -17.361  32.917  -8.526  1.00  0.00     0.188 HD
ATOM     44  H8  UNL     1     -15.654  32.210  -6.817  1.00  0.00     0.208 HD
BRANCH  40  45
HETATM   45  C11 UNL     1     -15.802  33.424  -4.340  1.00  0.00     0.186 C 
BRANCH  45  46
HETATM   46  C12 UNL     1     -14.468  32.780  -4.488  1.00  0.00     0.161 C 
BRANCH  46  47
HETATM   47  O2  UNL     1     -13.700  33.320  -5.509  1.00  0.00    -0.392 OA
ATOM     48  H2  UNL     1     -13.643  32.765  -6.277  1.00  0.00     0.210 HD
ENDBRANCH  46  47
BRANCH  46  49
HETATM   49  C13 UNL     1     -13.672  32.683  -3.213  1.00  0.00     0.197 C 
BRANCH  49  50
HETATM   50  O3  UNL     1     -13.731  31.456  -2.590  1.00  0.00    -0.398 OA
ATOM     51  H3  UNL     1     -14.502  31.322  -2.052  1.00  0.00     0.209 HD
ENDBRANCH  49  50
ENDBRANCH  46  49
ENDBRANCH  45  46
ENDBRANCH  40  45
ENDBRANCH   1  29
TORSDOF 12
ENDMDL
