MODEL 1
REMARK VINA RESULT: -6.949398388      0.000      0.000
REMARK  3 active torsions:
REMARK  status: ('A' for Active; 'I' for Inactive)
REMARK       I    between atoms: C1_2  and  N2_4 
REMARK    1  A    between atoms: N2_4  and  C2_6 
REMARK    2  A    between atoms: C3_11  and  S1_12 
REMARK    3  A    between atoms: S1_12  and  N5_13 
ROOT
HETATM    1  C2  UNL     1     -17.127  37.536 -10.464  1.00  0.00     0.169 A 
HETATM    2  N3  UNL     1     -18.246  38.244 -10.623  1.00  0.00    -0.278 N 
ATOM      3  H3  UNL     1     -18.990  38.202  -9.927  1.00  0.00     0.189 HD
HETATM    4  N4  UNL     1     -18.366  38.972 -11.653  1.00  0.00    -0.281 N 
ATOM      5  H4  UNL     1     -19.217  39.519 -11.788  1.00  0.00     0.188 HD
HETATM    6  C3  UNL     1     -17.401  39.030 -12.557  1.00  0.00     0.208 A 
HETATM    7  S2  UNL     1     -16.251  37.969 -11.877  1.00  0.00    -0.020 SA
ENDROOT
BRANCH   6   8
HETATM    8  S1  UNL     1     -17.395  39.977 -14.033  1.00  0.00     0.280 S 
HETATM    9  O2  UNL     1     -17.812  39.120 -15.192  1.00  0.00    -0.199 OA
HETATM   10  O3  UNL     1     -16.001  40.471 -14.300  1.00  0.00    -0.199 OA
BRANCH   8  11
HETATM   11  N5  UNL     1     -18.463  41.320 -13.872  1.00  0.00    -0.323 N 
ATOM     12  H52 UNL     1     -19.441  41.315 -14.163  1.00  0.00     0.169 HD
ATOM     13  H51 UNL     1     -17.970  42.107 -13.447  1.00  0.00     0.169 HD
ENDBRANCH   8  11
ENDBRANCH   6   8
BRANCH   1  14
HETATM   14  N2  UNL     1     -16.814  36.730  -9.473  1.00  0.00    -0.290 N 
HETATM   15  C1  UNL     1     -17.671  35.646  -9.151  1.00  0.00     0.334 C 
HETATM   16  N1  UNL     1     -19.080  35.686  -9.330  1.00  0.00    -0.040 NA
HETATM   17  O1  UNL     1     -17.134  34.596  -8.682  1.00  0.00    -0.251 OA
ATOM     18  H2  UNL     1     -15.959  36.883  -8.939  1.00  0.00     0.172 HD
ENDBRANCH   1  14
TORSDOF 3
ENDMDL
MODEL 2
REMARK VINA RESULT: -6.823608864      2.902      3.856
REMARK  3 active torsions:
REMARK  status: ('A' for Active; 'I' for Inactive)
REMARK       I    between atoms: C1_2  and  N2_4 
REMARK    1  A    between atoms: N2_4  and  C2_6 
REMARK    2  A    between atoms: C3_11  and  S1_12 
REMARK    3  A    between atoms: S1_12  and  N5_13 
ROOT
HETATM    1  C2  UNL     1     -18.127  35.354  -8.042  1.00  0.00     0.169 A 
HETATM    2  N3  UNL     1     -16.829  35.277  -8.336  1.00  0.00    -0.278 N 
ATOM      3  H3  UNL     1     -16.200  34.710  -7.767  1.00  0.00     0.189 HD
HETATM    4  N4  UNL     1     -16.389  35.920  -9.336  1.00  0.00    -0.281 N 
ATOM      5  H4  UNL     1     -15.398  35.870  -9.572  1.00  0.00     0.188 HD
HETATM    6  C3  UNL     1     -17.203  36.655 -10.077  1.00  0.00     0.208 A 
HETATM    7  S2  UNL     1     -18.691  36.402  -9.281  1.00  0.00    -0.020 SA
ENDROOT
BRANCH   6   8
HETATM    8  S1  UNL     1     -16.774  37.605 -11.488  1.00  0.00     0.280 S 
HETATM    9  O2  UNL     1     -17.779  37.383 -12.579  1.00  0.00    -0.199 OA
HETATM   10  O3  UNL     1     -15.432  37.161 -11.997  1.00  0.00    -0.199 OA
BRANCH   8  11
HETATM   11  N5  UNL     1     -16.710  39.277 -11.071  1.00  0.00    -0.323 N 
ATOM     12  H52 UNL     1     -17.130  40.023 -11.625  1.00  0.00     0.169 HD
ATOM     13  H51 UNL     1     -16.193  39.397 -10.199  1.00  0.00     0.169 HD
ENDBRANCH   8  11
ENDBRANCH   6   8
BRANCH   1  14
HETATM   14  N2  UNL     1     -18.769  34.767  -7.056  1.00  0.00    -0.290 N 
HETATM   15  C1  UNL     1     -18.305  34.920  -5.725  1.00  0.00     0.334 C 
HETATM   16  N1  UNL     1     -16.933  35.086  -5.392  1.00  0.00    -0.040 NA
HETATM   17  O1  UNL     1     -19.171  34.905  -4.798  1.00  0.00    -0.251 OA
ATOM     18  H2  UNL     1     -19.599  34.205  -7.248  1.00  0.00     0.172 HD
ENDBRANCH   1  14
TORSDOF 3
ENDMDL
MODEL 3
REMARK VINA RESULT: -6.607866853      2.216      3.019
REMARK  3 active torsions:
REMARK  status: ('A' for Active; 'I' for Inactive)
REMARK       I    between atoms: C1_2  and  N2_4 
REMARK    1  A    between atoms: N2_4  and  C2_6 
REMARK    2  A    between atoms: C3_11  and  S1_12 
REMARK    3  A    between atoms: S1_12  and  N5_13 
ROOT
HETATM    1  C2  UNL     1     -18.046  35.608  -9.155  1.00  0.00     0.169 A 
HETATM    2  N3  UNL     1     -16.853  35.304  -9.667  1.00  0.00    -0.278 N 
ATOM      3  H3  UNL     1     -16.349  34.474  -9.353  1.00  0.00     0.189 HD
HETATM    4  N4  UNL     1     -16.355  36.065 -10.550  1.00  0.00    -0.281 N 
ATOM      5  H4  UNL     1     -15.443  35.845 -10.949  1.00  0.00     0.188 HD
HETATM    6  C3  UNL     1     -17.007  37.141 -10.960  1.00  0.00     0.208 A 
HETATM    7  S2  UNL     1     -18.423  37.048 -10.012  1.00  0.00    -0.020 SA
ENDROOT
BRANCH   6   8
HETATM    8  S1  UNL     1     -16.477  38.299 -12.166  1.00  0.00     0.280 S 
HETATM    9  O2  UNL     1     -17.386  38.249 -13.358  1.00  0.00    -0.199 OA
HETATM   10  O3  UNL     1     -15.092  37.941 -12.623  1.00  0.00    -0.199 OA
BRANCH   8  11
HETATM   11  N5  UNL     1     -16.470  39.886 -11.491  1.00  0.00    -0.323 N 
ATOM     12  H52 UNL     1     -16.170  40.722 -11.992  1.00  0.00     0.169 HD
ATOM     13  H51 UNL     1     -16.808  39.855 -10.528  1.00  0.00     0.169 HD
ENDBRANCH   8  11
ENDBRANCH   6   8
BRANCH   1  14
HETATM   14  N2  UNL     1     -18.724  34.952  -8.239  1.00  0.00    -0.290 N 
HETATM   15  C1  UNL     1     -18.223  34.875  -6.914  1.00  0.00     0.334 C 
HETATM   16  N1  UNL     1     -16.836  34.866  -6.605  1.00  0.00    -0.040 NA
HETATM   17  O1  UNL     1     -19.071  34.812  -5.971  1.00  0.00    -0.251 OA
ATOM     18  H2  UNL     1     -19.607  34.501  -8.480  1.00  0.00     0.172 HD
ENDBRANCH   1  14
TORSDOF 3
ENDMDL
MODEL 4
REMARK VINA RESULT: -6.464298733      1.487      1.710
REMARK  3 active torsions:
REMARK  status: ('A' for Active; 'I' for Inactive)
REMARK       I    between atoms: C1_2  and  N2_4 
REMARK    1  A    between atoms: N2_4  and  C2_6 
REMARK    2  A    between atoms: C3_11  and  S1_12 
REMARK    3  A    between atoms: S1_12  and  N5_13 
ROOT
HETATM    1  C2  UNL     1     -17.646  37.603 -10.632  1.00  0.00     0.169 A 
HETATM    2  N3  UNL     1     -18.389  38.649 -10.995  1.00  0.00    -0.278 N 
ATOM      3  H3  UNL     1     -19.178  38.949 -10.423  1.00  0.00     0.189 HD
HETATM    4  N4  UNL     1     -18.096  39.264 -12.064  1.00  0.00    -0.281 N 
ATOM      5  H4  UNL     1     -18.657  40.066 -12.354  1.00  0.00     0.188 HD
HETATM    6  C3  UNL     1     -17.072  38.878 -12.807  1.00  0.00     0.208 A 
HETATM    7  S2  UNL     1     -16.498  37.546 -11.908  1.00  0.00    -0.020 SA
ENDROOT
BRANCH   6   8
HETATM    8  S1  UNL     1     -16.524  39.605 -14.306  1.00  0.00     0.280 S 
HETATM    9  O2  UNL     1     -16.831  41.073 -14.305  1.00  0.00    -0.199 OA
HETATM   10  O3  UNL     1     -17.255  38.979 -15.459  1.00  0.00    -0.199 OA
BRANCH   8  11
HETATM   11  N5  UNL     1     -14.828  39.354 -14.493  1.00  0.00    -0.323 N 
ATOM     12  H52 UNL     1     -14.287  38.669 -13.965  1.00  0.00     0.169 HD
ATOM     13  H51 UNL     1     -14.459  39.988 -15.202  1.00  0.00     0.169 HD
ENDBRANCH   8  11
ENDBRANCH   6   8
BRANCH   1  14
HETATM   14  N2  UNL     1     -17.786  36.842  -9.569  1.00  0.00    -0.290 N 
HETATM   15  C1  UNL     1     -18.907  35.979  -9.465  1.00  0.00     0.334 C 
HETATM   16  N1  UNL     1     -20.176  36.277 -10.031  1.00  0.00    -0.040 NA
HETATM   17  O1  UNL     1     -18.749  34.889  -8.832  1.00  0.00    -0.251 OA
ATOM     18  H2  UNL     1     -17.092  36.871  -8.822  1.00  0.00     0.172 HD
ENDBRANCH   1  14
TORSDOF 3
ENDMDL
MODEL 5
REMARK VINA RESULT: -6.413816468      1.430      1.601
REMARK  3 active torsions:
REMARK  status: ('A' for Active; 'I' for Inactive)
REMARK       I    between atoms: C1_2  and  N2_4 
REMARK    1  A    between atoms: N2_4  and  C2_6 
REMARK    2  A    between atoms: C3_11  and  S1_12 
REMARK    3  A    between atoms: S1_12  and  N5_13 
ROOT
HETATM    1  C2  UNL     1     -17.187  36.998 -10.113  1.00  0.00     0.169 A 
HETATM    2  N3  UNL     1     -17.600  36.425 -11.244  1.00  0.00    -0.278 N 
ATOM      3  H3  UNL     1     -17.915  35.455 -11.250  1.00  0.00     0.189 HD
HETATM    4  N4  UNL     1     -17.597  37.109 -12.311  1.00  0.00    -0.281 N 
ATOM      5  H4  UNL     1     -17.910  36.683 -13.184  1.00  0.00     0.188 HD
HETATM    6  C3  UNL     1     -17.191  38.369 -12.306  1.00  0.00     0.208 A 
HETATM    7  S2  UNL     1     -16.790  38.577 -10.661  1.00  0.00    -0.020 SA
ENDROOT
BRANCH   6   8
HETATM    8  S1  UNL     1     -17.120  39.458 -13.678  1.00  0.00     0.280 S 
HETATM    9  O2  UNL     1     -17.508  38.731 -14.931  1.00  0.00    -0.199 OA
HETATM   10  O3  UNL     1     -15.711  39.954 -13.846  1.00  0.00    -0.199 OA
BRANCH   8  11
HETATM   11  N5  UNL     1     -18.175  40.797 -13.418  1.00  0.00    -0.323 N 
ATOM     12  H52 UNL     1     -19.187  40.762 -13.537  1.00  0.00     0.169 HD
ATOM     13  H51 UNL     1     -17.635  41.615 -13.131  1.00  0.00     0.169 HD
ENDBRANCH   8  11
ENDBRANCH   6   8
BRANCH   1  14
HETATM   14  N2  UNL     1     -17.116  36.462  -8.914  1.00  0.00    -0.290 N 
HETATM   15  C1  UNL     1     -16.172  35.435  -8.657  1.00  0.00     0.334 C 
HETATM   16  N1  UNL     1     -15.747  34.503  -9.642  1.00  0.00    -0.040 NA
HETATM   17  O1  UNL     1     -15.693  35.362  -7.484  1.00  0.00    -0.251 OA
ATOM     18  H2  UNL     1     -17.738  36.784  -8.172  1.00  0.00     0.172 HD
ENDBRANCH   1  14
TORSDOF 3
ENDMDL
