MODEL 1
REMARK VINA RESULT: -5.671552409      0.000      0.000
REMARK  3 active torsions:
REMARK  status: ('A' for Active; 'I' for Inactive)
REMARK    1  A    between atoms: N1_2  and  C3_4 
REMARK    2  A    between atoms: C6_12  and  N5_13 
REMARK    3  A    between atoms: N5_13  and  C8_15 
ROOT
HETATM    1  C3  UNL     1     -17.591  35.695  -7.317  1.00  0.00     0.347 C 
HETATM    2  N2  UNL     1     -18.850  35.679  -7.982  1.00  0.00    -0.333 N 
ATOM      3  H2  UNL     1     -19.681  35.273  -7.550  1.00  0.00     0.164 HD
HETATM    4  C4  UNL     1     -18.887  36.256  -9.273  1.00  0.00     0.185 C 
HETATM    5  N3  UNL     1     -20.095  36.432  -9.980  1.00  0.00    -0.064 NA
HETATM    6  N4  UNL     1     -17.781  36.649  -9.857  1.00  0.00    -0.363 N 
ATOM      7  H4  UNL     1     -17.863  37.057 -10.788  1.00  0.00     0.162 HD
HETATM    8  C5  UNL     1     -16.472  36.551  -9.296  1.00  0.00     0.151 C 
HETATM    9  C6  UNL     1     -16.428  35.472  -8.248  1.00  0.00     0.157 C 
ENDROOT
BRANCH   9  10
HETATM   10  N5  UNL     1     -16.357  34.208  -8.882  1.00  0.00    -0.348 N 
HETATM   11  C7  UNL     1     -17.051  33.019  -8.382  1.00  0.00     0.153 C 
BRANCH  10  12
HETATM   12  C8  UNL     1     -15.553  34.010 -10.023  1.00  0.00     0.173 C 
HETATM   13  N6  UNL     1     -15.392  34.757 -11.057  1.00  0.00    -0.361 N 
HETATM   14  C9  UNL     1     -14.469  34.171 -12.002  1.00  0.00     0.142 C 
ATOM     15  H6  UNL     1     -15.860  35.653 -11.193  1.00  0.00     0.162 HD
HETATM   16  C10 UNL     1     -14.157  32.785 -11.486  1.00  0.00     0.142 C 
HETATM   17  N7  UNL     1     -14.755  32.815 -10.187  1.00  0.00    -0.361 N 
ATOM     18  H7  UNL     1     -14.635  32.095  -9.475  1.00  0.00     0.162 HD
ENDBRANCH  10  12
ENDBRANCH   9  10
BRANCH   1  19
HETATM   19  N1  UNL     1     -17.520  34.893  -6.132  1.00  0.00     0.105 N 
HETATM   20  C1  UNL     1     -16.311  35.181  -5.377  1.00  0.00     0.312 C 
HETATM   21  C2  UNL     1     -18.626  34.994  -5.255  1.00  0.00     0.312 C 
ENDBRANCH   1  19
TORSDOF 3
ENDMDL
MODEL 2
REMARK VINA RESULT: -5.155625268      1.801      4.333
REMARK  3 active torsions:
REMARK  status: ('A' for Active; 'I' for Inactive)
REMARK    1  A    between atoms: N1_2  and  C3_4 
REMARK    2  A    between atoms: C6_12  and  N5_13 
REMARK    3  A    between atoms: N5_13  and  C8_15 
ROOT
HETATM    1  C3  UNL     1     -15.929  34.198  -8.958  1.00  0.00     0.347 C 
HETATM    2  N2  UNL     1     -16.945  33.467  -8.279  1.00  0.00    -0.333 N 
ATOM      3  H2  UNL     1     -17.301  32.581  -8.639  1.00  0.00     0.164 HD
HETATM    4  C4  UNL     1     -17.436  34.036  -7.081  1.00  0.00     0.185 C 
HETATM    5  N3  UNL     1     -18.339  33.349  -6.241  1.00  0.00    -0.064 NA
HETATM    6  N4  UNL     1     -17.060  35.236  -6.712  1.00  0.00    -0.363 N 
ATOM      7  H4  UNL     1     -17.444  35.600  -5.841  1.00  0.00     0.162 HD
HETATM    8  C5  UNL     1     -16.156  36.075  -7.432  1.00  0.00     0.151 C 
HETATM    9  C6  UNL     1     -16.126  35.690  -8.886  1.00  0.00     0.157 C 
ENDROOT
BRANCH   9  10
HETATM   10  N5  UNL     1     -17.275  36.208  -9.531  1.00  0.00    -0.348 N 
HETATM   11  C7  UNL     1     -18.630  35.714  -9.278  1.00  0.00     0.153 C 
BRANCH  10  12
HETATM   12  C8  UNL     1     -17.167  37.215 -10.512  1.00  0.00     0.173 C 
HETATM   13  N6  UNL     1     -16.683  38.403 -10.423  1.00  0.00    -0.361 N 
HETATM   14  C9  UNL     1     -16.770  39.111 -11.680  1.00  0.00     0.142 C 
ATOM     15  H6  UNL     1     -16.287  38.797  -9.570  1.00  0.00     0.162 HD
HETATM   16  C10 UNL     1     -17.570  38.228 -12.610  1.00  0.00     0.142 C 
HETATM   17  N7  UNL     1     -17.656  37.015 -11.858  1.00  0.00    -0.361 N 
ATOM     18  H7  UNL     1     -18.013  36.130 -12.220  1.00  0.00     0.162 HD
ENDBRANCH  10  12
ENDBRANCH   9  10
BRANCH   1  19
HETATM   19  N1  UNL     1     -15.628  33.736 -10.280  1.00  0.00     0.105 N 
HETATM   20  C1  UNL     1     -14.904  34.747 -11.035  1.00  0.00     0.312 C 
HETATM   21  C2  UNL     1     -14.907  32.522 -10.357  1.00  0.00     0.312 C 
ENDBRANCH   1  19
TORSDOF 3
ENDMDL
MODEL 3
REMARK VINA RESULT: -4.944187513      2.796      4.015
REMARK  3 active torsions:
REMARK  status: ('A' for Active; 'I' for Inactive)
REMARK    1  A    between atoms: N1_2  and  C3_4 
REMARK    2  A    between atoms: C6_12  and  N5_13 
REMARK    3  A    between atoms: N5_13  and  C8_15 
ROOT
HETATM    1  C3  UNL     1     -17.312  36.248  -9.123  1.00  0.00     0.347 C 
HETATM    2  N2  UNL     1     -18.446  35.603  -9.696  1.00  0.00    -0.333 N 
ATOM      3  H2  UNL     1     -18.558  34.590  -9.667  1.00  0.00     0.164 HD
HETATM    4  C4  UNL     1     -19.406  36.443 -10.306  1.00  0.00     0.185 C 
HETATM    5  N3  UNL     1     -20.638  35.948 -10.784  1.00  0.00    -0.064 NA
HETATM    6  N4  UNL     1     -19.174  37.726 -10.446  1.00  0.00    -0.363 N 
ATOM      7  H4  UNL     1     -19.898  38.287 -10.893  1.00  0.00     0.162 HD
HETATM    8  C5  UNL     1     -17.989  38.401 -10.023  1.00  0.00     0.151 C 
HETATM    9  C6  UNL     1     -16.841  37.434  -9.923  1.00  0.00     0.157 C 
ENDROOT
BRANCH   9  10
HETATM   10  N5  UNL     1     -16.342  37.165 -11.220  1.00  0.00    -0.348 N 
HETATM   11  C7  UNL     1     -15.769  35.874 -11.609  1.00  0.00     0.153 C 
BRANCH  10  12
HETATM   12  C8  UNL     1     -16.321  38.164 -12.215  1.00  0.00     0.173 C 
HETATM   13  N6  UNL     1     -17.173  38.419 -13.144  1.00  0.00    -0.361 N 
HETATM   14  C9  UNL     1     -16.760  39.542 -13.955  1.00  0.00     0.142 C 
ATOM     15  H6  UNL     1     -18.035  37.893 -13.290  1.00  0.00     0.162 HD
HETATM   16  C10 UNL     1     -15.364  39.902 -13.501  1.00  0.00     0.142 C 
HETATM   17  N7  UNL     1     -15.221  39.095 -12.329  1.00  0.00    -0.361 N 
ATOM     18  H7  UNL     1     -14.449  39.166 -11.665  1.00  0.00     0.162 HD
ENDBRANCH  10  12
ENDBRANCH   9  10
BRANCH   1  19
HETATM   19  N1  UNL     1     -16.246  35.373  -8.738  1.00  0.00     0.105 N 
HETATM   20  C1  UNL     1     -15.861  35.596  -7.353  1.00  0.00     0.312 C 
HETATM   21  C2  UNL     1     -16.491  33.991  -8.914  1.00  0.00     0.312 C 
ENDBRANCH   1  19
TORSDOF 3
ENDMDL
MODEL 4
REMARK VINA RESULT: -4.816271914      6.186      8.235
REMARK  3 active torsions:
REMARK  status: ('A' for Active; 'I' for Inactive)
REMARK    1  A    between atoms: N1_2  and  C3_4 
REMARK    2  A    between atoms: C6_12  and  N5_13 
REMARK    3  A    between atoms: N5_13  and  C8_15 
ROOT
HETATM    1  C3  UNL     1     -17.444  39.287 -12.787  1.00  0.00     0.347 C 
HETATM    2  N2  UNL     1     -16.879  38.799 -14.000  1.00  0.00    -0.333 N 
ATOM      3  H2  UNL     1     -16.397  37.900 -14.044  1.00  0.00     0.164 HD
HETATM    4  C4  UNL     1     -17.022  39.626 -15.138  1.00  0.00     0.185 C 
HETATM    5  N3  UNL     1     -16.635  39.199 -16.426  1.00  0.00    -0.064 NA
HETATM    6  N4  UNL     1     -17.527  40.830 -15.025  1.00  0.00    -0.363 N 
ATOM      7  H4  UNL     1     -17.607  41.386 -15.877  1.00  0.00     0.162 HD
HETATM    8  C5  UNL     1     -17.973  41.427 -13.808  1.00  0.00     0.151 C 
HETATM    9  C6  UNL     1     -17.302  40.778 -12.628  1.00  0.00     0.157 C 
ENDROOT
BRANCH   9  10
HETATM   10  N5  UNL     1     -15.984  41.279 -12.505  1.00  0.00    -0.348 N 
HETATM   11  C7  UNL     1     -14.797  40.421 -12.484  1.00  0.00     0.153 C 
BRANCH  10  12
HETATM   12  C8  UNL     1     -15.741  42.658 -12.339  1.00  0.00     0.173 C 
HETATM   13  N6  UNL     1     -15.358  43.536 -13.197  1.00  0.00    -0.361 N 
HETATM   14  C9  UNL     1     -15.231  44.846 -12.601  1.00  0.00     0.142 C 
ATOM     15  H6  UNL     1     -15.168  43.332 -14.178  1.00  0.00     0.162 HD
HETATM   16  C10 UNL     1     -15.439  44.659 -11.115  1.00  0.00     0.142 C 
HETATM   17  N7  UNL     1     -15.888  43.302 -11.053  1.00  0.00    -0.361 N 
ATOM     18  H7  UNL     1     -16.261  42.852 -10.217  1.00  0.00     0.162 HD
ENDBRANCH  10  12
ENDBRANCH   9  10
BRANCH   1  19
HETATM   19  N1  UNL     1     -17.075  38.560 -11.609  1.00  0.00     0.105 N 
HETATM   20  C1  UNL     1     -18.229  38.324 -10.757  1.00  0.00     0.312 C 
HETATM   21  C2  UNL     1     -16.423  37.324 -11.829  1.00  0.00     0.312 C 
ENDBRANCH   1  19
TORSDOF 3
ENDMDL
MODEL 5
REMARK VINA RESULT: -4.801288865      7.003      9.210
REMARK  3 active torsions:
REMARK  status: ('A' for Active; 'I' for Inactive)
REMARK    1  A    between atoms: N1_2  and  C3_4 
REMARK    2  A    between atoms: C6_12  and  N5_13 
REMARK    3  A    between atoms: N5_13  and  C8_15 
ROOT
HETATM    1  C3  UNL     1     -16.356  41.605 -12.815  1.00  0.00     0.347 C 
HETATM    2  N2  UNL     1     -15.045  41.071 -12.970  1.00  0.00    -0.333 N 
ATOM      3  H2  UNL     1     -14.253  41.659 -13.230  1.00  0.00     0.164 HD
HETATM    4  C4  UNL     1     -14.901  39.682 -12.744  1.00  0.00     0.185 C 
HETATM    5  N3  UNL     1     -13.638  39.054 -12.725  1.00  0.00    -0.064 NA
HETATM    6  N4  UNL     1     -15.955  38.929 -12.542  1.00  0.00    -0.363 N 
ATOM      7  H4  UNL     1     -15.795  37.934 -12.385  1.00  0.00     0.162 HD
HETATM    8  C5  UNL     1     -17.306  39.388 -12.524  1.00  0.00     0.151 C 
HETATM    9  C6  UNL     1     -17.435  40.671 -13.299  1.00  0.00     0.157 C 
ENDROOT
BRANCH   9  10
HETATM   10  N5  UNL     1     -17.449  40.382 -14.684  1.00  0.00    -0.348 N 
HETATM   11  C7  UNL     1     -16.474  39.501 -15.331  1.00  0.00     0.153 C 
BRANCH  10  12
HETATM   12  C8  UNL     1     -18.390  40.984 -15.545  1.00  0.00     0.173 C 
HETATM   13  N6  UNL     1     -19.604  40.645 -15.803  1.00  0.00    -0.361 N 
HETATM   14  C9  UNL     1     -20.219  41.544 -16.752  1.00  0.00     0.142 C 
ATOM     15  H6  UNL     1     -20.074  39.841 -15.388  1.00  0.00     0.162 HD
HETATM   16  C10 UNL     1     -19.125  42.473 -17.227  1.00  0.00     0.142 C 
HETATM   17  N7  UNL     1     -18.059  42.152 -16.329  1.00  0.00    -0.361 N 
ATOM     18  H7  UNL     1     -17.187  42.676 -16.252  1.00  0.00     0.162 HD
ENDBRANCH  10  12
ENDBRANCH   9  10
BRANCH   1  19
HETATM   19  N1  UNL     1     -16.525  42.947 -13.287  1.00  0.00     0.105 N 
HETATM   20  C1  UNL     1     -16.550  43.891 -12.180  1.00  0.00     0.312 C 
HETATM   21  C2  UNL     1     -15.568  43.392 -14.229  1.00  0.00     0.312 C 
ENDBRANCH   1  19
TORSDOF 3
ENDMDL
