MODEL 1
REMARK VINA RESULT: -8.967522007      0.000      0.000
REMARK  13 active torsions:
REMARK  status: ('A' for Active; 'I' for Inactive)
REMARK    1  A    between atoms: C7_7  and  C8_8 
REMARK    2  A    between atoms: C8_8  and  C9_9 
REMARK    3  A    between atoms: C9_9  and  C10_10 
REMARK    4  A    between atoms: C10_10  and  N1_11 
REMARK    5  A    between atoms: N1_11  and  C11_13 
REMARK    6  A    between atoms: C12_17  and  N3_18 
REMARK    7  A    between atoms: N3_18  and  C13_20 
REMARK    8  A    between atoms: C13_20  and  C14_21 
REMARK    9  A    between atoms: C14_21  and  C15_22 
REMARK   10  A    between atoms: C15_22  and  C16_23 
REMARK   11  A    between atoms: C16_23  and  C17_24 
REMARK   12  A    between atoms: C17_24  and  C18_25 
REMARK   13  A    between atoms: C18_25  and  C19_26 
ROOT
HETATM    1  C11 UNL     1      27.932  40.661  35.011  1.00  0.00     0.686 A 
HETATM    2  N2  UNL     1      27.109  39.813  34.391  1.00  0.00    -0.157 N 
ATOM      3  H2  UNL     1      26.759  38.915  34.723  1.00  0.00     0.193 HD
HETATM    4  S1  UNL     1      26.787  40.581  32.932  1.00  0.00     0.039 SA
HETATM    5  C12 UNL     1      27.731  41.983  33.171  1.00  0.00     0.176 A 
HETATM    6  N4  UNL     1      28.250  41.777  34.378  1.00  0.00    -0.169 N 
ATOM      7  H4  UNL     1      28.875  42.461  34.804  1.00  0.00     0.186 HD
ENDROOT
BRANCH   1   8
HETATM    8  N1  UNL     1      28.371  40.323  36.227  1.00  0.00    -0.225 N 
ATOM      9  H1  UNL     1      28.985  39.515  36.330  1.00  0.00     0.177 HD
BRANCH   8  10
HETATM   10  C10 UNL     1      27.991  41.082  37.399  1.00  0.00     0.138 C 
BRANCH  10  11
HETATM   11  C9  UNL     1      29.030  42.125  37.748  1.00  0.00     0.025 C 
BRANCH  11  12
HETATM   12  C8  UNL     1      30.442  41.623  37.539  1.00  0.00     0.041 C 
BRANCH  12  13
HETATM   13  C7  UNL     1      30.838  40.844  38.726  1.00  0.00    -0.051 A 
HETATM   14  C2  UNL     1      31.158  39.516  38.567  1.00  0.00    -0.053 A 
HETATM   15  C1  UNL     1      31.133  38.844  37.240  1.00  0.00     0.049 C 
HETATM   16  C3  UNL     1      31.523  38.761  39.653  1.00  0.00     0.044 A 
HETATM   17  C4  UNL     1      31.564  39.355  40.927  1.00  0.00     0.076 A 
HETATM   18  C5  UNL     1      31.246  40.680  41.099  1.00  0.00    -0.021 A 
HETATM   19  O3  UNL     1      31.889  38.839  42.170  1.00  0.00    -0.340 OA
HETATM   20  C6  UNL     1      30.882  41.427  40.001  1.00  0.00     0.017 A 
HETATM   21  C20 UNL     1      31.385  41.017  42.542  1.00  0.00     0.079 C 
HETATM   22  C21 UNL     1      32.265  39.870  43.058  1.00  0.00     0.064 C 
HETATM   23  C22 UNL     1      31.979  39.558  44.490  1.00  0.00     0.046 C 
HETATM   24  C23 UNL     1      33.727  40.179  42.787  1.00  0.00     0.046 C 
ENDBRANCH  12  13
ENDBRANCH  11  12
ENDBRANCH  10  11
ENDBRANCH   8  10
ENDBRANCH   1   8
BRANCH   5  25
HETATM   25  N3  UNL     1      27.906  43.009  32.367  1.00  0.00    -0.369 N 
ATOM     26  H3  UNL     1      27.099  43.588  32.135  1.00  0.00     0.161 HD
BRANCH  25  27
HETATM   27  C13 UNL     1      29.172  43.349  31.806  1.00  0.00     0.121 C 
BRANCH  27  28
HETATM   28  C14 UNL     1      30.093  44.010  32.821  1.00  0.00     0.020 C 
BRANCH  28  29
HETATM   29  C15 UNL     1      29.199  45.011  33.601  1.00  0.00     0.002 C 
BRANCH  29  30
HETATM   30  C16 UNL     1      29.582  45.037  35.026  1.00  0.00     0.001 C 
BRANCH  30  31
HETATM   31  C17 UNL     1      30.049  46.342  35.540  1.00  0.00     0.010 C 
BRANCH  31  32
HETATM   32  C18 UNL     1      31.481  46.663  35.526  1.00  0.00     0.113 C 
BRANCH  32  33
HETATM   33  C19 UNL     1      32.222  46.710  34.272  1.00  0.00     0.172 C 
HETATM   34  O1  UNL     1      31.903  47.317  33.226  1.00  0.00    -0.648 OA
HETATM   35  O2  UNL     1      33.453  46.009  34.159  1.00  0.00    -0.648 OA
ENDBRANCH  32  33
ENDBRANCH  31  32
ENDBRANCH  30  31
ENDBRANCH  29  30
ENDBRANCH  28  29
ENDBRANCH  27  28
ENDBRANCH  25  27
ENDBRANCH   5  25
TORSDOF 13
ENDMDL
MODEL 2
REMARK VINA RESULT: -8.906705409      4.116      5.416
REMARK  13 active torsions:
REMARK  status: ('A' for Active; 'I' for Inactive)
REMARK    1  A    between atoms: C7_7  and  C8_8 
REMARK    2  A    between atoms: C8_8  and  C9_9 
REMARK    3  A    between atoms: C9_9  and  C10_10 
REMARK    4  A    between atoms: C10_10  and  N1_11 
REMARK    5  A    between atoms: N1_11  and  C11_13 
REMARK    6  A    between atoms: C12_17  and  N3_18 
REMARK    7  A    between atoms: N3_18  and  C13_20 
REMARK    8  A    between atoms: C13_20  and  C14_21 
REMARK    9  A    between atoms: C14_21  and  C15_22 
REMARK   10  A    between atoms: C15_22  and  C16_23 
REMARK   11  A    between atoms: C16_23  and  C17_24 
REMARK   12  A    between atoms: C17_24  and  C18_25 
REMARK   13  A    between atoms: C18_25  and  C19_26 
ROOT
HETATM    1  C11 UNL     1      29.094  43.343  33.879  1.00  0.00     0.686 A 
HETATM    2  N2  UNL     1      28.333  42.248  33.924  1.00  0.00    -0.157 N 
ATOM      3  H2  UNL     1      28.093  41.677  34.734  1.00  0.00     0.193 HD
HETATM    4  S1  UNL     1      27.864  42.036  32.324  1.00  0.00     0.039 SA
HETATM    5  C12 UNL     1      28.670  43.379  31.645  1.00  0.00     0.176 A 
HETATM    6  N4  UNL     1      29.265  43.922  32.704  1.00  0.00    -0.169 N 
ATOM      7  H4  UNL     1      29.837  44.761  32.611  1.00  0.00     0.186 HD
ENDROOT
BRANCH   1   8
HETATM    8  N1  UNL     1      29.623  43.778  35.027  1.00  0.00    -0.225 N 
ATOM      9  H1  UNL     1      29.456  44.740  35.322  1.00  0.00     0.177 HD
BRANCH   8  10
HETATM   10  C10 UNL     1      30.429  42.908  35.857  1.00  0.00     0.138 C 
BRANCH  10  11
HETATM   11  C9  UNL     1      29.894  42.837  37.272  1.00  0.00     0.025 C 
BRANCH  11  12
HETATM   12  C8  UNL     1      29.133  41.557  37.535  1.00  0.00     0.041 C 
BRANCH  12  13
HETATM   13  C7  UNL     1      29.861  40.786  38.558  1.00  0.00    -0.051 A 
HETATM   14  C2  UNL     1      30.389  39.564  38.212  1.00  0.00    -0.053 A 
HETATM   15  C1  UNL     1      30.262  39.001  36.840  1.00  0.00     0.049 C 
HETATM   16  C3  UNL     1      31.066  38.817  39.143  1.00  0.00     0.044 A 
HETATM   17  C4  UNL     1      31.214  39.310  40.451  1.00  0.00     0.076 A 
HETATM   18  C5  UNL     1      30.692  40.529  40.810  1.00  0.00    -0.021 A 
HETATM   19  O3  UNL     1      31.835  38.778  41.568  1.00  0.00    -0.340 OA
HETATM   20  C6  UNL     1      30.015  41.269  39.866  1.00  0.00     0.017 A 
HETATM   21  C20 UNL     1      31.010  40.778  42.242  1.00  0.00     0.079 C 
HETATM   22  C21 UNL     1      32.161  39.794  42.493  1.00  0.00     0.064 C 
HETATM   23  C22 UNL     1      32.186  39.325  43.910  1.00  0.00     0.046 C 
HETATM   24  C23 UNL     1      33.473  40.406  42.035  1.00  0.00     0.046 C 
ENDBRANCH  12  13
ENDBRANCH  11  12
ENDBRANCH  10  11
ENDBRANCH   8  10
ENDBRANCH   1   8
BRANCH   5  25
HETATM   25  N3  UNL     1      28.700  43.778  30.393  1.00  0.00    -0.369 N 
ATOM     26  H3  UNL     1      28.824  44.773  30.202  1.00  0.00     0.161 HD
BRANCH  25  27
HETATM   27  C13 UNL     1      28.568  42.886  29.289  1.00  0.00     0.121 C 
BRANCH  27  28
HETATM   28  C14 UNL     1      27.165  42.902  28.700  1.00  0.00     0.020 C 
BRANCH  28  29
HETATM   29  C15 UNL     1      27.268  42.111  27.368  1.00  0.00     0.002 C 
BRANCH  29  30
HETATM   30  C16 UNL     1      28.596  42.310  26.755  1.00  0.00     0.001 C 
BRANCH  30  31
HETATM   31  C17 UNL     1      28.615  42.395  25.280  1.00  0.00     0.010 C 
BRANCH  31  32
HETATM   32  C18 UNL     1      29.581  41.597  24.514  1.00  0.00     0.113 C 
BRANCH  32  33
HETATM   33  C19 UNL     1      29.888  40.226  24.902  1.00  0.00     0.172 C 
HETATM   34  O1  UNL     1      29.096  39.260  24.964  1.00  0.00    -0.648 OA
HETATM   35  O2  UNL     1      31.219  39.883  25.261  1.00  0.00    -0.648 OA
ENDBRANCH  32  33
ENDBRANCH  31  32
ENDBRANCH  30  31
ENDBRANCH  29  30
ENDBRANCH  28  29
ENDBRANCH  27  28
ENDBRANCH  25  27
ENDBRANCH   5  25
TORSDOF 13
ENDMDL
MODEL 3
REMARK VINA RESULT: -8.877673232      2.620      8.588
REMARK  13 active torsions:
REMARK  status: ('A' for Active; 'I' for Inactive)
REMARK    1  A    between atoms: C7_7  and  C8_8 
REMARK    2  A    between atoms: C8_8  and  C9_9 
REMARK    3  A    between atoms: C9_9  and  C10_10 
REMARK    4  A    between atoms: C10_10  and  N1_11 
REMARK    5  A    between atoms: N1_11  and  C11_13 
REMARK    6  A    between atoms: C12_17  and  N3_18 
REMARK    7  A    between atoms: N3_18  and  C13_20 
REMARK    8  A    between atoms: C13_20  and  C14_21 
REMARK    9  A    between atoms: C14_21  and  C15_22 
REMARK   10  A    between atoms: C15_22  and  C16_23 
REMARK   11  A    between atoms: C16_23  and  C17_24 
REMARK   12  A    between atoms: C17_24  and  C18_25 
REMARK   13  A    between atoms: C18_25  and  C19_26 
ROOT
HETATM    1  C11 UNL     1      30.144  38.852  37.812  1.00  0.00     0.686 A 
HETATM    2  N2  UNL     1      31.183  38.324  37.162  1.00  0.00    -0.157 N 
ATOM      3  H2  UNL     1      31.180  37.785  36.297  1.00  0.00     0.193 HD
HETATM    4  S1  UNL     1      32.498  38.761  38.113  1.00  0.00     0.039 SA
HETATM    5  C12 UNL     1      31.658  39.618  39.327  1.00  0.00     0.176 A 
HETATM    6  N4  UNL     1      30.393  39.518  38.926  1.00  0.00    -0.169 N 
ATOM      7  H4  UNL     1      29.638  39.942  39.463  1.00  0.00     0.186 HD
ENDROOT
BRANCH   1   8
HETATM    8  N1  UNL     1      28.929  38.674  37.286  1.00  0.00    -0.225 N 
ATOM      9  H1  UNL     1      28.803  37.996  36.535  1.00  0.00     0.177 HD
BRANCH   8  10
HETATM   10  C10 UNL     1      27.788  39.426  37.764  1.00  0.00     0.138 C 
BRANCH  10  11
HETATM   11  C9  UNL     1      27.346  40.467  36.757  1.00  0.00     0.025 C 
BRANCH  11  12
HETATM   12  C8  UNL     1      27.795  40.134  35.352  1.00  0.00     0.041 C 
BRANCH  12  13
HETATM   13  C7  UNL     1      28.377  41.346  34.751  1.00  0.00    -0.051 A 
HETATM   14  C2  UNL     1      27.905  41.771  33.531  1.00  0.00    -0.053 A 
HETATM   15  C1  UNL     1      26.819  41.057  32.805  1.00  0.00     0.049 C 
HETATM   16  C3  UNL     1      28.431  42.892  32.940  1.00  0.00     0.044 A 
HETATM   17  C4  UNL     1      29.457  43.600  33.591  1.00  0.00     0.076 A 
HETATM   18  C5  UNL     1      29.938  43.187  34.809  1.00  0.00    -0.021 A 
HETATM   19  O3  UNL     1      30.156  44.739  33.231  1.00  0.00    -0.340 OA
HETATM   20  C6  UNL     1      29.401  42.060  35.392  1.00  0.00     0.017 A 
HETATM   21  C20 UNL     1      31.004  44.130  35.242  1.00  0.00     0.079 C 
HETATM   22  C21 UNL     1      30.724  45.358  34.366  1.00  0.00     0.064 C 
HETATM   23  C22 UNL     1      31.974  46.119  34.067  1.00  0.00     0.046 C 
HETATM   24  C23 UNL     1      29.636  46.208  34.999  1.00  0.00     0.046 C 
ENDBRANCH  12  13
ENDBRANCH  11  12
ENDBRANCH  10  11
ENDBRANCH   8  10
ENDBRANCH   1   8
BRANCH   5  25
HETATM   25  N3  UNL     1      32.135  40.225  40.391  1.00  0.00    -0.369 N 
ATOM     26  H3  UNL     1      31.476  40.578  41.086  1.00  0.00     0.161 HD
BRANCH  25  27
HETATM   27  C13 UNL     1      33.529  40.414  40.618  1.00  0.00     0.121 C 
BRANCH  27  28
HETATM   28  C14 UNL     1      33.803  41.253  41.857  1.00  0.00     0.020 C 
BRANCH  28  29
HETATM   29  C15 UNL     1      32.648  42.288  41.919  1.00  0.00     0.002 C 
BRANCH  29  30
HETATM   30  C16 UNL     1      32.240  42.517  43.319  1.00  0.00     0.001 C 
BRANCH  30  31
HETATM   31  C17 UNL     1      31.255  41.560  43.865  1.00  0.00     0.010 C 
BRANCH  31  32
HETATM   32  C18 UNL     1      31.703  40.459  44.725  1.00  0.00     0.113 C 
BRANCH  32  33
HETATM   33  C19 UNL     1      32.097  39.179  44.151  1.00  0.00     0.172 C 
HETATM   34  O1  UNL     1      32.893  38.344  44.634  1.00  0.00    -0.648 OA
HETATM   35  O2  UNL     1      31.551  38.774  42.903  1.00  0.00    -0.648 OA
ENDBRANCH  32  33
ENDBRANCH  31  32
ENDBRANCH  30  31
ENDBRANCH  29  30
ENDBRANCH  28  29
ENDBRANCH  27  28
ENDBRANCH  25  27
ENDBRANCH   5  25
TORSDOF 13
ENDMDL
MODEL 4
REMARK VINA RESULT: -8.796569102      3.094      4.527
REMARK  13 active torsions:
REMARK  status: ('A' for Active; 'I' for Inactive)
REMARK    1  A    between atoms: C7_7  and  C8_8 
REMARK    2  A    between atoms: C8_8  and  C9_9 
REMARK    3  A    between atoms: C9_9  and  C10_10 
REMARK    4  A    between atoms: C10_10  and  N1_11 
REMARK    5  A    between atoms: N1_11  and  C11_13 
REMARK    6  A    between atoms: C12_17  and  N3_18 
REMARK    7  A    between atoms: N3_18  and  C13_20 
REMARK    8  A    between atoms: C13_20  and  C14_21 
REMARK    9  A    between atoms: C14_21  and  C15_22 
REMARK   10  A    between atoms: C15_22  and  C16_23 
REMARK   11  A    between atoms: C16_23  and  C17_24 
REMARK   12  A    between atoms: C17_24  and  C18_25 
REMARK   13  A    between atoms: C18_25  and  C19_26 
ROOT
HETATM    1  C11 UNL     1      29.888  43.194  34.177  1.00  0.00     0.686 A 
HETATM    2  N2  UNL     1      30.538  43.654  33.106  1.00  0.00    -0.157 N 
ATOM      3  H2  UNL     1      31.498  43.992  33.046  1.00  0.00     0.193 HD
HETATM    4  S1  UNL     1      29.394  43.544  31.881  1.00  0.00     0.039 SA
HETATM    5  C12 UNL     1      28.104  42.901  32.796  1.00  0.00     0.176 A 
HETATM    6  N4  UNL     1      28.635  42.807  34.013  1.00  0.00    -0.169 N 
ATOM      7  H4  UNL     1      28.090  42.447  34.796  1.00  0.00     0.186 HD
ENDROOT
BRANCH   1   8
HETATM    8  N1  UNL     1      30.552  43.153  35.336  1.00  0.00    -0.225 N 
ATOM      9  H1  UNL     1      31.477  42.724  35.367  1.00  0.00     0.177 HD
BRANCH   8  10
HETATM   10  C10 UNL     1      29.983  43.706  36.546  1.00  0.00     0.138 C 
BRANCH  10  11
HETATM   11  C9  UNL     1      29.774  42.640  37.601  1.00  0.00     0.025 C 
BRANCH  11  12
HETATM   12  C8  UNL     1      30.502  41.355  37.271  1.00  0.00     0.041 C 
BRANCH  12  13
HETATM   13  C7  UNL     1      30.813  40.661  38.533  1.00  0.00    -0.051 A 
HETATM   14  C2  UNL     1      30.915  39.290  38.525  1.00  0.00    -0.053 A 
HETATM   15  C1  UNL     1      30.735  38.485  37.286  1.00  0.00     0.049 C 
HETATM   16  C3  UNL     1      31.196  38.612  39.685  1.00  0.00     0.044 A 
HETATM   17  C4  UNL     1      31.377  39.331  40.880  1.00  0.00     0.076 A 
HETATM   18  C5  UNL     1      31.278  40.701  40.902  1.00  0.00    -0.021 A 
HETATM   19  O3  UNL     1      31.662  38.914  42.168  1.00  0.00    -0.340 OA
HETATM   20  C6  UNL     1      30.996  41.369  39.731  1.00  0.00     0.017 A 
HETATM   21  C20 UNL     1      31.521  41.172  42.292  1.00  0.00     0.079 C 
HETATM   22  C21 UNL     1      32.228  39.964  42.923  1.00  0.00     0.064 C 
HETATM   23  C22 UNL     1      31.950  39.865  44.386  1.00  0.00     0.046 C 
HETATM   24  C23 UNL     1      33.709  40.002  42.590  1.00  0.00     0.046 C 
ENDBRANCH  12  13
ENDBRANCH  11  12
ENDBRANCH  10  11
ENDBRANCH   8  10
ENDBRANCH   1   8
BRANCH   5  25
HETATM   25  N3  UNL     1      26.891  42.579  32.404  1.00  0.00    -0.369 N 
ATOM     26  H3  UNL     1      26.135  43.244  32.568  1.00  0.00     0.161 HD
BRANCH  25  27
HETATM   27  C13 UNL     1      26.585  41.345  31.760  1.00  0.00     0.121 C 
BRANCH  27  28
HETATM   28  C14 UNL     1      25.837  40.387  32.676  1.00  0.00     0.020 C 
BRANCH  28  29
HETATM   29  C15 UNL     1      26.761  39.148  32.821  1.00  0.00     0.002 C 
BRANCH  29  30
HETATM   30  C16 UNL     1      26.487  38.450  34.092  1.00  0.00     0.001 C 
BRANCH  30  31
HETATM   31  C17 UNL     1      27.501  38.628  35.153  1.00  0.00     0.010 C 
BRANCH  31  32
HETATM   32  C18 UNL     1      27.527  39.867  35.938  1.00  0.00     0.113 C 
BRANCH  32  33
HETATM   33  C19 UNL     1      26.733  39.997  37.153  1.00  0.00     0.172 C 
HETATM   34  O1  UNL     1      25.505  40.222  37.236  1.00  0.00    -0.648 OA
HETATM   35  O2  UNL     1      27.364  39.863  38.419  1.00  0.00    -0.648 OA
ENDBRANCH  32  33
ENDBRANCH  31  32
ENDBRANCH  30  31
ENDBRANCH  29  30
ENDBRANCH  28  29
ENDBRANCH  27  28
ENDBRANCH  25  27
ENDBRANCH   5  25
TORSDOF 13
ENDMDL
MODEL 5
REMARK VINA RESULT: -8.714018045      2.850      4.297
REMARK  13 active torsions:
REMARK  status: ('A' for Active; 'I' for Inactive)
REMARK    1  A    between atoms: C7_7  and  C8_8 
REMARK    2  A    between atoms: C8_8  and  C9_9 
REMARK    3  A    between atoms: C9_9  and  C10_10 
REMARK    4  A    between atoms: C10_10  and  N1_11 
REMARK    5  A    between atoms: N1_11  and  C11_13 
REMARK    6  A    between atoms: C12_17  and  N3_18 
REMARK    7  A    between atoms: N3_18  and  C13_20 
REMARK    8  A    between atoms: C13_20  and  C14_21 
REMARK    9  A    between atoms: C14_21  and  C15_22 
REMARK   10  A    between atoms: C15_22  and  C16_23 
REMARK   11  A    between atoms: C16_23  and  C17_24 
REMARK   12  A    between atoms: C17_24  and  C18_25 
REMARK   13  A    between atoms: C18_25  and  C19_26 
ROOT
HETATM    1  C11 UNL     1      30.192  43.097  34.826  1.00  0.00     0.686 A 
HETATM    2  N2  UNL     1      31.028  44.138  34.860  1.00  0.00    -0.157 N 
ATOM      3  H2  UNL     1      31.711  44.378  35.577  1.00  0.00     0.193 HD
HETATM    4  S1  UNL     1      30.682  44.958  33.434  1.00  0.00     0.039 SA
HETATM    5  C12 UNL     1      29.463  43.923  32.836  1.00  0.00     0.176 A 
HETATM    6  N4  UNL     1      29.389  42.991  33.783  1.00  0.00    -0.169 N 
ATOM      7  H4  UNL     1      28.730  42.216  33.705  1.00  0.00     0.186 HD
ENDROOT
BRANCH   1   8
HETATM    8  N1  UNL     1      30.233  42.237  35.847  1.00  0.00    -0.225 N 
ATOM      9  H1  UNL     1      30.237  41.235  35.657  1.00  0.00     0.177 HD
BRANCH   8  10
HETATM   10  C10 UNL     1      30.272  42.701  37.218  1.00  0.00     0.138 C 
BRANCH  10  11
HETATM   11  C9  UNL     1      28.973  42.412  37.941  1.00  0.00     0.025 C 
BRANCH  11  12
HETATM   12  C8  UNL     1      28.687  40.929  38.037  1.00  0.00     0.041 C 
BRANCH  12  13
HETATM   13  C7  UNL     1      29.602  40.344  39.032  1.00  0.00    -0.051 A 
HETATM   14  C2  UNL     1      30.443  39.329  38.638  1.00  0.00    -0.053 A 
HETATM   15  C1  UNL     1      30.470  38.814  37.243  1.00  0.00     0.049 C 
HETATM   16  C3  UNL     1      31.303  38.757  39.541  1.00  0.00     0.044 A 
HETATM   17  C4  UNL     1      31.315  39.214  40.871  1.00  0.00     0.076 A 
HETATM   18  C5  UNL     1      30.480  40.226  41.278  1.00  0.00    -0.021 A 
HETATM   19  O3  UNL     1      32.062  38.824  41.969  1.00  0.00    -0.340 OA
HETATM   20  C6  UNL     1      29.623  40.793  40.361  1.00  0.00     0.017 A 
HETATM   21  C20 UNL     1      30.723  40.490  42.721  1.00  0.00     0.079 C 
HETATM   22  C21 UNL     1      32.101  39.849  42.939  1.00  0.00     0.064 C 
HETATM   23  C22 UNL     1      32.259  39.343  44.336  1.00  0.00     0.046 C 
HETATM   24  C23 UNL     1      33.193  40.817  42.520  1.00  0.00     0.046 C 
ENDBRANCH  12  13
ENDBRANCH  11  12
ENDBRANCH  10  11
ENDBRANCH   8  10
ENDBRANCH   1   8
BRANCH   5  25
HETATM   25  N3  UNL     1      28.770  44.019  31.724  1.00  0.00    -0.369 N 
ATOM     26  H3  UNL     1      28.014  44.703  31.679  1.00  0.00     0.161 HD
BRANCH  25  27
HETATM   27  C13 UNL     1      29.025  43.211  30.577  1.00  0.00     0.121 C 
BRANCH  27  28
HETATM   28  C14 UNL     1      27.849  43.191  29.612  1.00  0.00     0.020 C 
BRANCH  28  29
HETATM   29  C15 UNL     1      27.618  41.693  29.273  1.00  0.00     0.002 C 
BRANCH  29  30
HETATM   30  C16 UNL     1      26.195  41.343  29.445  1.00  0.00     0.001 C 
BRANCH  30  31
HETATM   31  C17 UNL     1      25.887  40.453  30.585  1.00  0.00     0.010 C 
BRANCH  31  32
HETATM   32  C18 UNL     1      26.878  40.259  31.649  1.00  0.00     0.113 C 
BRANCH  32  33
HETATM   33  C19 UNL     1      26.844  41.073  32.857  1.00  0.00     0.172 C 
HETATM   34  O1  UNL     1      27.160  40.725  34.016  1.00  0.00    -0.648 OA
HETATM   35  O2  UNL     1      26.412  42.425  32.778  1.00  0.00    -0.648 OA
ENDBRANCH  32  33
ENDBRANCH  31  32
ENDBRANCH  30  31
ENDBRANCH  29  30
ENDBRANCH  28  29
ENDBRANCH  27  28
ENDBRANCH  25  27
ENDBRANCH   5  25
TORSDOF 13
ENDMDL
