MODEL 1
REMARK VINA RESULT: -6.896194172      0.000      0.000
REMARK  6 active torsions:
REMARK  status: ('A' for Active; 'I' for Inactive)
REMARK    1  A    between atoms: S1_2  and  N1_5 
REMARK    2  A    between atoms: N1_5  and  N2_7 
REMARK       I    between atoms: N2_7  and  C2_9 
REMARK    3  A    between atoms: C2_9  and  C3_11 
REMARK    4  A    between atoms: C3_11  and  N3_12 
REMARK    5  A    between atoms: C3_11  and  O4_16 
REMARK    6  A    between atoms: C3_11  and  C4_18 
ROOT
HETATM    1  C3  UNL     1      66.783  26.789  50.728  1.00  0.00     0.365 C 
ENDROOT
BRANCH   1   2
HETATM    2  C2  UNL     1      66.863  28.203  50.209  1.00  0.00     0.308 C 
HETATM    3  N2  UNL     1      66.133  28.559  49.063  1.00  0.00    -0.256 N 
ATOM      4  H2  UNL     1      65.592  27.789  48.671  1.00  0.00     0.190 HD
HETATM    5  O3  UNL     1      67.612  28.992  50.874  1.00  0.00    -0.266 OA
BRANCH   3   6
HETATM    6  N1  UNL     1      66.005  29.706  48.379  1.00  0.00    -0.225 N 
ATOM      7  H1  UNL     1      66.503  29.802  47.493  1.00  0.00     0.200 HD
BRANCH   6   8
HETATM    8  S1  UNL     1      65.071  30.985  48.909  1.00  0.00     0.240 S 
HETATM    9  C1  UNL     1      64.990  32.264  47.657  1.00  0.00     0.187 C 
HETATM   10  O1  UNL     1      65.830  31.629  50.102  1.00  0.00    -0.205 OA
HETATM   11  O2  UNL     1      63.732  30.685  49.463  1.00  0.00    -0.205 OA
ENDBRANCH   6   8
ENDBRANCH   3   6
ENDBRANCH   1   2
BRANCH   1  12
HETATM   12  N3  UNL     1      66.034  25.930  49.855  1.00  0.00    -0.030 N 
ATOM     13  H33 UNL     1      65.144  26.355  49.593  1.00  0.00     0.279 HD
ATOM     14  H32 UNL     1      66.466  25.877  48.931  1.00  0.00     0.279 HD
ATOM     15  H31 UNL     1      65.897  25.001  50.252  1.00  0.00     0.279 HD
ENDBRANCH   1  12
BRANCH   1  16
HETATM   16  O4  UNL     1      68.079  26.298  50.812  1.00  0.00    -0.352 OA
ATOM     17  H4  UNL     1      68.672  27.038  50.752  1.00  0.00     0.213 HD
ENDBRANCH   1  16
BRANCH   1  18
HETATM   18  C4  UNL     1      66.199  26.804  52.111  1.00  0.00     0.174 A 
HETATM   19  N4  UNL     1      65.649  25.762  52.760  1.00  0.00    -0.291 N 
HETATM   20  C5  UNL     1      65.232  26.169  53.989  1.00  0.00     0.340 A 
ATOM     21  H4  UNL     1      65.559  24.816  52.388  1.00  0.00     0.172 HD
HETATM   22  O5  UNL     1      64.671  25.490  54.886  1.00  0.00    -0.245 OA
HETATM   23  N5  UNL     1      65.530  27.479  54.092  1.00  0.00    -0.250 N 
HETATM   24  N6  UNL     1      66.109  27.845  52.960  1.00  0.00    -0.280 N 
ATOM     25  H5  UNL     1      65.344  28.079  54.896  1.00  0.00     0.192 HD
ATOM     26  H6  UNL     1      66.441  28.787  52.758  1.00  0.00     0.188 HD
ENDBRANCH   1  18
TORSDOF 6
ENDMDL
MODEL 2
REMARK VINA RESULT: -6.838577963      1.229      1.296
REMARK  6 active torsions:
REMARK  status: ('A' for Active; 'I' for Inactive)
REMARK    1  A    between atoms: S1_2  and  N1_5 
REMARK    2  A    between atoms: N1_5  and  N2_7 
REMARK       I    between atoms: N2_7  and  C2_9 
REMARK    3  A    between atoms: C2_9  and  C3_11 
REMARK    4  A    between atoms: C3_11  and  N3_12 
REMARK    5  A    between atoms: C3_11  and  O4_16 
REMARK    6  A    between atoms: C3_11  and  C4_18 
ROOT
HETATM    1  C3  UNL     1      66.680  26.101  50.665  1.00  0.00     0.365 C 
ENDROOT
BRANCH   1   2
HETATM    2  C2  UNL     1      66.720  27.595  50.462  1.00  0.00     0.308 C 
HETATM    3  N2  UNL     1      66.397  28.129  49.205  1.00  0.00    -0.256 N 
ATOM      4  H2  UNL     1      66.155  27.421  48.512  1.00  0.00     0.190 HD
HETATM    5  O3  UNL     1      67.054  28.280  51.485  1.00  0.00    -0.266 OA
BRANCH   3   6
HETATM    6  N1  UNL     1      66.344  29.382  48.729  1.00  0.00    -0.225 N 
ATOM      7  H1  UNL     1      66.959  29.634  47.955  1.00  0.00     0.200 HD
BRANCH   6   8
HETATM    8  S1  UNL     1      65.320  30.549  49.344  1.00  0.00     0.240 S 
HETATM    9  C1  UNL     1      64.889  31.738  48.074  1.00  0.00     0.187 C 
HETATM   10  O1  UNL     1      66.136  31.353  50.394  1.00  0.00    -0.205 OA
HETATM   11  O2  UNL     1      64.125  30.101  50.093  1.00  0.00    -0.205 OA
ENDBRANCH   6   8
ENDBRANCH   3   6
ENDBRANCH   1   2
BRANCH   1  12
HETATM   12  N3  UNL     1      65.706  25.463  49.824  1.00  0.00    -0.030 N 
ATOM     13  H33 UNL     1      64.921  25.110  50.372  1.00  0.00     0.279 HD
ATOM     14  H32 UNL     1      65.210  26.146  49.252  1.00  0.00     0.279 HD
ATOM     15  H31 UNL     1      66.115  24.727  49.249  1.00  0.00     0.279 HD
ENDBRANCH   1  12
BRANCH   1  16
HETATM   16  O4  UNL     1      67.932  25.598  50.336  1.00  0.00    -0.352 OA
ATOM     17  H4  UNL     1      67.942  24.677  50.569  1.00  0.00     0.213 HD
ENDBRANCH   1  16
BRANCH   1  18
HETATM   18  C4  UNL     1      66.425  25.807  52.115  1.00  0.00     0.174 A 
HETATM   19  N4  UNL     1      67.333  25.403  53.022  1.00  0.00    -0.291 N 
HETATM   20  C5  UNL     1      66.721  25.240  54.227  1.00  0.00     0.340 A 
ATOM     21  H4  UNL     1      68.324  25.245  52.836  1.00  0.00     0.172 HD
HETATM   22  O5  UNL     1      67.231  24.874  55.317  1.00  0.00    -0.245 OA
HETATM   23  N5  UNL     1      65.421  25.547  54.052  1.00  0.00    -0.250 N 
HETATM   24  N6  UNL     1      65.260  25.884  52.783  1.00  0.00    -0.280 N 
ATOM     25  H5  UNL     1      64.694  25.524  54.767  1.00  0.00     0.192 HD
ATOM     26  H6  UNL     1      64.372  26.164  52.366  1.00  0.00     0.188 HD
ENDBRANCH   1  18
TORSDOF 6
ENDMDL
MODEL 3
REMARK VINA RESULT: -6.829848468      1.545      1.638
REMARK  6 active torsions:
REMARK  status: ('A' for Active; 'I' for Inactive)
REMARK    1  A    between atoms: S1_2  and  N1_5 
REMARK    2  A    between atoms: N1_5  and  N2_7 
REMARK       I    between atoms: N2_7  and  C2_9 
REMARK    3  A    between atoms: C2_9  and  C3_11 
REMARK    4  A    between atoms: C3_11  and  N3_12 
REMARK    5  A    between atoms: C3_11  and  O4_16 
REMARK    6  A    between atoms: C3_11  and  C4_18 
ROOT
HETATM    1  C3  UNL     1      66.639  26.707  51.261  1.00  0.00     0.365 C 
ENDROOT
BRANCH   1   2
HETATM    2  C2  UNL     1      66.457  28.193  51.447  1.00  0.00     0.308 C 
HETATM    3  N2  UNL     1      66.132  28.992  50.339  1.00  0.00    -0.256 N 
ATOM      4  H2  UNL     1      66.046  28.466  49.470  1.00  0.00     0.190 HD
HETATM    5  O3  UNL     1      66.617  28.623  52.637  1.00  0.00    -0.266 OA
BRANCH   3   6
HETATM    6  N1  UNL     1      65.913  30.308  50.191  1.00  0.00    -0.225 N 
ATOM      7  H1  UNL     1      66.431  30.956  50.785  1.00  0.00     0.200 HD
BRANCH   6   8
HETATM    8  S1  UNL     1      64.832  30.934  49.083  1.00  0.00     0.240 S 
HETATM    9  C1  UNL     1      65.288  30.448  47.419  1.00  0.00     0.187 C 
HETATM   10  O1  UNL     1      65.001  32.478  49.117  1.00  0.00    -0.205 OA
HETATM   11  O2  UNL     1      63.387  30.731  49.328  1.00  0.00    -0.205 OA
ENDBRANCH   6   8
ENDBRANCH   3   6
ENDBRANCH   1   2
BRANCH   1  12
HETATM   12  N3  UNL     1      65.791  26.180  50.229  1.00  0.00    -0.030 N 
ATOM     13  H33 UNL     1      66.013  25.204  50.032  1.00  0.00     0.279 HD
ATOM     14  H32 UNL     1      64.834  26.065  50.561  1.00  0.00     0.279 HD
ATOM     15  H31 UNL     1      65.822  26.744  49.379  1.00  0.00     0.279 HD
ENDBRANCH   1  12
BRANCH   1  16
HETATM   16  O4  UNL     1      67.959  26.488  50.892  1.00  0.00    -0.352 OA
ATOM     17  H4  UNL     1      68.504  27.058  51.421  1.00  0.00     0.213 HD
ENDBRANCH   1  16
BRANCH   1  18
HETATM   18  C4  UNL     1      66.399  26.014  52.571  1.00  0.00     0.174 A 
HETATM   19  N4  UNL     1      67.338  25.592  53.438  1.00  0.00    -0.291 N 
HETATM   20  C5  UNL     1      66.730  25.010  54.508  1.00  0.00     0.340 A 
ATOM     21  H4  UNL     1      68.345  25.691  53.312  1.00  0.00     0.172 HD
HETATM   22  O5  UNL     1      67.265  24.496  55.523  1.00  0.00    -0.245 OA
HETATM   23  N5  UNL     1      65.402  25.078  54.291  1.00  0.00    -0.250 N 
HETATM   24  N6  UNL     1      65.220  25.681  53.127  1.00  0.00    -0.280 N 
ATOM     25  H5  UNL     1      64.671  24.728  54.910  1.00  0.00     0.192 HD
ATOM     26  H6  UNL     1      64.309  25.869  52.708  1.00  0.00     0.188 HD
ENDBRANCH   1  18
TORSDOF 6
ENDMDL
MODEL 4
REMARK VINA RESULT: -6.822452702      2.939      5.465
REMARK  6 active torsions:
REMARK  status: ('A' for Active; 'I' for Inactive)
REMARK    1  A    between atoms: S1_2  and  N1_5 
REMARK    2  A    between atoms: N1_5  and  N2_7 
REMARK       I    between atoms: N2_7  and  C2_9 
REMARK    3  A    between atoms: C2_9  and  C3_11 
REMARK    4  A    between atoms: C3_11  and  N3_12 
REMARK    5  A    between atoms: C3_11  and  O4_16 
REMARK    6  A    between atoms: C3_11  and  C4_18 
ROOT
HETATM    1  C3  UNL     1      66.523  27.416  54.014  1.00  0.00     0.365 C 
ENDROOT
BRANCH   1   2
HETATM    2  C2  UNL     1      66.939  26.008  53.667  1.00  0.00     0.308 C 
HETATM    3  N2  UNL     1      66.761  25.539  52.356  1.00  0.00    -0.256 N 
ATOM      4  H2  UNL     1      66.346  26.229  51.730  1.00  0.00     0.190 HD
HETATM    5  O3  UNL     1      67.438  25.331  54.625  1.00  0.00    -0.266 OA
BRANCH   3   6
HETATM    6  N1  UNL     1      67.025  24.367  51.759  1.00  0.00    -0.225 N 
ATOM      7  H1  UNL     1      67.527  23.654  52.289  1.00  0.00     0.200 HD
BRANCH   6   8
HETATM    8  S1  UNL     1      66.571  24.020  50.189  1.00  0.00     0.240 S 
HETATM    9  C1  UNL     1      67.843  24.540  49.039  1.00  0.00     0.187 C 
HETATM   10  O1  UNL     1      65.342  24.915  49.870  1.00  0.00    -0.205 OA
HETATM   11  O2  UNL     1      66.098  22.650  49.888  1.00  0.00    -0.205 OA
ENDBRANCH   6   8
ENDBRANCH   3   6
ENDBRANCH   1   2
BRANCH   1  12
HETATM   12  N3  UNL     1      65.314  27.450  54.788  1.00  0.00    -0.030 N 
ATOM     13  H33 UNL     1      65.479  27.849  55.713  1.00  0.00     0.279 HD
ATOM     14  H32 UNL     1      64.663  28.147  54.425  1.00  0.00     0.279 HD
ATOM     15  H31 UNL     1      64.873  26.533  54.855  1.00  0.00     0.279 HD
ENDBRANCH   1  12
BRANCH   1  16
HETATM   16  O4  UNL     1      67.539  27.980  54.773  1.00  0.00    -0.352 OA
ATOM     17  H4  UNL     1      67.168  28.710  55.253  1.00  0.00     0.213 HD
ENDBRANCH   1  16
BRANCH   1  18
HETATM   18  C4  UNL     1      66.385  28.215  52.750  1.00  0.00     0.174 A 
HETATM   19  N4  UNL     1      67.141  29.264  52.379  1.00  0.00    -0.291 N 
HETATM   20  C5  UNL     1      66.710  29.722  51.173  1.00  0.00     0.340 A 
ATOM     21  H4  UNL     1      67.916  29.653  52.917  1.00  0.00     0.172 HD
HETATM   22  O5  UNL     1      67.159  30.684  50.498  1.00  0.00    -0.245 OA
HETATM   23  N5  UNL     1      65.675  28.943  50.803  1.00  0.00    -0.250 N 
HETATM   24  N6  UNL     1      65.492  28.045  51.758  1.00  0.00    -0.280 N 
ATOM     25  H5  UNL     1      65.130  29.029  49.944  1.00  0.00     0.192 HD
ATOM     26  H6  UNL     1      64.772  27.323  51.744  1.00  0.00     0.188 HD
ENDBRANCH   1  18
TORSDOF 6
ENDMDL
MODEL 5
REMARK VINA RESULT: -6.754485124      2.904      5.552
REMARK  6 active torsions:
REMARK  status: ('A' for Active; 'I' for Inactive)
REMARK    1  A    between atoms: S1_2  and  N1_5 
REMARK    2  A    between atoms: N1_5  and  N2_7 
REMARK       I    between atoms: N2_7  and  C2_9 
REMARK    3  A    between atoms: C2_9  and  C3_11 
REMARK    4  A    between atoms: C3_11  and  N3_12 
REMARK    5  A    between atoms: C3_11  and  O4_16 
REMARK    6  A    between atoms: C3_11  and  C4_18 
ROOT
HETATM    1  C3  UNL     1      66.459  27.321  54.002  1.00  0.00     0.365 C 
ENDROOT
BRANCH   1   2
HETATM    2  C2  UNL     1      66.875  25.920  53.632  1.00  0.00     0.308 C 
HETATM    3  N2  UNL     1      66.534  25.410  52.369  1.00  0.00    -0.256 N 
ATOM      4  H2  UNL     1      66.011  26.068  51.793  1.00  0.00     0.190 HD
HETATM    5  O3  UNL     1      67.526  25.285  54.526  1.00  0.00    -0.266 OA
BRANCH   3   6
HETATM    6  N1  UNL     1      66.756  24.231  51.768  1.00  0.00    -0.225 N 
ATOM      7  H1  UNL     1      66.900  23.407  52.352  1.00  0.00     0.200 HD
BRANCH   6   8
HETATM    8  S1  UNL     1      66.807  24.049  50.108  1.00  0.00     0.240 S 
HETATM    9  C1  UNL     1      66.082  22.483  49.626  1.00  0.00     0.187 C 
HETATM   10  O1  UNL     1      68.307  23.942  49.716  1.00  0.00    -0.205 OA
HETATM   11  O2  UNL     1      66.301  25.160  49.270  1.00  0.00    -0.205 OA
ENDBRANCH   6   8
ENDBRANCH   3   6
ENDBRANCH   1   2
BRANCH   1  12
HETATM   12  N3  UNL     1      65.243  27.344  54.767  1.00  0.00    -0.030 N 
ATOM     13  H33 UNL     1      64.433  27.154  54.177  1.00  0.00     0.279 HD
ATOM     14  H32 UNL     1      65.184  26.536  55.388  1.00  0.00     0.279 HD
ATOM     15  H31 UNL     1      65.128  28.216  55.283  1.00  0.00     0.279 HD
ENDBRANCH   1  12
BRANCH   1  16
HETATM   16  O4  UNL     1      67.470  27.869  54.781  1.00  0.00    -0.352 OA
ATOM     17  H4  UNL     1      67.527  28.793  54.570  1.00  0.00     0.213 HD
ENDBRANCH   1  16
BRANCH   1  18
HETATM   18  C4  UNL     1      66.333  28.145  52.754  1.00  0.00     0.174 A 
HETATM   19  N4  UNL     1      67.083  29.210  52.417  1.00  0.00    -0.291 N 
HETATM   20  C5  UNL     1      66.667  29.688  51.213  1.00  0.00     0.340 A 
ATOM     21  H4  UNL     1      67.843  29.597  52.976  1.00  0.00     0.172 HD
HETATM   22  O5  UNL     1      67.116  30.669  50.567  1.00  0.00    -0.245 OA
HETATM   23  N5  UNL     1      65.648  28.905  50.809  1.00  0.00    -0.250 N 
HETATM   24  N6  UNL     1      65.460  27.986  51.742  1.00  0.00    -0.280 N 
ATOM     25  H5  UNL     1      65.118  29.003  49.943  1.00  0.00     0.192 HD
ATOM     26  H6  UNL     1      64.749  27.255  51.701  1.00  0.00     0.188 HD
ENDBRANCH   1  18
TORSDOF 6
ENDMDL
