MODEL 1
REMARK VINA RESULT: -6.547452694      0.000      0.000
REMARK  6 active torsions:
REMARK  status: ('A' for Active; 'I' for Inactive)
REMARK    1  A    between atoms: N1_2  and  C2_4 
REMARK    2  A    between atoms: N3_9  and  C4_10 
REMARK    3  A    between atoms: C4_10  and  C5_11 
REMARK    4  A    between atoms: C5_11  and  N4_12 
REMARK    5  A    between atoms: C5_11  and  C6_16 
REMARK    6  A    between atoms: C7_19  and  N6_20 
REMARK       I    between atoms: N6_20  and  C8_22 
ROOT
HETATM    1  C2  UNL     1      66.924  32.696  46.095  1.00  0.00     0.696 A 
HETATM    2  N2  UNL     1      65.701  32.682  46.651  1.00  0.00    -0.140 N 
ATOM      3  H2  UNL     1      64.901  32.990  46.098  1.00  0.00     0.189 HD
HETATM    4  C3  UNL     1      65.503  32.272  47.916  1.00  0.00     0.355 A 
HETATM    5  O1  UNL     1      64.333  32.270  48.413  1.00  0.00    -0.245 OA
HETATM    6  N3  UNL     1      66.571  31.858  48.660  1.00  0.00    -0.129 N 
HETATM    7  C7  UNL     1      67.797  31.868  48.113  1.00  0.00     0.705 A 
HETATM    8  N9  UNL     1      67.958  32.288  46.835  1.00  0.00    -0.022 N 
ATOM      9  H9  UNL     1      68.894  32.293  46.427  1.00  0.00     0.203 HD
ENDROOT
BRANCH   6  10
HETATM   10  C4  UNL     1      66.333  31.413  50.021  1.00  0.00     0.195 C 
BRANCH  10  11
HETATM   11  C5  UNL     1      65.878  29.999  50.139  1.00  0.00     0.290 C 
BRANCH  11  12
HETATM   12  N4  UNL     1      64.513  29.832  50.544  1.00  0.00    -0.065 N 
ATOM     13  H43 UNL     1      64.068  30.742  50.663  1.00  0.00     0.275 HD
ATOM     14  H42 UNL     1      63.960  29.461  49.772  1.00  0.00     0.275 HD
ATOM     15  H41 UNL     1      64.377  29.262  51.379  1.00  0.00     0.275 HD
ENDBRANCH  11  12
BRANCH  11  16
HETATM   16  C6  UNL     1      66.758  29.342  51.152  1.00  0.00     0.263 C 
HETATM   17  N5  UNL     1      66.342  28.126  51.737  1.00  0.00    -0.060 NA
HETATM   18  O2  UNL     1      67.853  29.868  51.476  1.00  0.00    -0.275 OA
ENDBRANCH  11  16
ENDBRANCH  10  11
ENDBRANCH   6  10
BRANCH   7  19
HETATM   19  N6  UNL     1      68.784  31.472  48.819  1.00  0.00    -0.163 N 
HETATM   20  C8  UNL     1      70.098  31.978  48.717  1.00  0.00     0.200 C 
HETATM   21  N7  UNL     1      70.344  33.161  49.170  1.00  0.00    -0.373 N 
HETATM   22  N8  UNL     1      71.090  31.170  48.123  1.00  0.00    -0.063 NA
ATOM     23  H72 UNL     1      69.627  33.745  49.599  1.00  0.00     0.158 HD
ATOM     24  H71 UNL     1      71.294  33.526  49.096  1.00  0.00     0.158 HD
ATOM     25  H6  UNL     1      68.612  30.737  49.505  1.00  0.00     0.187 HD
ENDBRANCH   7  19
BRANCH   1  26
HETATM   26  N1  UNL     1      67.082  33.086  44.903  1.00  0.00    -0.230 N 
HETATM   27  C1  UNL     1      68.223  33.808  44.433  1.00  0.00     0.165 C 
ATOM     28  H1  UNL     1      66.346  32.871  44.231  1.00  0.00     0.177 HD
ENDBRANCH   1  26
TORSDOF 6
ENDMDL
MODEL 2
REMARK VINA RESULT: -6.318204807      2.139      5.323
REMARK  6 active torsions:
REMARK  status: ('A' for Active; 'I' for Inactive)
REMARK    1  A    between atoms: N1_2  and  C2_4 
REMARK    2  A    between atoms: N3_9  and  C4_10 
REMARK    3  A    between atoms: C4_10  and  C5_11 
REMARK    4  A    between atoms: C5_11  and  N4_12 
REMARK    5  A    between atoms: C5_11  and  C6_16 
REMARK    6  A    between atoms: C7_19  and  N6_20 
REMARK       I    between atoms: N6_20  and  C8_22 
ROOT
HETATM    1  C2  UNL     1      66.860  29.319  51.682  1.00  0.00     0.696 A 
HETATM    2  N2  UNL     1      65.595  29.668  51.396  1.00  0.00    -0.140 N 
ATOM      3  H2  UNL     1      64.885  29.602  52.126  1.00  0.00     0.189 HD
HETATM    4  C3  UNL     1      65.239  30.101  50.175  1.00  0.00     0.355 A 
HETATM    5  O1  UNL     1      64.033  30.424  49.935  1.00  0.00    -0.245 OA
HETATM    6  N3  UNL     1      66.186  30.191  49.194  1.00  0.00    -0.129 N 
HETATM    7  C7  UNL     1      67.453  29.844  49.470  1.00  0.00     0.705 A 
HETATM    8  N9  UNL     1      67.775  29.412  50.713  1.00  0.00    -0.022 N 
ATOM      9  H9  UNL     1      68.740  29.150  50.914  1.00  0.00     0.203 HD
ENDROOT
BRANCH   6  10
HETATM   10  C4  UNL     1      65.780  30.668  47.885  1.00  0.00     0.195 C 
BRANCH  10  11
HETATM   11  C5  UNL     1      65.827  32.149  47.724  1.00  0.00     0.290 C 
BRANCH  11  12
HETATM   12  N4  UNL     1      64.558  32.777  47.507  1.00  0.00    -0.065 N 
ATOM     13  H43 UNL     1      63.805  32.173  47.837  1.00  0.00     0.275 HD
ATOM     14  H42 UNL     1      64.443  33.568  48.141  1.00  0.00     0.275 HD
ATOM     15  H41 UNL     1      64.378  33.068  46.546  1.00  0.00     0.275 HD
ENDBRANCH  11  12
BRANCH  11  16
HETATM   16  C6  UNL     1      66.704  32.432  46.547  1.00  0.00     0.263 C 
HETATM   17  N5  UNL     1      68.097  32.545  46.741  1.00  0.00    -0.060 NA
HETATM   18  O2  UNL     1      66.202  32.566  45.402  1.00  0.00    -0.275 OA
ENDBRANCH  11  16
ENDBRANCH  10  11
ENDBRANCH   6  10
BRANCH   7  19
HETATM   19  N6  UNL     1      68.328  29.940  48.545  1.00  0.00    -0.163 N 
HETATM   20  C8  UNL     1      68.995  28.845  47.956  1.00  0.00     0.200 C 
HETATM   21  N7  UNL     1      68.338  28.078  47.152  1.00  0.00    -0.373 N 
HETATM   22  N8  UNL     1      70.354  28.633  48.267  1.00  0.00    -0.063 NA
ATOM     23  H72 UNL     1      67.356  28.231  46.927  1.00  0.00     0.158 HD
ATOM     24  H71 UNL     1      68.821  27.286  46.726  1.00  0.00     0.158 HD
ATOM     25  H6  UNL     1      68.562  30.874  48.209  1.00  0.00     0.187 HD
ENDBRANCH   7  19
BRANCH   1  26
HETATM   26  N1  UNL     1      67.168  28.914  52.839  1.00  0.00    -0.230 N 
HETATM   27  C1  UNL     1      66.308  28.143  53.682  1.00  0.00     0.165 C 
ATOM     28  H1  UNL     1      68.093  29.153  53.196  1.00  0.00     0.177 HD
ENDBRANCH   1  26
TORSDOF 6
ENDMDL
MODEL 3
REMARK VINA RESULT: -6.258133670      2.125      5.989
REMARK  6 active torsions:
REMARK  status: ('A' for Active; 'I' for Inactive)
REMARK    1  A    between atoms: N1_2  and  C2_4 
REMARK    2  A    between atoms: N3_9  and  C4_10 
REMARK    3  A    between atoms: C4_10  and  C5_11 
REMARK    4  A    between atoms: C5_11  and  N4_12 
REMARK    5  A    between atoms: C5_11  and  C6_16 
REMARK    6  A    between atoms: C7_19  and  N6_20 
REMARK       I    between atoms: N6_20  and  C8_22 
ROOT
HETATM    1  C2  UNL     1      66.982  28.727  50.301  1.00  0.00     0.696 A 
HETATM    2  N2  UNL     1      68.177  28.690  49.689  1.00  0.00    -0.140 N 
ATOM      3  H2  UNL     1      68.963  28.241  50.159  1.00  0.00     0.189 HD
HETATM    4  C3  UNL     1      68.367  29.231  48.473  1.00  0.00     0.355 A 
HETATM    5  O1  UNL     1      69.510  29.180  47.919  1.00  0.00    -0.245 OA
HETATM    6  N3  UNL     1      67.318  29.834  47.838  1.00  0.00    -0.129 N 
HETATM    7  C7  UNL     1      66.120  29.876  48.441  1.00  0.00     0.705 A 
HETATM    8  N9  UNL     1      65.966  29.320  49.668  1.00  0.00    -0.022 N 
ATOM      9  H9  UNL     1      65.052  29.357  50.119  1.00  0.00     0.203 HD
ENDROOT
BRANCH   6  10
HETATM   10  C4  UNL     1      67.543  30.405  46.522  1.00  0.00     0.195 C 
BRANCH  10  11
HETATM   11  C5  UNL     1      68.198  31.744  46.532  1.00  0.00     0.290 C 
BRANCH  11  12
HETATM   12  N4  UNL     1      68.423  32.300  47.833  1.00  0.00    -0.065 N 
ATOM     13  H43 UNL     1      68.179  31.621  48.554  1.00  0.00     0.275 HD
ATOM     14  H42 UNL     1      69.424  32.394  48.008  1.00  0.00     0.275 HD
ATOM     15  H41 UNL     1      67.951  33.187  48.012  1.00  0.00     0.275 HD
ENDBRANCH  11  12
BRANCH  11  16
HETATM   16  C6  UNL     1      67.309  32.669  45.767  1.00  0.00     0.263 C 
HETATM   17  N5  UNL     1      67.816  33.916  45.345  1.00  0.00    -0.060 NA
HETATM   18  O2  UNL     1      66.125  32.336  45.506  1.00  0.00    -0.275 OA
ENDBRANCH  11  16
ENDBRANCH  10  11
ENDBRANCH   6  10
BRANCH   7  19
HETATM   19  N6  UNL     1      65.148  30.437  47.833  1.00  0.00    -0.163 N 
HETATM   20  C8  UNL     1      64.397  31.516  48.345  1.00  0.00     0.200 C 
HETATM   21  N7  UNL     1      64.943  32.685  48.393  1.00  0.00    -0.373 N 
HETATM   22  N8  UNL     1      63.078  31.276  48.782  1.00  0.00    -0.063 NA
ATOM     23  H72 UNL     1      65.897  32.858  48.078  1.00  0.00     0.158 HD
ATOM     24  H71 UNL     1      64.400  33.465  48.764  1.00  0.00     0.158 HD
ATOM     25  H6  UNL     1      64.896  30.079  46.911  1.00  0.00     0.187 HD
ENDBRANCH   7  19
BRANCH   1  26
HETATM   26  N1  UNL     1      66.832  28.211  51.445  1.00  0.00    -0.230 N 
HETATM   27  C1  UNL     1      66.718  28.957  52.659  1.00  0.00     0.165 C 
ATOM     28  H1  UNL     1      66.788  27.194  51.506  1.00  0.00     0.177 HD
ENDBRANCH   1  26
TORSDOF 6
ENDMDL
MODEL 4
REMARK VINA RESULT: -6.219785424      3.612      7.401
REMARK  6 active torsions:
REMARK  status: ('A' for Active; 'I' for Inactive)
REMARK    1  A    between atoms: N1_2  and  C2_4 
REMARK    2  A    between atoms: N3_9  and  C4_10 
REMARK    3  A    between atoms: C4_10  and  C5_11 
REMARK    4  A    between atoms: C5_11  and  N4_12 
REMARK    5  A    between atoms: C5_11  and  C6_16 
REMARK    6  A    between atoms: C7_19  and  N6_20 
REMARK       I    between atoms: N6_20  and  C8_22 
ROOT
HETATM    1  C2  UNL     1      66.579  24.241  50.425  1.00  0.00     0.696 A 
HETATM    2  N2  UNL     1      67.432  24.919  49.638  1.00  0.00    -0.140 N 
ATOM      3  H2  UNL     1      67.937  24.419  48.906  1.00  0.00     0.189 HD
HETATM    4  C3  UNL     1      67.638  26.238  49.791  1.00  0.00     0.355 A 
HETATM    5  O1  UNL     1      68.451  26.852  49.031  1.00  0.00    -0.245 OA
HETATM    6  N3  UNL     1      66.965  26.912  50.770  1.00  0.00    -0.129 N 
HETATM    7  C7  UNL     1      66.110  26.244  51.560  1.00  0.00     0.705 A 
HETATM    8  N9  UNL     1      65.928  24.913  51.377  1.00  0.00    -0.022 N 
ATOM      9  H9  UNL     1      65.277  24.412  51.983  1.00  0.00     0.203 HD
ENDROOT
BRANCH   6  10
HETATM   10  C4  UNL     1      67.197  28.338  50.911  1.00  0.00     0.195 C 
BRANCH  10  11
HETATM   11  C5  UNL     1      66.609  29.172  49.825  1.00  0.00     0.290 C 
BRANCH  11  12
HETATM   12  N4  UNL     1      67.540  30.016  49.136  1.00  0.00    -0.065 N 
ATOM     13  H43 UNL     1      68.065  30.580  49.804  1.00  0.00     0.275 HD
ATOM     14  H42 UNL     1      68.296  29.457  48.741  1.00  0.00     0.275 HD
ATOM     15  H41 UNL     1      67.131  30.613  48.417  1.00  0.00     0.275 HD
ENDBRANCH  11  12
BRANCH  11  16
HETATM   16  C6  UNL     1      65.563  30.033  50.455  1.00  0.00     0.263 C 
HETATM   17  N5  UNL     1      64.434  30.409  49.695  1.00  0.00    -0.060 NA
HETATM   18  O2  UNL     1      65.691  30.415  51.646  1.00  0.00    -0.275 OA
ENDBRANCH  11  16
ENDBRANCH  10  11
ENDBRANCH   6  10
BRANCH   7  19
HETATM   19  N6  UNL     1      65.483  26.888  52.466  1.00  0.00    -0.163 N 
HETATM   20  C8  UNL     1      65.729  26.771  53.851  1.00  0.00     0.200 C 
HETATM   21  N7  UNL     1      66.808  27.287  54.335  1.00  0.00    -0.373 N 
HETATM   22  N8  UNL     1      64.785  26.095  54.651  1.00  0.00    -0.063 NA
ATOM     23  H72 UNL     1      67.491  27.776  53.756  1.00  0.00     0.158 HD
ATOM     24  H71 UNL     1      66.986  27.203  55.336  1.00  0.00     0.158 HD
ATOM     25  H6  UNL     1      64.751  27.533  52.168  1.00  0.00     0.187 HD
ENDBRANCH   7  19
BRANCH   1  26
HETATM   26  N1  UNL     1      66.404  23.000  50.260  1.00  0.00    -0.230 N 
HETATM   27  C1  UNL     1      65.740  22.419  49.135  1.00  0.00     0.165 C 
ATOM     28  H1  UNL     1      66.762  22.370  50.979  1.00  0.00     0.177 HD
ENDBRANCH   1  26
TORSDOF 6
ENDMDL
MODEL 5
REMARK VINA RESULT: -6.203479141      4.519      7.763
REMARK  6 active torsions:
REMARK  status: ('A' for Active; 'I' for Inactive)
REMARK    1  A    between atoms: N1_2  and  C2_4 
REMARK    2  A    between atoms: N3_9  and  C4_10 
REMARK    3  A    between atoms: C4_10  and  C5_11 
REMARK    4  A    between atoms: C5_11  and  N4_12 
REMARK    5  A    between atoms: C5_11  and  C6_16 
REMARK    6  A    between atoms: C7_19  and  N6_20 
REMARK       I    between atoms: N6_20  and  C8_22 
ROOT
HETATM    1  C2  UNL     1      66.130  23.456  49.998  1.00  0.00     0.696 A 
HETATM    2  N2  UNL     1      66.015  24.472  49.127  1.00  0.00    -0.140 N 
ATOM      3  H2  UNL     1      65.569  24.305  48.225  1.00  0.00     0.189 HD
HETATM    4  C3  UNL     1      66.471  25.704  49.411  1.00  0.00     0.355 A 
HETATM    5  O1  UNL     1      66.347  26.645  48.567  1.00  0.00    -0.245 OA
HETATM    6  N3  UNL     1      67.069  25.934  50.618  1.00  0.00    -0.129 N 
HETATM    7  C7  UNL     1      67.189  24.925  51.496  1.00  0.00     0.705 A 
HETATM    8  N9  UNL     1      66.717  23.696  51.174  1.00  0.00    -0.022 N 
ATOM      9  H9  UNL     1      66.812  22.934  51.846  1.00  0.00     0.203 HD
ENDROOT
BRANCH   6  10
HETATM   10  C4  UNL     1      67.548  27.273  50.908  1.00  0.00     0.195 C 
BRANCH  10  11
HETATM   11  C5  UNL     1      66.573  28.135  51.634  1.00  0.00     0.290 C 
BRANCH  11  12
HETATM   12  N4  UNL     1      65.198  27.765  51.475  1.00  0.00    -0.065 N 
ATOM     13  H43 UNL     1      64.708  28.463  50.917  1.00  0.00     0.275 HD
ATOM     14  H42 UNL     1      65.121  26.956  50.858  1.00  0.00     0.275 HD
ATOM     15  H41 UNL     1      64.694  27.593  52.345  1.00  0.00     0.275 HD
ENDBRANCH  11  12
BRANCH  11  16
HETATM   16  C6  UNL     1      66.753  29.526  51.116  1.00  0.00     0.263 C 
HETATM   17  N5  UNL     1      65.630  30.377  51.032  1.00  0.00    -0.060 NA
HETATM   18  O2  UNL     1      67.890  29.927  50.762  1.00  0.00    -0.275 OA
ENDBRANCH  11  16
ENDBRANCH  10  11
ENDBRANCH   6  10
BRANCH   7  19
HETATM   19  N6  UNL     1      67.744  25.156  52.622  1.00  0.00    -0.163 N 
HETATM   20  C8  UNL     1      67.091  25.070  53.870  1.00  0.00     0.200 C 
HETATM   21  N7  UNL     1      66.798  23.903  54.338  1.00  0.00    -0.373 N 
HETATM   22  N8  UNL     1      66.786  26.263  54.558  1.00  0.00    -0.063 NA
ATOM     23  H72 UNL     1      67.019  23.041  53.841  1.00  0.00     0.158 HD
ATOM     24  H71 UNL     1      66.327  23.841  55.241  1.00  0.00     0.158 HD
ATOM     25  H6  UNL     1      68.728  25.423  52.619  1.00  0.00     0.187 HD
ENDBRANCH   7  19
BRANCH   1  26
HETATM   26  N1  UNL     1      65.692  22.307  49.705  1.00  0.00    -0.230 N 
HETATM   27  C1  UNL     1      65.790  21.711  48.409  1.00  0.00     0.165 C 
ATOM     28  H1  UNL     1      65.239  21.769  50.442  1.00  0.00     0.177 HD
ENDBRANCH   1  26
TORSDOF 6
ENDMDL
