MODEL 1
REMARK VINA RESULT: -7.736566388      0.000      0.000
REMARK  7 active torsions:
REMARK  status: ('A' for Active; 'I' for Inactive)
REMARK    1  A    between atoms: C2_2  and  N1_3 
REMARK    2  A    between atoms: C2_2  and  C3_7 
REMARK    3  A    between atoms: C3_7  and  O1_8 
REMARK    4  A    between atoms: C3_7  and  C4_10 
REMARK    5  A    between atoms: C4_10  and  O2_11 
REMARK    6  A    between atoms: C4_10  and  C5_13 
REMARK       I    between atoms: C5_13  and  N2_15 
REMARK    7  A    between atoms: N2_15  and  C6_17 
ROOT
HETATM    1  C5  UNL     1      65.881  27.405  51.666  1.00  0.00     0.254 C 
HETATM    2  O3  UNL     1      65.926  26.511  50.807  1.00  0.00    -0.270 OA
HETATM    3  N2  UNL     1      65.310  28.654  51.216  1.00  0.00    -0.305 N 
ATOM      4  H2  UNL     1      64.316  28.840  51.349  1.00  0.00     0.170 HD
ENDROOT
BRANCH   1   5
HETATM    5  C4  UNL     1      66.357  27.254  53.035  1.00  0.00     0.241 C 
BRANCH   5   6
HETATM    6  C3  UNL     1      65.725  26.125  53.849  1.00  0.00     0.186 C 
BRANCH   6   7
HETATM    7  C2  UNL     1      66.705  25.150  54.442  1.00  0.00     0.211 C 
HETATM    8  C1  UNL     1      67.687  24.568  53.441  1.00  0.00     0.042 C 
BRANCH   7   9
HETATM    9  N1  UNL     1      65.840  23.999  54.849  1.00  0.00    -0.073 N 
ATOM     10  H13 UNL     1      65.546  23.407  54.071  1.00  0.00     0.274 HD
ATOM     11  H12 UNL     1      66.335  23.274  55.368  1.00  0.00     0.274 HD
ATOM     12  H11 UNL     1      65.066  24.420  55.363  1.00  0.00     0.274 HD
ENDBRANCH   7   9
ENDBRANCH   6   7
BRANCH   6  13
HETATM   13  O1  UNL     1      65.289  26.858  55.026  1.00  0.00    -0.390 OA
ATOM     14  H1  UNL     1      65.210  27.741  54.686  1.00  0.00     0.210 HD
ENDBRANCH   6  13
ENDBRANCH   5   6
BRANCH   5  15
HETATM   15  O2  UNL     1      66.034  28.474  53.757  1.00  0.00    -0.383 OA
ATOM     16  H2  UNL     1      65.301  28.856  53.288  1.00  0.00     0.210 HD
ENDBRANCH   5  15
ENDBRANCH   1   5
BRANCH   3  17
HETATM   17  C6  UNL     1      66.070  29.543  50.638  1.00  0.00     0.192 A 
HETATM   18  N3  UNL     1      67.385  29.632  50.859  1.00  0.00    -0.277 N 
HETATM   19  N4  UNL     1      68.139  30.553  50.253  1.00  0.00    -0.249 N 
ATOM     20  H3  UNL     1      67.825  28.980  51.508  1.00  0.00     0.189 HD
HETATM   21  C7  UNL     1      67.583  31.422  49.396  1.00  0.00     0.343 A 
ATOM     22  H4  UNL     1      69.140  30.596  50.443  1.00  0.00     0.192 HD
HETATM   23  O4  UNL     1      68.258  32.312  48.797  1.00  0.00    -0.245 OA
HETATM   24  N5  UNL     1      66.264  31.374  49.139  1.00  0.00    -0.266 N 
HETATM   25  C8  UNL     1      65.661  32.308  48.216  1.00  0.00     0.165 C 
HETATM   26  C9  UNL     1      65.508  30.439  49.756  1.00  0.00     0.296 A 
HETATM   27  O5  UNL     1      64.273  30.384  49.525  1.00  0.00    -0.264 OA
ENDBRANCH   3  17
TORSDOF 7
ENDMDL
MODEL 2
REMARK VINA RESULT: -7.460342064      2.999      5.391
REMARK  7 active torsions:
REMARK  status: ('A' for Active; 'I' for Inactive)
REMARK    1  A    between atoms: C2_2  and  N1_3 
REMARK    2  A    between atoms: C2_2  and  C3_7 
REMARK    3  A    between atoms: C3_7  and  O1_8 
REMARK    4  A    between atoms: C3_7  and  C4_10 
REMARK    5  A    between atoms: C4_10  and  O2_11 
REMARK    6  A    between atoms: C4_10  and  C5_13 
REMARK       I    between atoms: C5_13  and  N2_15 
REMARK    7  A    between atoms: N2_15  and  C6_17 
ROOT
HETATM    1  C5  UNL     1      66.680  25.311  54.062  1.00  0.00     0.254 C 
HETATM    2  O3  UNL     1      67.214  25.031  55.146  1.00  0.00    -0.270 OA
HETATM    3  N2  UNL     1      66.934  24.368  52.996  1.00  0.00    -0.305 N 
ATOM      4  H2  UNL     1      66.282  23.605  52.821  1.00  0.00     0.170 HD
ENDROOT
BRANCH   1   5
HETATM    5  C4  UNL     1      65.853  26.488  53.833  1.00  0.00     0.241 C 
BRANCH   5   6
HETATM    6  C3  UNL     1      66.598  27.791  53.539  1.00  0.00     0.186 C 
BRANCH   6   7
HETATM    7  C2  UNL     1      66.676  28.157  52.082  1.00  0.00     0.211 C 
HETATM    8  C1  UNL     1      66.555  29.646  51.807  1.00  0.00     0.042 C 
BRANCH   7   9
HETATM    9  N1  UNL     1      65.432  27.555  51.510  1.00  0.00    -0.073 N 
ATOM     10  H13 UNL     1      64.571  27.999  51.834  1.00  0.00     0.274 HD
ATOM     11  H12 UNL     1      65.298  27.749  50.518  1.00  0.00     0.274 HD
ATOM     12  H11 UNL     1      65.493  26.562  51.733  1.00  0.00     0.274 HD
ENDBRANCH   7   9
ENDBRANCH   6   7
BRANCH   6  13
HETATM   13  O1  UNL     1      65.641  28.764  54.039  1.00  0.00    -0.390 OA
ATOM     14  H1  UNL     1      65.073  28.220  54.572  1.00  0.00     0.210 HD
ENDBRANCH   6  13
ENDBRANCH   5   6
BRANCH   5  15
HETATM   15  O2  UNL     1      65.097  26.746  55.048  1.00  0.00    -0.383 OA
ATOM     16  H2  UNL     1      65.739  26.737  55.749  1.00  0.00     0.210 HD
ENDBRANCH   5  15
ENDBRANCH   1   5
BRANCH   3  17
HETATM   17  C6  UNL     1      68.002  24.498  52.258  1.00  0.00     0.192 A 
HETATM   18  N3  UNL     1      69.241  24.335  52.732  1.00  0.00    -0.277 N 
HETATM   19  N4  UNL     1      70.316  24.475  51.952  1.00  0.00    -0.249 N 
ATOM     20  H3  UNL     1      69.369  24.097  53.716  1.00  0.00     0.189 HD
HETATM   21  C7  UNL     1      70.173  24.786  50.656  1.00  0.00     0.343 A 
ATOM     22  H4  UNL     1      71.249  24.344  52.344  1.00  0.00     0.192 HD
HETATM   23  O4  UNL     1      71.164  24.928  49.878  1.00  0.00    -0.245 OA
HETATM   24  N5  UNL     1      68.948  24.961  50.130  1.00  0.00    -0.266 N 
HETATM   25  C8  UNL     1      68.790  25.297  48.734  1.00  0.00     0.165 C 
HETATM   26  C9  UNL     1      67.865  24.818  50.925  1.00  0.00     0.296 A 
HETATM   27  O5  UNL     1      66.714  24.979  50.445  1.00  0.00    -0.264 OA
ENDBRANCH   3  17
TORSDOF 7
ENDMDL
MODEL 3
REMARK VINA RESULT: -7.417580650      1.905      6.536
REMARK  7 active torsions:
REMARK  status: ('A' for Active; 'I' for Inactive)
REMARK    1  A    between atoms: C2_2  and  N1_3 
REMARK    2  A    between atoms: C2_2  and  C3_7 
REMARK    3  A    between atoms: C3_7  and  O1_8 
REMARK    4  A    between atoms: C3_7  and  C4_10 
REMARK    5  A    between atoms: C4_10  and  O2_11 
REMARK    6  A    between atoms: C4_10  and  C5_13 
REMARK       I    between atoms: C5_13  and  N2_15 
REMARK    7  A    between atoms: N2_15  and  C6_17 
ROOT
HETATM    1  C5  UNL     1      67.032  28.164  50.079  1.00  0.00     0.254 C 
HETATM    2  O3  UNL     1      66.301  27.803  49.144  1.00  0.00    -0.270 OA
HETATM    3  N2  UNL     1      67.512  27.095  50.926  1.00  0.00    -0.305 N 
ATOM      4  H2  UNL     1      68.414  26.659  50.737  1.00  0.00     0.170 HD
ENDROOT
BRANCH   1   5
HETATM    5  C4  UNL     1      67.404  29.548  50.344  1.00  0.00     0.241 C 
BRANCH   5   6
HETATM    6  C3  UNL     1      66.265  30.568  50.326  1.00  0.00     0.186 C 
BRANCH   6   7
HETATM    7  C2  UNL     1      65.672  30.827  48.967  1.00  0.00     0.211 C 
HETATM    8  C1  UNL     1      65.584  32.296  48.596  1.00  0.00     0.042 C 
BRANCH   7   9
HETATM    9  N1  UNL     1      64.252  30.381  49.123  1.00  0.00    -0.073 N 
ATOM     10  H13 UNL     1      63.717  30.931  49.795  1.00  0.00     0.274 HD
ATOM     11  H12 UNL     1      63.665  30.581  48.314  1.00  0.00     0.274 HD
ATOM     12  H11 UNL     1      64.311  29.389  49.356  1.00  0.00     0.274 HD
ENDBRANCH   7   9
ENDBRANCH   6   7
BRANCH   6  13
HETATM   13  O1  UNL     1      65.210  29.802  50.968  1.00  0.00    -0.390 OA
ATOM     14  H1  UNL     1      65.512  28.910  50.838  1.00  0.00     0.210 HD
ENDBRANCH   6  13
ENDBRANCH   5   6
BRANCH   5  15
HETATM   15  O2  UNL     1      68.316  29.974  49.295  1.00  0.00    -0.383 OA
ATOM     16  H2  UNL     1      68.057  29.483  48.524  1.00  0.00     0.210 HD
ENDBRANCH   5  15
ENDBRANCH   1   5
BRANCH   3  17
HETATM   17  C6  UNL     1      66.787  26.691  51.932  1.00  0.00     0.192 A 
HETATM   18  N3  UNL     1      65.588  27.206  52.221  1.00  0.00    -0.277 N 
HETATM   19  N4  UNL     1      64.869  26.772  53.259  1.00  0.00    -0.249 N 
ATOM     20  H3  UNL     1      65.213  27.950  51.633  1.00  0.00     0.189 HD
HETATM   21  C7  UNL     1      65.341  25.794  54.046  1.00  0.00     0.343 A 
ATOM     22  H4  UNL     1      63.957  27.185  53.453  1.00  0.00     0.192 HD
HETATM   23  O4  UNL     1      64.694  25.350  55.041  1.00  0.00    -0.245 OA
HETATM   24  N5  UNL     1      66.542  25.243  53.798  1.00  0.00    -0.266 N 
HETATM   25  C8  UNL     1      67.055  24.190  54.644  1.00  0.00     0.165 C 
HETATM   26  C9  UNL     1      67.265  25.688  52.746  1.00  0.00     0.296 A 
HETATM   27  O5  UNL     1      68.390  25.181  52.504  1.00  0.00    -0.264 OA
ENDBRANCH   3  17
TORSDOF 7
ENDMDL
MODEL 4
REMARK VINA RESULT: -7.364551368      0.986      1.046
REMARK  7 active torsions:
REMARK  status: ('A' for Active; 'I' for Inactive)
REMARK    1  A    between atoms: C2_2  and  N1_3 
REMARK    2  A    between atoms: C2_2  and  C3_7 
REMARK    3  A    between atoms: C3_7  and  O1_8 
REMARK    4  A    between atoms: C3_7  and  C4_10 
REMARK    5  A    between atoms: C4_10  and  O2_11 
REMARK    6  A    between atoms: C4_10  and  C5_13 
REMARK       I    between atoms: C5_13  and  N2_15 
REMARK    7  A    between atoms: N2_15  and  C6_17 
ROOT
HETATM    1  C5  UNL     1      66.027  27.477  51.662  1.00  0.00     0.254 C 
HETATM    2  O3  UNL     1      65.645  26.702  50.771  1.00  0.00    -0.270 OA
HETATM    3  N2  UNL     1      65.550  28.836  51.532  1.00  0.00    -0.305 N 
ATOM      4  H2  UNL     1      64.697  29.127  52.008  1.00  0.00     0.170 HD
ENDROOT
BRANCH   1   5
HETATM    5  C4  UNL     1      66.889  27.093  52.771  1.00  0.00     0.241 C 
BRANCH   5   6
HETATM    6  C3  UNL     1      66.531  25.790  53.485  1.00  0.00     0.186 C 
BRANCH   6   7
HETATM    7  C2  UNL     1      67.372  24.605  53.095  1.00  0.00     0.211 C 
HETATM    8  C1  UNL     1      68.793  24.956  52.692  1.00  0.00     0.042 C 
BRANCH   7   9
HETATM    9  N1  UNL     1      66.721  24.122  51.837  1.00  0.00    -0.073 N 
ATOM     10  H13 UNL     1      66.930  23.149  51.611  1.00  0.00     0.274 HD
ATOM     11  H12 UNL     1      65.710  24.011  51.912  1.00  0.00     0.274 HD
ATOM     12  H11 UNL     1      67.013  24.785  51.118  1.00  0.00     0.274 HD
ENDBRANCH   7   9
ENDBRANCH   6   7
BRANCH   6  13
HETATM   13  O1  UNL     1      67.024  26.075  54.823  1.00  0.00    -0.390 OA
ATOM     14  H1  UNL     1      67.382  25.233  55.080  1.00  0.00     0.210 HD
ENDBRANCH   6  13
ENDBRANCH   5   6
BRANCH   5  15
HETATM   15  O2  UNL     1      66.793  28.126  53.789  1.00  0.00    -0.383 OA
ATOM     16  H2  UNL     1      66.743  28.946  53.311  1.00  0.00     0.210 HD
ENDBRANCH   5  15
ENDBRANCH   1   5
BRANCH   3  17
HETATM   17  C6  UNL     1      66.216  29.688  50.802  1.00  0.00     0.192 A 
HETATM   18  N3  UNL     1      67.539  29.854  50.898  1.00  0.00    -0.277 N 
HETATM   19  N4  UNL     1      68.193  30.735  50.137  1.00  0.00    -0.249 N 
ATOM     20  H3  UNL     1      68.062  29.293  51.570  1.00  0.00     0.189 HD
HETATM   21  C7  UNL     1      67.527  31.483  49.246  1.00  0.00     0.343 A 
ATOM     22  H4  UNL     1      69.203  30.839  50.235  1.00  0.00     0.192 HD
HETATM   23  O4  UNL     1      68.106  32.331  48.502  1.00  0.00    -0.245 OA
HETATM   24  N5  UNL     1      66.196  31.354  49.110  1.00  0.00    -0.266 N 
HETATM   25  C8  UNL     1      65.474  32.159  48.152  1.00  0.00     0.165 C 
HETATM   26  C9  UNL     1      65.540  30.461  49.884  1.00  0.00     0.296 A 
HETATM   27  O5  UNL     1      64.295  30.330  49.767  1.00  0.00    -0.264 OA
ENDBRANCH   3  17
TORSDOF 7
ENDMDL
MODEL 5
REMARK VINA RESULT: -7.342595282      2.011      6.666
REMARK  7 active torsions:
REMARK  status: ('A' for Active; 'I' for Inactive)
REMARK    1  A    between atoms: C2_2  and  N1_3 
REMARK    2  A    between atoms: C2_2  and  C3_7 
REMARK    3  A    between atoms: C3_7  and  O1_8 
REMARK    4  A    between atoms: C3_7  and  C4_10 
REMARK    5  A    between atoms: C4_10  and  O2_11 
REMARK    6  A    between atoms: C4_10  and  C5_13 
REMARK       I    between atoms: C5_13  and  N2_15 
REMARK    7  A    between atoms: N2_15  and  C6_17 
ROOT
HETATM    1  C5  UNL     1      66.367  29.654  51.176  1.00  0.00     0.254 C 
HETATM    2  O3  UNL     1      65.609  30.453  51.746  1.00  0.00    -0.270 OA
HETATM    3  N2  UNL     1      65.921  28.280  51.182  1.00  0.00    -0.305 N 
ATOM      4  H2  UNL     1      65.377  27.914  50.401  1.00  0.00     0.170 HD
ENDROOT
BRANCH   1   5
HETATM    5  C4  UNL     1      67.622  30.027  50.537  1.00  0.00     0.241 C 
BRANCH   5   6
HETATM    6  C3  UNL     1      67.633  31.366  49.800  1.00  0.00     0.186 C 
BRANCH   6   7
HETATM    7  C2  UNL     1      68.652  31.471  48.697  1.00  0.00     0.211 C 
HETATM    8  C1  UNL     1      69.859  32.325  49.043  1.00  0.00     0.042 C 
BRANCH   7   9
HETATM    9  N1  UNL     1      67.928  32.236  47.634  1.00  0.00    -0.073 N 
ATOM     10  H13 UNL     1      67.027  32.610  47.935  1.00  0.00     0.274 HD
ATOM     11  H12 UNL     1      68.357  33.132  47.406  1.00  0.00     0.274 HD
ATOM     12  H11 UNL     1      67.865  31.594  46.844  1.00  0.00     0.274 HD
ENDBRANCH   7   9
ENDBRANCH   6   7
BRANCH   6  13
HETATM   13  O1  UNL     1      66.393  31.267  49.049  1.00  0.00    -0.390 OA
ATOM     14  H1  UNL     1      65.892  31.991  49.407  1.00  0.00     0.210 HD
ENDBRANCH   6  13
ENDBRANCH   5   6
BRANCH   5  15
HETATM   15  O2  UNL     1      67.919  29.029  49.522  1.00  0.00    -0.383 OA
ATOM     16  H2  UNL     1      68.453  28.376  49.961  1.00  0.00     0.210 HD
ENDBRANCH   5  15
ENDBRANCH   1   5
BRANCH   3  17
HETATM   17  C6  UNL     1      66.216  27.508  52.192  1.00  0.00     0.192 A 
HETATM   18  N3  UNL     1      65.701  27.675  53.413  1.00  0.00    -0.277 N 
HETATM   19  N4  UNL     1      66.022  26.868  54.428  1.00  0.00    -0.249 N 
ATOM     20  H3  UNL     1      65.044  28.438  53.575  1.00  0.00     0.189 HD
HETATM   21  C7  UNL     1      66.883  25.857  54.239  1.00  0.00     0.343 A 
ATOM     22  H4  UNL     1      65.612  27.022  55.349  1.00  0.00     0.192 HD
HETATM   23  O4  UNL     1      67.216  25.065  55.171  1.00  0.00    -0.245 OA
HETATM   24  N5  UNL     1      67.429  25.646  53.029  1.00  0.00    -0.266 N 
HETATM   25  C8  UNL     1      68.356  24.558  52.822  1.00  0.00     0.165 C 
HETATM   26  C9  UNL     1      67.099  26.467  52.007  1.00  0.00     0.296 A 
HETATM   27  O5  UNL     1      67.603  26.280  50.870  1.00  0.00    -0.264 OA
ENDBRANCH   3  17
TORSDOF 7
ENDMDL
