MODEL 1
REMARK VINA RESULT: -7.216720598      0.000      0.000
REMARK  4 active torsions:
REMARK  status: ('A' for Active; 'I' for Inactive)
REMARK    1  A    between atoms: C1_2  and  C2_4 
REMARK    2  A    between atoms: C2_4  and  N2_5 
REMARK    3  A    between atoms: C2_4  and  C3_9 
REMARK    4  A    between atoms: C3_9  and  N3_10 
ROOT
HETATM    1  N3  UNL     1      67.030  27.704  52.161  1.00  0.00    -0.282 N 
HETATM    2  C4  UNL     1      66.406  28.689  52.832  1.00  0.00     0.331 A 
HETATM    3  O2  UNL     1      66.218  28.604  54.076  1.00  0.00    -0.246 OA
HETATM    4  N4  UNL     1      65.946  29.815  52.236  1.00  0.00    -0.274 N 
ATOM      5  H4  UNL     1      65.482  30.526  52.801  1.00  0.00     0.173 HD
HETATM    6  C5  UNL     1      66.090  30.012  50.921  1.00  0.00     0.269 A 
HETATM    7  O3  UNL     1      65.660  31.071  50.348  1.00  0.00    -0.267 OA
HETATM    8  C6  UNL     1      66.722  29.031  50.197  1.00  0.00     0.144 A 
HETATM    9  C7  UNL     1      66.872  29.233  48.842  1.00  0.00     0.269 A 
HETATM   10  O4  UNL     1      66.440  30.284  48.301  1.00  0.00    -0.267 OA
HETATM   11  N5  UNL     1      67.497  28.256  48.155  1.00  0.00    -0.275 N 
ATOM     12  H5  UNL     1      67.627  28.369  47.149  1.00  0.00     0.173 HD
HETATM   13  C8  UNL     1      67.953  27.141  48.743  1.00  0.00     0.328 A 
HETATM   14  O5  UNL     1      68.539  26.222  48.102  1.00  0.00    -0.247 OA
HETATM   15  N6  UNL     1      67.795  26.960  50.079  1.00  0.00    -0.293 N 
ATOM     16  H6  UNL     1      68.146  26.107  50.514  1.00  0.00     0.172 HD
HETATM   17  C9  UNL     1      67.185  27.883  50.837  1.00  0.00     0.137 A 
ENDROOT
BRANCH   1  18
HETATM   18  C3  UNL     1      67.495  26.541  52.840  1.00  0.00     0.177 C 
BRANCH  18  19
HETATM   19  C2  UNL     1      66.459  25.412  52.894  1.00  0.00     0.290 C 
BRANCH  19  20
HETATM   20  C1  UNL     1      66.199  25.188  54.324  1.00  0.00     0.263 C 
HETATM   21  N1  UNL     1      67.196  24.649  55.153  1.00  0.00    -0.060 NA
HETATM   22  O1  UNL     1      65.086  25.482  54.786  1.00  0.00    -0.275 OA
ENDBRANCH  19  20
BRANCH  19  23
HETATM   23  N2  UNL     1      66.928  24.213  52.238  1.00  0.00    -0.065 N 
ATOM     24  H23 UNL     1      67.544  23.673  52.847  1.00  0.00     0.275 HD
ATOM     25  H22 UNL     1      66.176  23.533  52.127  1.00  0.00     0.275 HD
ATOM     26  H21 UNL     1      67.377  24.419  51.345  1.00  0.00     0.275 HD
ENDBRANCH  19  23
ENDBRANCH  18  19
ENDBRANCH   1  18
TORSDOF 4
ENDMDL
MODEL 2
REMARK VINA RESULT: -7.070257492      1.651      3.357
REMARK  4 active torsions:
REMARK  status: ('A' for Active; 'I' for Inactive)
REMARK    1  A    between atoms: C1_2  and  C2_4 
REMARK    2  A    between atoms: C2_4  and  N2_5 
REMARK    3  A    between atoms: C2_4  and  C3_9 
REMARK    4  A    between atoms: C3_9  and  N3_10 
ROOT
HETATM    1  N3  UNL     1      66.540  26.447  51.420  1.00  0.00    -0.282 N 
HETATM    2  C4  UNL     1      67.296  25.399  51.045  1.00  0.00     0.331 A 
HETATM    3  O2  UNL     1      67.224  24.299  51.658  1.00  0.00    -0.246 OA
HETATM    4  N4  UNL     1      68.166  25.447  50.009  1.00  0.00    -0.274 N 
ATOM      5  H4  UNL     1      68.710  24.617  49.773  1.00  0.00     0.173 HD
HETATM    6  C5  UNL     1      68.324  26.563  49.287  1.00  0.00     0.269 A 
HETATM    7  O3  UNL     1      69.143  26.619  48.308  1.00  0.00    -0.267 OA
HETATM    8  C6  UNL     1      67.571  27.657  49.636  1.00  0.00     0.144 A 
HETATM    9  C7  UNL     1      67.734  28.806  48.893  1.00  0.00     0.269 A 
HETATM   10  O4  UNL     1      68.545  28.838  47.933  1.00  0.00    -0.267 OA
HETATM   11  N5  UNL     1      66.982  29.866  49.255  1.00  0.00    -0.275 N 
ATOM     12  H5  UNL     1      67.073  30.735  48.729  1.00  0.00     0.173 HD
HETATM   13  C8  UNL     1      66.119  29.820  50.281  1.00  0.00     0.328 A 
HETATM   14  O5  UNL     1      65.412  30.811  50.623  1.00  0.00    -0.247 OA
HETATM   15  N6  UNL     1      65.975  28.678  51.001  1.00  0.00    -0.293 N 
ATOM     16  H6  UNL     1      65.316  28.656  51.778  1.00  0.00     0.172 HD
HETATM   17  C9  UNL     1      66.684  27.578  50.707  1.00  0.00     0.137 A 
ENDROOT
BRANCH   1  18
HETATM   18  C3  UNL     1      65.638  26.339  52.518  1.00  0.00     0.177 C 
BRANCH  18  19
HETATM   19  C2  UNL     1      66.288  26.648  53.872  1.00  0.00     0.290 C 
BRANCH  19  20
HETATM   20  C1  UNL     1      66.121  25.426  54.674  1.00  0.00     0.263 C 
HETATM   21  N1  UNL     1      67.242  24.712  55.125  1.00  0.00    -0.060 NA
HETATM   22  O1  UNL     1      64.975  25.037  54.947  1.00  0.00    -0.275 OA
ENDBRANCH  19  20
BRANCH  19  23
HETATM   23  N2  UNL     1      65.690  27.797  54.512  1.00  0.00    -0.065 N 
ATOM     24  H23 UNL     1      64.878  27.531  55.070  1.00  0.00     0.275 HD
ATOM     25  H22 UNL     1      66.285  28.158  55.257  1.00  0.00     0.275 HD
ATOM     26  H21 UNL     1      65.454  28.527  53.839  1.00  0.00     0.275 HD
ENDBRANCH  19  23
ENDBRANCH  18  19
ENDBRANCH   1  18
TORSDOF 4
ENDMDL
MODEL 3
REMARK VINA RESULT: -7.014131411      1.632      5.334
REMARK  4 active torsions:
REMARK  status: ('A' for Active; 'I' for Inactive)
REMARK    1  A    between atoms: C1_2  and  C2_4 
REMARK    2  A    between atoms: C2_4  and  N2_5 
REMARK    3  A    between atoms: C2_4  and  C3_9 
REMARK    4  A    between atoms: C3_9  and  N3_10 
ROOT
HETATM    1  N3  UNL     1      66.737  25.938  50.586  1.00  0.00    -0.282 N 
HETATM    2  C4  UNL     1      66.948  24.808  51.285  1.00  0.00     0.331 A 
HETATM    3  O2  UNL     1      67.143  23.710  50.695  1.00  0.00    -0.246 OA
HETATM    4  N4  UNL     1      66.966  24.767  52.638  1.00  0.00    -0.274 N 
ATOM      5  H4  UNL     1      67.133  23.878  53.110  1.00  0.00     0.173 HD
HETATM    6  C5  UNL     1      66.771  25.871  53.369  1.00  0.00     0.269 A 
HETATM    7  O3  UNL     1      66.786  25.843  54.646  1.00  0.00    -0.267 OA
HETATM    8  C6  UNL     1      66.552  27.047  52.695  1.00  0.00     0.144 A 
HETATM    9  C7  UNL     1      66.352  28.185  53.447  1.00  0.00     0.269 A 
HETATM   10  O4  UNL     1      66.371  28.133  54.703  1.00  0.00    -0.267 OA
HETATM   11  N5  UNL     1      66.141  29.327  52.761  1.00  0.00    -0.275 N 
ATOM     12  H5  UNL     1      65.988  30.191  53.282  1.00  0.00     0.173 HD
HETATM   13  C8  UNL     1      66.123  29.370  51.421  1.00  0.00     0.328 A 
HETATM   14  O5  UNL     1      65.925  30.439  50.775  1.00  0.00    -0.247 OA
HETATM   15  N6  UNL     1      66.321  28.238  50.699  1.00  0.00    -0.293 N 
ATOM     16  H6  UNL     1      66.305  28.284  49.681  1.00  0.00     0.172 HD
HETATM   17  C9  UNL     1      66.539  27.059  51.302  1.00  0.00     0.137 A 
ENDROOT
BRANCH   1  18
HETATM   18  C3  UNL     1      66.731  25.923  49.162  1.00  0.00     0.177 C 
BRANCH  18  19
HETATM   19  C2  UNL     1      68.135  25.848  48.548  1.00  0.00     0.290 C 
BRANCH  19  20
HETATM   20  C1  UNL     1      68.234  27.012  47.654  1.00  0.00     0.263 C 
HETATM   21  N1  UNL     1      67.815  28.280  48.087  1.00  0.00    -0.060 NA
HETATM   22  O1  UNL     1      68.694  26.856  46.512  1.00  0.00    -0.275 OA
ENDBRANCH  19  20
BRANCH  19  23
HETATM   23  N2  UNL     1      68.353  24.607  47.841  1.00  0.00    -0.065 N 
ATOM     24  H23 UNL     1      69.340  24.347  47.844  1.00  0.00     0.275 HD
ATOM     25  H22 UNL     1      67.977  23.814  48.359  1.00  0.00     0.275 HD
ATOM     26  H21 UNL     1      67.981  24.641  46.892  1.00  0.00     0.275 HD
ENDBRANCH  19  23
ENDBRANCH  18  19
ENDBRANCH   1  18
TORSDOF 4
ENDMDL
MODEL 4
REMARK VINA RESULT: -6.961630071      3.692      6.466
REMARK  4 active torsions:
REMARK  status: ('A' for Active; 'I' for Inactive)
REMARK    1  A    between atoms: C1_2  and  C2_4 
REMARK    2  A    between atoms: C2_4  and  N2_5 
REMARK    3  A    between atoms: C2_4  and  C3_9 
REMARK    4  A    between atoms: C3_9  and  N3_10 
ROOT
HETATM    1  N3  UNL     1      67.148  31.816  47.984  1.00  0.00    -0.282 N 
HETATM    2  C4  UNL     1      66.349  32.447  47.105  1.00  0.00     0.331 A 
HETATM    3  O2  UNL     1      66.837  33.138  46.168  1.00  0.00    -0.246 OA
HETATM    4  N4  UNL     1      64.997  32.388  47.158  1.00  0.00    -0.274 N 
ATOM      5  H4  UNL     1      64.446  32.888  46.460  1.00  0.00     0.173 HD
HETATM    6  C5  UNL     1      64.371  31.685  48.109  1.00  0.00     0.269 A 
HETATM    7  O3  UNL     1      63.095  31.623  48.168  1.00  0.00    -0.267 OA
HETATM    8  C6  UNL     1      65.149  31.025  49.027  1.00  0.00     0.144 A 
HETATM    9  C7  UNL     1      64.504  30.301  50.006  1.00  0.00     0.269 A 
HETATM   10  O4  UNL     1      63.248  30.254  50.045  1.00  0.00    -0.267 OA
HETATM   11  N5  UNL     1      65.291  29.661  50.895  1.00  0.00    -0.275 N 
ATOM     12  H5  UNL     1      64.851  29.113  51.635  1.00  0.00     0.173 HD
HETATM   13  C8  UNL     1      66.630  29.717  50.843  1.00  0.00     0.328 A 
HETATM   14  O5  UNL     1      67.371  29.119  51.675  1.00  0.00    -0.247 OA
HETATM   15  N6  UNL     1      67.246  30.438  49.872  1.00  0.00    -0.293 N 
ATOM     16  H6  UNL     1      68.264  30.473  49.844  1.00  0.00     0.172 HD
HETATM   17  C9  UNL     1      66.537  31.104  48.947  1.00  0.00     0.137 A 
ENDROOT
BRANCH   1  18
HETATM   18  C3  UNL     1      68.566  31.911  47.878  1.00  0.00     0.177 C 
BRANCH  18  19
HETATM   19  C2  UNL     1      69.162  30.965  46.828  1.00  0.00     0.290 C 
BRANCH  19  20
HETATM   20  C1  UNL     1      70.099  30.103  47.565  1.00  0.00     0.263 C 
HETATM   21  N1  UNL     1      71.484  30.249  47.394  1.00  0.00    -0.060 NA
HETATM   22  O1  UNL     1      69.646  29.247  48.341  1.00  0.00    -0.275 OA
ENDBRANCH  19  20
BRANCH  19  23
HETATM   23  N2  UNL     1      69.819  31.684  45.760  1.00  0.00    -0.065 N 
ATOM     24  H23 UNL     1      70.784  31.374  45.643  1.00  0.00     0.275 HD
ATOM     25  H22 UNL     1      69.452  31.411  44.849  1.00  0.00     0.275 HD
ATOM     26  H21 UNL     1      69.767  32.694  45.894  1.00  0.00     0.275 HD
ENDBRANCH  19  23
ENDBRANCH  18  19
ENDBRANCH   1  18
TORSDOF 4
ENDMDL
MODEL 5
REMARK VINA RESULT: -6.955170787      2.572      4.962
REMARK  4 active torsions:
REMARK  status: ('A' for Active; 'I' for Inactive)
REMARK    1  A    between atoms: C1_2  and  C2_4 
REMARK    2  A    between atoms: C2_4  and  N2_5 
REMARK    3  A    between atoms: C2_4  and  C3_9 
REMARK    4  A    between atoms: C3_9  and  N3_10 
ROOT
HETATM    1  N3  UNL     1      66.987  25.382  50.698  1.00  0.00    -0.282 N 
HETATM    2  C4  UNL     1      66.811  26.368  49.800  1.00  0.00     0.331 A 
HETATM    3  O2  UNL     1      66.900  26.138  48.562  1.00  0.00    -0.246 OA
HETATM    4  N4  UNL     1      66.531  27.646  50.148  1.00  0.00    -0.274 N 
ATOM      5  H4  UNL     1      66.407  28.348  49.419  1.00  0.00     0.173 HD
HETATM    6  C5  UNL     1      66.413  28.005  51.432  1.00  0.00     0.269 A 
HETATM    7  O3  UNL     1      66.150  29.208  51.772  1.00  0.00    -0.267 OA
HETATM    8  C6  UNL     1      66.585  27.028  52.383  1.00  0.00     0.144 A 
HETATM    9  C7  UNL     1      66.464  27.397  53.705  1.00  0.00     0.269 A 
HETATM   10  O4  UNL     1      66.204  28.588  54.015  1.00  0.00    -0.267 OA
HETATM   11  N5  UNL     1      66.636  26.420  54.618  1.00  0.00    -0.275 N 
ATOM     12  H5  UNL     1      66.554  26.653  55.608  1.00  0.00     0.173 HD
HETATM   13  C8  UNL     1      66.913  25.153  54.274  1.00  0.00     0.328 A 
HETATM   14  O5  UNL     1      67.075  24.235  55.128  1.00  0.00    -0.247 OA
HETATM   15  N6  UNL     1      67.030  24.811  52.966  1.00  0.00    -0.293 N 
ATOM     16  H6  UNL     1      67.241  23.845  52.718  1.00  0.00     0.172 HD
HETATM   17  C9  UNL     1      66.872  25.722  51.994  1.00  0.00     0.137 A 
ENDROOT
BRANCH   1  18
HETATM   18  C3  UNL     1      67.277  24.053  50.273  1.00  0.00     0.177 C 
BRANCH  18  19
HETATM   19  C2  UNL     1      66.027  23.180  50.110  1.00  0.00     0.290 C 
BRANCH  19  20
HETATM   20  C1  UNL     1      66.351  22.229  49.036  1.00  0.00     0.263 C 
HETATM   21  N1  UNL     1      65.402  21.287  48.610  1.00  0.00    -0.060 NA
HETATM   22  O1  UNL     1      67.474  22.274  48.511  1.00  0.00    -0.275 OA
ENDBRANCH  19  20
BRANCH  19  23
HETATM   23  N2  UNL     1      64.854  23.964  49.799  1.00  0.00    -0.065 N 
ATOM     24  H23 UNL     1      65.106  24.904  49.491  1.00  0.00     0.275 HD
ATOM     25  H22 UNL     1      64.401  23.632  48.947  1.00  0.00     0.275 HD
ATOM     26  H21 UNL     1      64.198  23.994  50.580  1.00  0.00     0.275 HD
ENDBRANCH  19  23
ENDBRANCH  18  19
ENDBRANCH   1  18
TORSDOF 4
ENDMDL
