MODEL 1
REMARK VINA RESULT: -7.091942673      0.000      0.000
REMARK  7 active torsions:
REMARK  status: ('A' for Active; 'I' for Inactive)
REMARK    1  A    between atoms: N1_1  and  N2_4 
REMARK       I    between atoms: N2_4  and  C1_6 
REMARK    2  A    between atoms: C1_6  and  C2_8 
REMARK    3  A    between atoms: C3_13  and  N5_14 
REMARK    4  A    between atoms: N5_14  and  C4_16 
REMARK    5  A    between atoms: C4_16  and  C7_23 
REMARK    6  A    between atoms: N6_17  and  C5_19 
REMARK    7  A    between atoms: C5_19  and  C6_20 
ROOT
HETATM    1  C2  UNL     1      65.812  27.244  53.145  1.00  0.00     0.206 A 
HETATM    2  N3  UNL     1      66.341  28.380  53.604  1.00  0.00    -0.266 N 
ATOM      3  H3  UNL     1      66.699  28.529  54.547  1.00  0.00     0.189 HD
HETATM    4  N4  UNL     1      66.323  29.289  52.626  1.00  0.00    -0.130 N 
ATOM      5  H4  UNL     1      66.663  30.249  52.691  1.00  0.00     0.205 HD
HETATM    6  C3  UNL     1      65.779  28.717  51.545  1.00  0.00     0.700 A 
HETATM    7  N9  UNL     1      65.464  27.457  51.863  1.00  0.00    -0.168 N 
ATOM      8  H9  UNL     1      65.033  26.774  51.240  1.00  0.00     0.186 HD
ENDROOT
BRANCH   6   9
HETATM    9  N5  UNL     1      65.591  29.259  50.418  1.00  0.00    -0.170 N 
ATOM     10  H5  UNL     1      64.683  29.686  50.237  1.00  0.00     0.186 HD
BRANCH   9  11
HETATM   11  C4  UNL     1      66.573  29.309  49.387  1.00  0.00     0.183 C 
HETATM   12  N6  UNL     1      66.887  30.446  48.868  1.00  0.00    -0.363 N 
ATOM     13  H6  UNL     1      67.588  30.506  48.129  1.00  0.00     0.161 HD
BRANCH  12  14
HETATM   14  C5  UNL     1      66.226  31.632  49.356  1.00  0.00     0.220 C 
BRANCH  14  15
HETATM   15  C6  UNL     1      65.115  31.982  48.447  1.00  0.00     0.248 C 
HETATM   16  N7  UNL     1      63.813  31.522  48.730  1.00  0.00    -0.061 NA
HETATM   17  O2  UNL     1      65.349  32.683  47.437  1.00  0.00    -0.275 OA
ENDBRANCH  14  15
ENDBRANCH  12  14
BRANCH  11  18
HETATM   18  C7  UNL     1      67.243  28.133  48.888  1.00  0.00     0.299 C 
HETATM   19  N8  UNL     1      66.543  26.925  48.700  1.00  0.00    -0.054 NA
HETATM   20  O3  UNL     1      68.461  28.189  48.620  1.00  0.00    -0.268 OA
ENDBRANCH  11  18
ENDBRANCH   9  11
ENDBRANCH   6   9
BRANCH   1  21
HETATM   21  C1  UNL     1      65.665  26.023  53.935  1.00  0.00     0.305 C 
HETATM   22  N2  UNL     1      66.579  24.941  53.811  1.00  0.00    -0.270 N 
ATOM     23  H2  UNL     1      67.360  25.007  53.158  1.00  0.00     0.189 HD
HETATM   24  O1  UNL     1      64.715  25.908  54.747  1.00  0.00    -0.263 OA
BRANCH  22  25
HETATM   25  N1  UNL     1      66.411  23.798  54.573  1.00  0.00    -0.342 N 
ATOM     26  H12 UNL     1      65.473  23.547  54.885  1.00  0.00     0.176 HD
ATOM     27  H11 UNL     1      67.217  23.222  54.816  1.00  0.00     0.176 HD
ENDBRANCH  22  25
ENDBRANCH   1  21
TORSDOF 7
ENDMDL
MODEL 2
REMARK VINA RESULT: -7.067300285      2.095      6.311
REMARK  7 active torsions:
REMARK  status: ('A' for Active; 'I' for Inactive)
REMARK    1  A    between atoms: N1_1  and  N2_4 
REMARK       I    between atoms: N2_4  and  C1_6 
REMARK    2  A    between atoms: C1_6  and  C2_8 
REMARK    3  A    between atoms: C3_13  and  N5_14 
REMARK    4  A    between atoms: N5_14  and  C4_16 
REMARK    5  A    between atoms: C4_16  and  C7_23 
REMARK    6  A    between atoms: N6_17  and  C5_19 
REMARK    7  A    between atoms: C5_19  and  C6_20 
ROOT
HETATM    1  C2  UNL     1      65.806  29.794  50.574  1.00  0.00     0.206 A 
HETATM    2  N3  UNL     1      65.713  29.778  51.905  1.00  0.00    -0.266 N 
ATOM      3  H3  UNL     1      65.273  30.497  52.479  1.00  0.00     0.189 HD
HETATM    4  N4  UNL     1      66.293  28.665  52.363  1.00  0.00    -0.130 N 
ATOM      5  H4  UNL     1      66.372  28.387  53.342  1.00  0.00     0.205 HD
HETATM    6  C3  UNL     1      66.751  27.978  51.309  1.00  0.00     0.700 A 
HETATM    7  N9  UNL     1      66.452  28.673  50.206  1.00  0.00    -0.168 N 
ATOM      8  H9  UNL     1      66.675  28.399  49.249  1.00  0.00     0.186 HD
ENDROOT
BRANCH   6   9
HETATM    9  N5  UNL     1      67.359  26.870  51.337  1.00  0.00    -0.170 N 
ATOM     10  H5  UNL     1      68.366  26.879  51.503  1.00  0.00     0.186 HD
BRANCH   9  11
HETATM   11  C4  UNL     1      66.722  25.609  51.151  1.00  0.00     0.183 C 
HETATM   12  N6  UNL     1      66.896  24.678  52.025  1.00  0.00    -0.363 N 
ATOM     13  H6  UNL     1      66.450  23.768  51.912  1.00  0.00     0.161 HD
BRANCH  12  14
HETATM   14  C5  UNL     1      67.736  24.953  53.166  1.00  0.00     0.220 C 
BRANCH  14  15
HETATM   15  C6  UNL     1      66.887  25.203  54.349  1.00  0.00     0.248 C 
HETATM   16  N7  UNL     1      65.806  26.104  54.252  1.00  0.00    -0.061 NA
HETATM   17  O2  UNL     1      67.142  24.610  55.422  1.00  0.00    -0.275 OA
ENDBRANCH  14  15
ENDBRANCH  12  14
BRANCH  11  18
HETATM   18  C7  UNL     1      65.880  25.319  50.016  1.00  0.00     0.299 C 
HETATM   19  N8  UNL     1      66.255  25.713  48.716  1.00  0.00    -0.054 NA
HETATM   20  O3  UNL     1      64.804  24.710  50.191  1.00  0.00    -0.268 OA
ENDBRANCH  11  18
ENDBRANCH   9  11
ENDBRANCH   6   9
BRANCH   1  21
HETATM   21  C1  UNL     1      65.282  30.861  49.723  1.00  0.00     0.305 C 
HETATM   22  N2  UNL     1      64.107  30.681  48.942  1.00  0.00    -0.270 N 
ATOM     23  H2  UNL     1      63.610  29.791  48.968  1.00  0.00     0.189 HD
HETATM   24  O1  UNL     1      65.869  31.968  49.667  1.00  0.00    -0.263 OA
BRANCH  22  25
HETATM   25  N1  UNL     1      63.637  31.711  48.146  1.00  0.00    -0.342 N 
ATOM     26  H12 UNL     1      63.083  32.452  48.575  1.00  0.00     0.176 HD
ATOM     27  H11 UNL     1      63.846  31.722  47.148  1.00  0.00     0.176 HD
ENDBRANCH  22  25
ENDBRANCH   1  21
TORSDOF 7
ENDMDL
MODEL 3
REMARK VINA RESULT: -7.020343957      1.526      1.543
REMARK  7 active torsions:
REMARK  status: ('A' for Active; 'I' for Inactive)
REMARK    1  A    between atoms: N1_1  and  N2_4 
REMARK       I    between atoms: N2_4  and  C1_6 
REMARK    2  A    between atoms: C1_6  and  C2_8 
REMARK    3  A    between atoms: C3_13  and  N5_14 
REMARK    4  A    between atoms: N5_14  and  C4_16 
REMARK    5  A    between atoms: C4_16  and  C7_23 
REMARK    6  A    between atoms: N6_17  and  C5_19 
REMARK    7  A    between atoms: C5_19  and  C6_20 
ROOT
HETATM    1  C2  UNL     1      66.126  27.066  53.212  1.00  0.00     0.206 A 
HETATM    2  N3  UNL     1      65.900  28.345  53.517  1.00  0.00    -0.266 N 
ATOM      3  H3  UNL     1      65.460  28.683  54.373  1.00  0.00     0.189 HD
HETATM    4  N4  UNL     1      66.344  29.111  52.517  1.00  0.00    -0.130 N 
ATOM      5  H4  UNL     1      66.303  30.130  52.476  1.00  0.00     0.205 HD
HETATM    6  C3  UNL     1      66.854  28.304  51.578  1.00  0.00     0.700 A 
HETATM    7  N9  UNL     1      66.720  27.044  52.005  1.00  0.00    -0.168 N 
ATOM      8  H9  UNL     1      67.018  26.208  51.501  1.00  0.00     0.186 HD
ENDROOT
BRANCH   6   9
HETATM    9  N5  UNL     1      67.372  28.657  50.480  1.00  0.00    -0.170 N 
ATOM     10  H5  UNL     1      68.188  29.268  50.510  1.00  0.00     0.186 HD
BRANCH   9  11
HETATM   11  C4  UNL     1      66.883  28.252  49.205  1.00  0.00     0.183 C 
HETATM   12  N6  UNL     1      66.321  29.122  48.439  1.00  0.00    -0.363 N 
ATOM     13  H6  UNL     1      65.963  28.855  47.522  1.00  0.00     0.161 HD
BRANCH  12  14
HETATM   14  C5  UNL     1      66.208  30.482  48.907  1.00  0.00     0.220 C 
BRANCH  14  15
HETATM   15  C6  UNL     1      64.807  30.753  49.289  1.00  0.00     0.248 C 
HETATM   16  N7  UNL     1      64.068  31.725  48.583  1.00  0.00    -0.061 NA
HETATM   17  O2  UNL     1      64.296  30.115  50.237  1.00  0.00    -0.275 OA
ENDBRANCH  14  15
ENDBRANCH  12  14
BRANCH  11  18
HETATM   18  C7  UNL     1      66.988  26.896  48.722  1.00  0.00     0.299 C 
HETATM   19  N8  UNL     1      68.022  26.518  47.843  1.00  0.00    -0.054 NA
HETATM   20  O3  UNL     1      66.149  26.048  49.091  1.00  0.00    -0.268 OA
ENDBRANCH  11  18
ENDBRANCH   9  11
ENDBRANCH   6   9
BRANCH   1  21
HETATM   21  C1  UNL     1      65.772  25.937  54.071  1.00  0.00     0.305 C 
HETATM   22  N2  UNL     1      66.515  24.724  54.049  1.00  0.00    -0.270 N 
ATOM     23  H2  UNL     1      67.315  24.628  53.424  1.00  0.00     0.189 HD
HETATM   24  O1  UNL     1      64.794  26.021  54.851  1.00  0.00    -0.263 OA
BRANCH  22  25
HETATM   25  N1  UNL     1      66.154  23.674  54.875  1.00  0.00    -0.342 N 
ATOM     26  H12 UNL     1      65.463  23.837  55.607  1.00  0.00     0.176 HD
ATOM     27  H11 UNL     1      66.577  22.754  54.747  1.00  0.00     0.176 HD
ENDBRANCH  22  25
ENDBRANCH   1  21
TORSDOF 7
ENDMDL
MODEL 4
REMARK VINA RESULT: -6.984310413      1.813      3.478
REMARK  7 active torsions:
REMARK  status: ('A' for Active; 'I' for Inactive)
REMARK    1  A    between atoms: N1_1  and  N2_4 
REMARK       I    between atoms: N2_4  and  C1_6 
REMARK    2  A    between atoms: C1_6  and  C2_8 
REMARK    3  A    between atoms: C3_13  and  N5_14 
REMARK    4  A    between atoms: N5_14  and  C4_16 
REMARK    5  A    between atoms: C4_16  and  C7_23 
REMARK    6  A    between atoms: N6_17  and  C5_19 
REMARK    7  A    between atoms: C5_19  and  C6_20 
ROOT
HETATM    1  C2  UNL     1      66.486  26.891  53.524  1.00  0.00     0.206 A 
HETATM    2  N3  UNL     1      65.786  27.920  54.006  1.00  0.00    -0.266 N 
ATOM      3  H3  UNL     1      65.222  27.909  54.856  1.00  0.00     0.189 HD
HETATM    4  N4  UNL     1      65.944  28.967  53.191  1.00  0.00    -0.130 N 
ATOM      5  H4  UNL     1      65.525  29.889  53.310  1.00  0.00     0.205 HD
HETATM    6  C3  UNL     1      66.751  28.590  52.192  1.00  0.00     0.700 A 
HETATM    7  N9  UNL     1      67.086  27.311  52.395  1.00  0.00    -0.168 N 
ATOM      8  H9  UNL     1      67.692  26.751  51.797  1.00  0.00     0.186 HD
ENDROOT
BRANCH   6   9
HETATM    9  N5  UNL     1      67.136  29.306  51.223  1.00  0.00    -0.170 N 
ATOM     10  H5  UNL     1      68.036  29.778  51.303  1.00  0.00     0.186 HD
BRANCH   9  11
HETATM   11  C4  UNL     1      66.386  29.490  50.025  1.00  0.00     0.183 C 
HETATM   12  N6  UNL     1      66.637  28.748  49.002  1.00  0.00    -0.363 N 
ATOM     13  H6  UNL     1      66.113  28.862  48.135  1.00  0.00     0.161 HD
BRANCH  12  14
HETATM   14  C5  UNL     1      67.676  27.752  49.112  1.00  0.00     0.220 C 
BRANCH  14  15
HETATM   15  C6  UNL     1      67.092  26.411  48.900  1.00  0.00     0.248 C 
HETATM   16  N7  UNL     1      66.027  25.978  49.716  1.00  0.00    -0.061 NA
HETATM   17  O2  UNL     1      67.555  25.678  47.997  1.00  0.00    -0.275 OA
ENDBRANCH  14  15
ENDBRANCH  12  14
BRANCH  11  18
HETATM   18  C7  UNL     1      65.345  30.481  49.900  1.00  0.00     0.299 C 
HETATM   19  N8  UNL     1      65.648  31.809  49.539  1.00  0.00    -0.054 NA
HETATM   20  O3  UNL     1      64.159  30.155  50.115  1.00  0.00    -0.268 OA
ENDBRANCH  11  18
ENDBRANCH   9  11
ENDBRANCH   6   9
BRANCH   1  21
HETATM   21  C1  UNL     1      66.553  25.572  54.150  1.00  0.00     0.305 C 
HETATM   22  N2  UNL     1      65.376  24.849  54.490  1.00  0.00    -0.270 N 
ATOM     23  H2  UNL     1      64.458  25.251  54.297  1.00  0.00     0.189 HD
HETATM   24  O1  UNL     1      67.665  25.049  54.402  1.00  0.00    -0.263 OA
BRANCH  22  25
HETATM   25  N1  UNL     1      65.473  23.603  55.082  1.00  0.00    -0.342 N 
ATOM     26  H12 UNL     1      65.572  22.780  54.487  1.00  0.00     0.176 HD
ATOM     27  H11 UNL     1      65.445  23.515  56.098  1.00  0.00     0.176 HD
ENDBRANCH  22  25
ENDBRANCH   1  21
TORSDOF 7
ENDMDL
MODEL 5
REMARK VINA RESULT: -6.938666497      1.145      1.145
REMARK  7 active torsions:
REMARK  status: ('A' for Active; 'I' for Inactive)
REMARK    1  A    between atoms: N1_1  and  N2_4 
REMARK       I    between atoms: N2_4  and  C1_6 
REMARK    2  A    between atoms: C1_6  and  C2_8 
REMARK    3  A    between atoms: C3_13  and  N5_14 
REMARK    4  A    between atoms: N5_14  and  C4_16 
REMARK    5  A    between atoms: C4_16  and  C7_23 
REMARK    6  A    between atoms: N6_17  and  C5_19 
REMARK    7  A    between atoms: C5_19  and  C6_20 
ROOT
HETATM    1  C2  UNL     1      66.413  27.165  53.043  1.00  0.00     0.206 A 
HETATM    2  N3  UNL     1      66.405  28.358  53.642  1.00  0.00    -0.266 N 
ATOM      3  H3  UNL     1      66.589  28.527  54.631  1.00  0.00     0.189 HD
HETATM    4  N4  UNL     1      66.115  29.294  52.734  1.00  0.00    -0.130 N 
ATOM      5  H4  UNL     1      66.039  30.296  52.908  1.00  0.00     0.205 HD
HETATM    6  C3  UNL     1      65.941  28.682  51.556  1.00  0.00     0.700 A 
HETATM    7  N9  UNL     1      66.124  27.371  51.745  1.00  0.00    -0.168 N 
ATOM      8  H9  UNL     1      66.056  26.649  51.027  1.00  0.00     0.186 HD
ENDROOT
BRANCH   6   9
HETATM    9  N5  UNL     1      65.654  29.233  50.455  1.00  0.00    -0.170 N 
ATOM     10  H5  UNL     1      64.735  29.665  50.360  1.00  0.00     0.186 HD
BRANCH   9  11
HETATM   11  C4  UNL     1      66.539  29.287  49.340  1.00  0.00     0.183 C 
HETATM   12  N6  UNL     1      66.788  30.423  48.785  1.00  0.00    -0.363 N 
ATOM     13  H6  UNL     1      67.418  30.485  47.986  1.00  0.00     0.161 HD
BRANCH  12  14
HETATM   14  C5  UNL     1      66.155  31.604  49.320  1.00  0.00     0.220 C 
BRANCH  14  15
HETATM   15  C6  UNL     1      65.003  31.969  48.469  1.00  0.00     0.248 C 
HETATM   16  N7  UNL     1      63.726  31.453  48.769  1.00  0.00    -0.061 NA
HETATM   17  O2  UNL     1      65.180  32.733  47.493  1.00  0.00    -0.275 OA
ENDBRANCH  14  15
ENDBRANCH  12  14
BRANCH  11  18
HETATM   18  C7  UNL     1      67.179  28.115  48.794  1.00  0.00     0.299 C 
HETATM   19  N8  UNL     1      68.565  28.097  48.541  1.00  0.00    -0.054 NA
HETATM   20  O3  UNL     1      66.493  27.103  48.541  1.00  0.00    -0.268 OA
ENDBRANCH  11  18
ENDBRANCH   9  11
ENDBRANCH   6   9
BRANCH   1  21
HETATM   21  C1  UNL     1      66.691  25.901  53.722  1.00  0.00     0.305 C 
HETATM   22  N2  UNL     1      65.644  25.072  54.210  1.00  0.00    -0.270 N 
ATOM     23  H2  UNL     1      64.671  25.355  54.088  1.00  0.00     0.189 HD
HETATM   24  O1  UNL     1      67.875  25.523  53.889  1.00  0.00    -0.263 OA
BRANCH  22  25
HETATM   25  N1  UNL     1      65.941  23.881  54.849  1.00  0.00    -0.342 N 
ATOM     26  H12 UNL     1      66.907  23.692  55.115  1.00  0.00     0.176 HD
ATOM     27  H11 UNL     1      65.200  23.208  55.047  1.00  0.00     0.176 HD
ENDBRANCH  22  25
ENDBRANCH   1  21
TORSDOF 7
ENDMDL
