MODEL 1
REMARK VINA RESULT: -7.310115187      0.000      0.000
REMARK  7 active torsions:
REMARK  status: ('A' for Active; 'I' for Inactive)
REMARK    1  A    between atoms: N1_1  and  C1_5 
REMARK    2  A    between atoms: C1_5  and  C2_6 
REMARK    3  A    between atoms: C2_6  and  N2_7 
REMARK    4  A    between atoms: C2_6  and  C3_11 
REMARK    5  A    between atoms: C3_11  and  O1_12 
REMARK    6  A    between atoms: C3_11  and  C4_14 
REMARK       I    between atoms: C4_14  and  N3_16 
REMARK    7  A    between atoms: N3_16  and  C5_18 
ROOT
HETATM    1  C4  UNL     1      66.166  30.557  50.425  1.00  0.00     0.266 C 
HETATM    2  O2  UNL     1      67.382  30.838  50.515  1.00  0.00    -0.270 OA
HETATM    3  N3  UNL     1      65.597  29.791  51.466  1.00  0.00    -0.157 N 
ATOM      4  H3  UNL     1      64.772  30.176  51.925  1.00  0.00     0.187 HD
ENDROOT
BRANCH   1   5
HETATM    5  C3  UNL     1      65.314  30.988  49.290  1.00  0.00     0.242 C 
BRANCH   5   6
HETATM    6  C2  UNL     1      65.791  30.548  47.948  1.00  0.00     0.246 C 
BRANCH   6   7
HETATM    7  C1  UNL     1      65.977  31.699  46.969  1.00  0.00     0.265 C 
BRANCH   7   8
HETATM    8  N1  UNL     1      65.004  32.743  47.216  1.00  0.00    -0.077 N 
ATOM      9  H13 UNL     1      65.259  33.315  48.021  1.00  0.00     0.274 HD
ATOM     10  H12 UNL     1      65.036  33.467  46.498  1.00  0.00     0.274 HD
ATOM     11  H11 UNL     1      64.069  32.349  47.312  1.00  0.00     0.274 HD
ENDBRANCH   7   8
ENDBRANCH   6   7
BRANCH   6  12
HETATM   12  N2  UNL     1      66.926  29.670  47.961  1.00  0.00    -0.070 N 
ATOM     13  H23 UNL     1      66.742  28.833  48.514  1.00  0.00     0.274 HD
ATOM     14  H22 UNL     1      67.067  29.231  47.051  1.00  0.00     0.274 HD
ATOM     15  H21 UNL     1      67.770  30.146  48.278  1.00  0.00     0.274 HD
ENDBRANCH   6  12
ENDBRANCH   5   6
BRANCH   5  16
HETATM   16  O1  UNL     1      64.010  30.522  49.451  1.00  0.00    -0.384 OA
ATOM     17  H1  UNL     1      63.953  30.114  50.307  1.00  0.00     0.210 HD
ENDBRANCH   5  16
ENDBRANCH   1   5
BRANCH   3  18
HETATM   18  C5  UNL     1      66.019  28.657  51.889  1.00  0.00     0.692 C 
HETATM   19  N4  UNL     1      65.602  27.550  51.219  1.00  0.00    -0.141 N 
HETATM   20  C6  UNL     1      65.639  26.252  51.568  1.00  0.00     0.341 C 
ATOM     21  H4  UNL     1      65.194  27.735  50.302  1.00  0.00     0.189 HD
HETATM   22  O3  UNL     1      65.068  25.442  50.762  1.00  0.00    -0.246 OA
HETATM   23  N5  UNL     1      66.198  25.674  52.660  1.00  0.00    -0.270 N 
HETATM   24  C7  UNL     1      66.681  26.294  53.748  1.00  0.00     0.318 C 
ATOM     25  H5  UNL     1      66.258  24.655  52.653  1.00  0.00     0.174 HD
HETATM   26  O4  UNL     1      66.865  25.603  54.782  1.00  0.00    -0.262 OA
HETATM   27  C8  UNL     1      67.009  27.627  53.877  1.00  0.00     0.328 C 
HETATM   28  O5  UNL     1      67.521  27.968  54.953  1.00  0.00    -0.261 OA
HETATM   29  N6  UNL     1      66.837  28.622  52.956  1.00  0.00    -0.151 N 
ATOM     30  H6  UNL     1      67.410  29.454  53.097  1.00  0.00     0.188 HD
ENDBRANCH   3  18
TORSDOF 7
ENDMDL
MODEL 2
REMARK VINA RESULT: -7.283177727      1.002      1.393
REMARK  7 active torsions:
REMARK  status: ('A' for Active; 'I' for Inactive)
REMARK    1  A    between atoms: N1_1  and  C1_5 
REMARK    2  A    between atoms: C1_5  and  C2_6 
REMARK    3  A    between atoms: C2_6  and  N2_7 
REMARK    4  A    between atoms: C2_6  and  C3_11 
REMARK    5  A    between atoms: C3_11  and  O1_12 
REMARK    6  A    between atoms: C3_11  and  C4_14 
REMARK       I    between atoms: C4_14  and  N3_16 
REMARK    7  A    between atoms: N3_16  and  C5_18 
ROOT
HETATM    1  C4  UNL     1      66.111  30.410  50.126  1.00  0.00     0.266 C 
HETATM    2  O2  UNL     1      67.245  30.855  50.417  1.00  0.00    -0.270 OA
HETATM    3  N3  UNL     1      65.483  29.566  51.069  1.00  0.00    -0.157 N 
ATOM      4  H3  UNL     1      64.547  29.832  51.374  1.00  0.00     0.187 HD
ENDROOT
BRANCH   1   5
HETATM    5  C3  UNL     1      65.415  30.727  48.856  1.00  0.00     0.242 C 
BRANCH   5   6
HETATM    6  C2  UNL     1      65.661  32.102  48.334  1.00  0.00     0.246 C 
BRANCH   6   7
HETATM    7  C1  UNL     1      66.700  32.146  47.223  1.00  0.00     0.265 C 
BRANCH   7   8
HETATM    8  N1  UNL     1      68.038  32.192  47.775  1.00  0.00    -0.077 N 
ATOM      9  H13 UNL     1      68.252  31.356  48.319  1.00  0.00     0.274 HD
ATOM     10  H12 UNL     1      68.749  32.091  47.051  1.00  0.00     0.274 HD
ATOM     11  H11 UNL     1      68.174  33.044  48.320  1.00  0.00     0.274 HD
ENDBRANCH   7   8
ENDBRANCH   6   7
BRANCH   6  12
HETATM   12  N2  UNL     1      64.481  32.845  47.992  1.00  0.00    -0.070 N 
ATOM     13  H23 UNL     1      64.330  32.858  46.983  1.00  0.00     0.274 HD
ATOM     14  H22 UNL     1      63.635  32.349  48.273  1.00  0.00     0.274 HD
ATOM     15  H21 UNL     1      64.502  33.789  48.376  1.00  0.00     0.274 HD
ENDBRANCH   6  12
ENDBRANCH   5   6
BRANCH   5  16
HETATM   16  O1  UNL     1      65.781  29.824  47.859  1.00  0.00    -0.384 OA
ATOM     17  H1  UNL     1      66.693  29.598  47.994  1.00  0.00     0.210 HD
ENDBRANCH   5  16
ENDBRANCH   1   5
BRANCH   3  18
HETATM   18  C5  UNL     1      65.978  28.499  51.577  1.00  0.00     0.692 C 
HETATM   19  N4  UNL     1      65.683  27.324  50.960  1.00  0.00    -0.141 N 
HETATM   20  C6  UNL     1      65.811  26.056  51.390  1.00  0.00     0.341 C 
ATOM     21  H4  UNL     1      65.302  27.419  50.018  1.00  0.00     0.189 HD
HETATM   22  O3  UNL     1      65.344  25.155  50.614  1.00  0.00    -0.246 OA
HETATM   23  N5  UNL     1      66.367  25.591  52.536  1.00  0.00    -0.270 N 
HETATM   24  C7  UNL     1      66.749  26.312  53.602  1.00  0.00     0.318 C 
ATOM     25  H5  UNL     1      66.510  24.583  52.595  1.00  0.00     0.174 HD
HETATM   26  O4  UNL     1      66.943  25.701  54.683  1.00  0.00    -0.262 OA
HETATM   27  C8  UNL     1      66.960  27.674  53.662  1.00  0.00     0.328 C 
HETATM   28  O5  UNL     1      67.395  28.119  54.734  1.00  0.00    -0.261 OA
HETATM   29  N6  UNL     1      66.748  28.595  52.675  1.00  0.00    -0.151 N 
ATOM     30  H6  UNL     1      67.244  29.479  52.787  1.00  0.00     0.188 HD
ENDBRANCH   3  18
TORSDOF 7
ENDMDL
MODEL 3
REMARK VINA RESULT: -7.205825889      1.879      6.432
REMARK  7 active torsions:
REMARK  status: ('A' for Active; 'I' for Inactive)
REMARK    1  A    between atoms: N1_1  and  C1_5 
REMARK    2  A    between atoms: C1_5  and  C2_6 
REMARK    3  A    between atoms: C2_6  and  N2_7 
REMARK    4  A    between atoms: C2_6  and  C3_11 
REMARK    5  A    between atoms: C3_11  and  O1_12 
REMARK    6  A    between atoms: C3_11  and  C4_14 
REMARK       I    between atoms: C4_14  and  N3_16 
REMARK    7  A    between atoms: N3_16  and  C5_18 
ROOT
HETATM    1  C4  UNL     1      66.779  28.516  51.502  1.00  0.00     0.266 C 
HETATM    2  O2  UNL     1      67.039  29.306  52.438  1.00  0.00    -0.270 OA
HETATM    3  N3  UNL     1      66.939  28.995  50.183  1.00  0.00    -0.157 N 
ATOM      4  H3  UNL     1      67.538  28.451  49.564  1.00  0.00     0.187 HD
ENDROOT
BRANCH   1   5
HETATM    5  C3  UNL     1      66.319  27.123  51.720  1.00  0.00     0.242 C 
BRANCH   5   6
HETATM    6  C2  UNL     1      66.774  26.506  52.999  1.00  0.00     0.246 C 
BRANCH   6   7
HETATM    7  C1  UNL     1      65.699  26.499  54.077  1.00  0.00     0.265 C 
BRANCH   7   8
HETATM    8  N1  UNL     1      65.578  27.806  54.688  1.00  0.00    -0.077 N 
ATOM      9  H13 UNL     1      66.221  27.919  55.472  1.00  0.00     0.274 HD
ATOM     10  H12 UNL     1      65.943  28.542  54.083  1.00  0.00     0.274 HD
ATOM     11  H11 UNL     1      64.612  27.988  54.962  1.00  0.00     0.274 HD
ENDBRANCH   7   8
ENDBRANCH   6   7
BRANCH   6  12
HETATM   12  N2  UNL     1      67.407  25.225  52.867  1.00  0.00    -0.070 N 
ATOM     13  H23 UNL     1      67.584  24.803  53.779  1.00  0.00     0.274 HD
ATOM     14  H22 UNL     1      66.763  24.529  52.492  1.00  0.00     0.274 HD
ATOM     15  H21 UNL     1      68.260  25.278  52.311  1.00  0.00     0.274 HD
ENDBRANCH   6  12
ENDBRANCH   5   6
BRANCH   5  16
HETATM   16  O1  UNL     1      64.927  27.056  51.688  1.00  0.00    -0.384 OA
ATOM     17  H1  UNL     1      64.606  27.299  52.548  1.00  0.00     0.210 HD
ENDBRANCH   5  16
ENDBRANCH   1   5
BRANCH   3  18
HETATM   18  C5  UNL     1      66.401  30.050  49.691  1.00  0.00     0.692 C 
HETATM   19  N4  UNL     1      65.052  30.173  49.813  1.00  0.00    -0.141 N 
HETATM   20  C6  UNL     1      64.190  30.991  49.183  1.00  0.00     0.341 C 
ATOM     21  H4  UNL     1      64.626  29.544  50.493  1.00  0.00     0.189 HD
HETATM   22  O3  UNL     1      62.953  30.798  49.438  1.00  0.00    -0.246 OA
HETATM   23  N5  UNL     1      64.444  31.997  48.310  1.00  0.00    -0.270 N 
HETATM   24  C7  UNL     1      65.617  32.284  47.723  1.00  0.00     0.318 C 
ATOM     25  H5  UNL     1      63.658  32.601  48.073  1.00  0.00     0.174 HD
HETATM   26  O4  UNL     1      65.599  33.035  46.716  1.00  0.00    -0.262 OA
HETATM   27  C8  UNL     1      66.871  31.846  48.096  1.00  0.00     0.328 C 
HETATM   28  O5  UNL     1      67.828  32.306  47.458  1.00  0.00    -0.261 OA
HETATM   29  N6  UNL     1      67.185  30.962  49.089  1.00  0.00    -0.151 N 
ATOM     30  H6  UNL     1      68.149  30.999  49.421  1.00  0.00     0.188 HD
ENDBRANCH   3  18
TORSDOF 7
ENDMDL
MODEL 4
REMARK VINA RESULT: -7.179548696      1.886      6.464
REMARK  7 active torsions:
REMARK  status: ('A' for Active; 'I' for Inactive)
REMARK    1  A    between atoms: N1_1  and  C1_5 
REMARK    2  A    between atoms: C1_5  and  C2_6 
REMARK    3  A    between atoms: C2_6  and  N2_7 
REMARK    4  A    between atoms: C2_6  and  C3_11 
REMARK    5  A    between atoms: C3_11  and  O1_12 
REMARK    6  A    between atoms: C3_11  and  C4_14 
REMARK       I    between atoms: C4_14  and  N3_16 
REMARK    7  A    between atoms: N3_16  and  C5_18 
ROOT
HETATM    1  C4  UNL     1      66.942  28.388  51.511  1.00  0.00     0.266 C 
HETATM    2  O2  UNL     1      66.920  29.329  52.337  1.00  0.00    -0.270 OA
HETATM    3  N3  UNL     1      67.404  28.679  50.208  1.00  0.00    -0.157 N 
ATOM      4  H3  UNL     1      68.166  28.104  49.850  1.00  0.00     0.187 HD
ENDROOT
BRANCH   1   5
HETATM    5  C3  UNL     1      66.512  27.008  51.840  1.00  0.00     0.242 C 
BRANCH   5   6
HETATM    6  C2  UNL     1      66.933  26.525  53.186  1.00  0.00     0.246 C 
BRANCH   6   7
HETATM    7  C1  UNL     1      65.800  26.518  54.203  1.00  0.00     0.265 C 
BRANCH   7   8
HETATM    8  N1  UNL     1      65.582  27.847  54.736  1.00  0.00    -0.077 N 
ATOM      9  H13 UNL     1      65.107  28.451  54.065  1.00  0.00     0.274 HD
ATOM     10  H12 UNL     1      64.875  27.848  55.471  1.00  0.00     0.274 HD
ATOM     11  H11 UNL     1      66.460  28.256  55.057  1.00  0.00     0.274 HD
ENDBRANCH   7   8
ENDBRANCH   6   7
BRANCH   6  12
HETATM   12  N2  UNL     1      67.662  25.289  53.191  1.00  0.00    -0.070 N 
ATOM     13  H23 UNL     1      67.954  25.033  54.135  1.00  0.00     0.274 HD
ATOM     14  H22 UNL     1      67.051  24.497  52.993  1.00  0.00     0.274 HD
ATOM     15  H21 UNL     1      68.456  25.314  52.552  1.00  0.00     0.274 HD
ENDBRANCH   6  12
ENDBRANCH   5   6
BRANCH   5  16
HETATM   16  O1  UNL     1      65.124  26.896  51.765  1.00  0.00    -0.384 OA
ATOM     17  H1  UNL     1      64.902  25.979  51.868  1.00  0.00     0.210 HD
ENDBRANCH   5  16
ENDBRANCH   1   5
BRANCH   3  18
HETATM   18  C5  UNL     1      66.956  29.596  49.434  1.00  0.00     0.692 C 
HETATM   19  N4  UNL     1      67.870  30.406  48.837  1.00  0.00    -0.141 N 
HETATM   20  C6  UNL     1      67.715  31.589  48.216  1.00  0.00     0.341 C 
ATOM     21  H4  UNL     1      68.830  30.060  48.865  1.00  0.00     0.189 HD
HETATM   22  O3  UNL     1      68.792  32.168  47.844  1.00  0.00    -0.246 OA
HETATM   23  N5  UNL     1      66.574  32.263  47.928  1.00  0.00    -0.270 N 
HETATM   24  C7  UNL     1      65.337  31.989  48.370  1.00  0.00     0.318 C 
ATOM     25  H5  UNL     1      66.667  33.067  47.306  1.00  0.00     0.174 HD
HETATM   26  O4  UNL     1      64.465  32.888  48.265  1.00  0.00    -0.262 OA
HETATM   27  C8  UNL     1      64.891  30.816  48.941  1.00  0.00     0.328 C 
HETATM   28  O5  UNL     1      63.681  30.752  49.200  1.00  0.00    -0.261 OA
HETATM   29  N6  UNL     1      65.627  29.708  49.256  1.00  0.00    -0.151 N 
ATOM     30  H6  UNL     1      65.095  28.846  49.372  1.00  0.00     0.188 HD
ENDBRANCH   3  18
TORSDOF 7
ENDMDL
MODEL 5
REMARK VINA RESULT: -6.976270645      1.792      6.404
REMARK  7 active torsions:
REMARK  status: ('A' for Active; 'I' for Inactive)
REMARK    1  A    between atoms: N1_1  and  C1_5 
REMARK    2  A    between atoms: C1_5  and  C2_6 
REMARK    3  A    between atoms: C2_6  and  N2_7 
REMARK    4  A    between atoms: C2_6  and  C3_11 
REMARK    5  A    between atoms: C3_11  and  O1_12 
REMARK    6  A    between atoms: C3_11  and  C4_14 
REMARK       I    between atoms: C4_14  and  N3_16 
REMARK    7  A    between atoms: N3_16  and  C5_18 
ROOT
HETATM    1  C4  UNL     1      66.382  27.869  52.961  1.00  0.00     0.266 C 
HETATM    2  O2  UNL     1      66.317  28.668  53.923  1.00  0.00    -0.270 OA
HETATM    3  N3  UNL     1      67.051  28.308  51.797  1.00  0.00    -0.157 N 
ATOM      4  H3  UNL     1      67.807  27.718  51.449  1.00  0.00     0.187 HD
ENDROOT
BRANCH   1   5
HETATM    5  C3  UNL     1      65.796  26.508  52.995  1.00  0.00     0.242 C 
BRANCH   5   6
HETATM    6  C2  UNL     1      66.780  25.408  53.205  1.00  0.00     0.246 C 
BRANCH   6   7
HETATM    7  C1  UNL     1      66.804  24.889  54.636  1.00  0.00     0.265 C 
BRANCH   7   8
HETATM    8  N1  UNL     1      66.073  23.644  54.742  1.00  0.00    -0.077 N 
ATOM      9  H13 UNL     1      65.106  23.795  55.029  1.00  0.00     0.274 HD
ATOM     10  H12 UNL     1      65.897  23.229  53.826  1.00  0.00     0.274 HD
ATOM     11  H11 UNL     1      66.555  22.994  55.364  1.00  0.00     0.274 HD
ENDBRANCH   7   8
ENDBRANCH   6   7
BRANCH   6  12
HETATM   12  N2  UNL     1      66.713  24.338  52.251  1.00  0.00    -0.070 N 
ATOM     13  H23 UNL     1      65.856  23.795  52.361  1.00  0.00     0.274 HD
ATOM     14  H22 UNL     1      66.559  24.691  51.307  1.00  0.00     0.274 HD
ATOM     15  H21 UNL     1      67.538  23.740  52.293  1.00  0.00     0.274 HD
ENDBRANCH   6  12
ENDBRANCH   5   6
BRANCH   5  16
HETATM   16  O1  UNL     1      64.833  26.414  53.999  1.00  0.00    -0.384 OA
ATOM     17  H1  UNL     1      65.288  26.300  54.825  1.00  0.00     0.210 HD
ENDBRANCH   5  16
ENDBRANCH   1   5
BRANCH   3  18
HETATM   18  C5  UNL     1      66.798  29.376  51.135  1.00  0.00     0.692 C 
HETATM   19  N4  UNL     1      65.500  29.605  50.800  1.00  0.00    -0.141 N 
HETATM   20  C6  UNL     1      64.967  30.456  49.905  1.00  0.00     0.341 C 
ATOM     21  H4  UNL     1      64.821  29.041  51.311  1.00  0.00     0.189 HD
HETATM   22  O3  UNL     1      63.704  30.367  49.738  1.00  0.00    -0.246 OA
HETATM   23  N5  UNL     1      65.580  31.399  49.148  1.00  0.00    -0.270 N 
HETATM   24  C7  UNL     1      66.901  31.571  48.979  1.00  0.00     0.318 C 
ATOM     25  H5  UNL     1      64.970  32.050  48.652  1.00  0.00     0.174 HD
HETATM   26  O4  UNL     1      67.280  32.276  48.010  1.00  0.00    -0.262 OA
HETATM   27  C8  UNL     1      67.919  31.058  49.755  1.00  0.00     0.328 C 
HETATM   28  O5  UNL     1      69.069  31.416  49.463  1.00  0.00    -0.261 OA
HETATM   29  N6  UNL     1      67.811  30.199  50.812  1.00  0.00    -0.151 N 
ATOM     30  H6  UNL     1      68.612  30.179  51.444  1.00  0.00     0.188 HD
ENDBRANCH   3  18
TORSDOF 7
ENDMDL
