MODEL 1
REMARK VINA RESULT: -6.880874294      0.000      0.000
REMARK  6 active torsions:
REMARK  status: ('A' for Active; 'I' for Inactive)
REMARK    1  A    between atoms: C2_2  and  N1_3 
REMARK    2  A    between atoms: C2_2  and  C3_8 
REMARK    3  A    between atoms: N1_3  and  O1_4 
REMARK    4  A    between atoms: O1_4  and  N2_5 
REMARK    5  A    between atoms: C3_8  and  N3_9 
REMARK    6  A    between atoms: C3_8  and  C8_22 
ROOT
HETATM    1  N3  UNL     1      65.886  28.018  51.334  1.00  0.00    -0.357 N 
ATOM      2  H3  UNL     1      65.021  28.207  51.841  1.00  0.00     0.162 HD
HETATM    3  C4  UNL     1      66.099  28.836  50.408  1.00  0.00     0.174 A 
HETATM    4  N4  UNL     1      65.135  29.895  50.185  1.00  0.00    -0.300 N 
ATOM      5  H4  UNL     1      64.311  29.949  50.785  1.00  0.00     0.171 HD
HETATM    6  C5  UNL     1      65.303  30.859  49.158  1.00  0.00     0.315 A 
HETATM    7  O2  UNL     1      64.441  31.763  48.998  1.00  0.00    -0.262 OA
HETATM    8  C6  UNL     1      66.438  30.840  48.281  1.00  0.00     0.316 A 
HETATM    9  O3  UNL     1      66.576  31.698  47.374  1.00  0.00    -0.262 OA
HETATM   10  N5  UNL     1      67.404  29.815  48.469  1.00  0.00    -0.283 N 
ATOM     11  H5  UNL     1      68.222  29.776  47.861  1.00  0.00     0.172 HD
HETATM   12  C7  UNL     1      67.241  28.828  49.514  1.00  0.00     0.292 A 
HETATM   13  O4  UNL     1      68.122  27.932  49.652  1.00  0.00    -0.264 OA
ENDROOT
BRANCH   1  14
HETATM   14  C3  UNL     1      66.576  26.900  51.829  1.00  0.00     0.194 C 
BRANCH  14  15
HETATM   15  C2  UNL     1      66.362  26.856  53.338  1.00  0.00     0.136 C 
HETATM   16  C1  UNL     1      66.308  28.214  53.956  1.00  0.00     0.033 C 
BRANCH  15  17
HETATM   17  N1  UNL     1      67.443  26.120  53.982  1.00  0.00    -0.067 NA
BRANCH  17  18
HETATM   18  O1  UNL     1      66.998  25.312  54.947  1.00  0.00    -0.172 OA
BRANCH  18  19
HETATM   19  N2  UNL     1      66.689  24.105  54.424  1.00  0.00    -0.290 N 
ATOM     20  H22 UNL     1      65.766  23.850  54.073  1.00  0.00     0.186 HD
ATOM     21  H21 UNL     1      67.512  23.502  54.438  1.00  0.00     0.186 HD
ENDBRANCH  18  19
ENDBRANCH  17  18
ENDBRANCH  15  17
ENDBRANCH  14  15
BRANCH  14  22
HETATM   22  C8  UNL     1      66.218  25.618  51.201  1.00  0.00     0.255 C 
HETATM   23  N6  UNL     1      67.060  24.478  51.203  1.00  0.00    -0.060 NA
HETATM   24  O5  UNL     1      65.107  25.516  50.628  1.00  0.00    -0.275 OA
ENDBRANCH  14  22
ENDBRANCH   1  14
TORSDOF 6
ENDMDL
MODEL 2
REMARK VINA RESULT: -6.773084672      1.757      5.763
REMARK  6 active torsions:
REMARK  status: ('A' for Active; 'I' for Inactive)
REMARK    1  A    between atoms: C2_2  and  N1_3 
REMARK    2  A    between atoms: C2_2  and  C3_8 
REMARK    3  A    between atoms: N1_3  and  O1_4 
REMARK    4  A    between atoms: O1_4  and  N2_5 
REMARK    5  A    between atoms: C3_8  and  N3_9 
REMARK    6  A    between atoms: C3_8  and  C8_22 
ROOT
HETATM    1  N3  UNL     1      66.654  29.035  50.811  1.00  0.00    -0.357 N 
ATOM      2  H3  UNL     1      66.896  29.927  51.243  1.00  0.00     0.162 HD
HETATM    3  C4  UNL     1      66.302  28.167  51.645  1.00  0.00     0.174 A 
HETATM    4  N4  UNL     1      66.283  28.525  53.049  1.00  0.00    -0.300 N 
ATOM      5  H4  UNL     1      66.556  29.469  53.323  1.00  0.00     0.171 HD
HETATM    6  C5  UNL     1      65.898  27.600  54.054  1.00  0.00     0.315 A 
HETATM    7  O2  UNL     1      65.896  27.951  55.262  1.00  0.00    -0.262 OA
HETATM    8  C6  UNL     1      65.504  26.258  53.735  1.00  0.00     0.316 A 
HETATM    9  O3  UNL     1      65.165  25.448  54.633  1.00  0.00    -0.262 OA
HETATM   10  N5  UNL     1      65.511  25.872  52.368  1.00  0.00    -0.283 N 
ATOM     11  H5  UNL     1      65.236  24.923  52.111  1.00  0.00     0.172 HD
HETATM   12  C7  UNL     1      65.902  26.807  51.337  1.00  0.00     0.292 A 
HETATM   13  O4  UNL     1      65.895  26.429  50.131  1.00  0.00    -0.264 OA
ENDROOT
BRANCH   1  14
HETATM   14  C3  UNL     1      66.790  29.051  49.414  1.00  0.00     0.194 C 
BRANCH  14  15
HETATM   15  C2  UNL     1      66.196  30.361  48.907  1.00  0.00     0.136 C 
HETATM   16  C1  UNL     1      66.588  31.536  49.739  1.00  0.00     0.033 C 
BRANCH  15  17
HETATM   17  N1  UNL     1      64.740  30.290  48.902  1.00  0.00    -0.067 NA
BRANCH  17  18
HETATM   18  O1  UNL     1      64.224  30.448  50.123  1.00  0.00    -0.172 OA
BRANCH  18  19
HETATM   19  N2  UNL     1      62.917  30.103  50.114  1.00  0.00    -0.290 N 
ATOM     20  H22 UNL     1      62.288  30.255  49.326  1.00  0.00     0.186 HD
ATOM     21  H21 UNL     1      62.668  29.674  51.005  1.00  0.00     0.186 HD
ENDBRANCH  18  19
ENDBRANCH  17  18
ENDBRANCH  15  17
ENDBRANCH  14  15
BRANCH  14  22
HETATM   22  C8  UNL     1      68.162  28.859  48.918  1.00  0.00     0.255 C 
HETATM   23  N6  UNL     1      69.001  29.920  48.493  1.00  0.00    -0.060 NA
HETATM   24  O5  UNL     1      68.627  27.696  48.863  1.00  0.00    -0.275 OA
ENDBRANCH  14  22
ENDBRANCH   1  14
TORSDOF 6
ENDMDL
MODEL 3
REMARK VINA RESULT: -6.760043878      2.008      6.030
REMARK  6 active torsions:
REMARK  status: ('A' for Active; 'I' for Inactive)
REMARK    1  A    between atoms: C2_2  and  N1_3 
REMARK    2  A    between atoms: C2_2  and  C3_8 
REMARK    3  A    between atoms: N1_3  and  O1_4 
REMARK    4  A    between atoms: O1_4  and  N2_5 
REMARK    5  A    between atoms: C3_8  and  N3_9 
REMARK    6  A    between atoms: C3_8  and  C8_22 
ROOT
HETATM    1  N3  UNL     1      66.753  30.334  50.401  1.00  0.00    -0.357 N 
ATOM      2  H3  UNL     1      66.430  31.143  50.933  1.00  0.00     0.162 HD
HETATM    3  C4  UNL     1      66.802  29.286  51.087  1.00  0.00     0.174 A 
HETATM    4  N4  UNL     1      66.412  29.352  52.482  1.00  0.00    -0.300 N 
ATOM      5  H4  UNL     1      66.109  30.245  52.869  1.00  0.00     0.171 HD
HETATM    6  C5  UNL     1      66.441  28.210  53.324  1.00  0.00     0.315 A 
HETATM    7  O2  UNL     1      66.095  28.311  54.529  1.00  0.00    -0.262 OA
HETATM    8  C6  UNL     1      66.858  26.925  52.841  1.00  0.00     0.316 A 
HETATM    9  O3  UNL     1      66.879  25.921  53.596  1.00  0.00    -0.262 OA
HETATM   10  N5  UNL     1      67.247  26.822  51.479  1.00  0.00    -0.283 N 
ATOM     11  H5  UNL     1      67.548  25.921  51.108  1.00  0.00     0.172 HD
HETATM   12  C7  UNL     1      67.222  27.980  50.613  1.00  0.00     0.292 A 
HETATM   13  O4  UNL     1      67.574  27.851  49.406  1.00  0.00    -0.264 OA
ENDROOT
BRANCH   1  14
HETATM   14  C3  UNL     1      67.043  30.642  49.063  1.00  0.00     0.194 C 
BRANCH  14  15
HETATM   15  C2  UNL     1      65.727  30.981  48.370  1.00  0.00     0.136 C 
HETATM   16  C1  UNL     1      65.326  32.407  48.554  1.00  0.00     0.033 C 
BRANCH  15  17
HETATM   17  N1  UNL     1      64.651  30.149  48.892  1.00  0.00    -0.067 NA
BRANCH  17  18
HETATM   18  O1  UNL     1      63.744  30.861  49.566  1.00  0.00    -0.172 OA
BRANCH  18  19
HETATM   19  N2  UNL     1      62.971  30.034  50.304  1.00  0.00    -0.290 N 
ATOM     20  H22 UNL     1      63.330  29.271  50.878  1.00  0.00     0.186 HD
ATOM     21  H21 UNL     1      61.990  30.293  50.197  1.00  0.00     0.186 HD
ENDBRANCH  18  19
ENDBRANCH  17  18
ENDBRANCH  15  17
ENDBRANCH  14  15
BRANCH  14  22
HETATM   22  C8  UNL     1      68.038  31.709  48.870  1.00  0.00     0.255 C 
HETATM   23  N6  UNL     1      68.431  32.199  47.599  1.00  0.00    -0.060 NA
HETATM   24  O5  UNL     1      68.576  32.223  49.880  1.00  0.00    -0.275 OA
ENDBRANCH  14  22
ENDBRANCH   1  14
TORSDOF 6
ENDMDL
MODEL 4
REMARK VINA RESULT: -6.667621760      3.676      5.455
REMARK  6 active torsions:
REMARK  status: ('A' for Active; 'I' for Inactive)
REMARK    1  A    between atoms: C2_2  and  N1_3 
REMARK    2  A    between atoms: C2_2  and  C3_8 
REMARK    3  A    between atoms: N1_3  and  O1_4 
REMARK    4  A    between atoms: O1_4  and  N2_5 
REMARK    5  A    between atoms: C3_8  and  N3_9 
REMARK    6  A    between atoms: C3_8  and  C8_22 
ROOT
HETATM    1  N3  UNL     1      66.125  24.890  51.494  1.00  0.00    -0.357 N 
ATOM      2  H3  UNL     1      65.156  25.110  51.725  1.00  0.00     0.162 HD
HETATM    3  C4  UNL     1      66.231  24.147  50.489  1.00  0.00     0.174 A 
HETATM    4  N4  UNL     1      65.021  23.717  49.816  1.00  0.00    -0.300 N 
ATOM      5  H4  UNL     1      64.118  24.028  50.175  1.00  0.00     0.171 HD
HETATM    6  C5  UNL     1      65.057  22.877  48.673  1.00  0.00     0.315 A 
HETATM    7  O2  UNL     1      63.983  22.526  48.119  1.00  0.00    -0.262 OA
HETATM    8  C6  UNL     1      66.294  22.406  48.120  1.00  0.00     0.316 A 
HETATM    9  O3  UNL     1      66.313  21.662  47.108  1.00  0.00    -0.262 OA
HETATM   10  N5  UNL     1      67.500  22.807  48.754  1.00  0.00    -0.283 N 
ATOM     11  H5  UNL     1      68.395  22.487  48.382  1.00  0.00     0.172 HD
HETATM   12  C7  UNL     1      67.474  23.663  49.919  1.00  0.00     0.292 A 
HETATM   13  O4  UNL     1      68.567  24.000  50.456  1.00  0.00    -0.264 OA
ENDROOT
BRANCH   1  14
HETATM   14  C3  UNL     1      67.045  25.485  52.371  1.00  0.00     0.194 C 
BRANCH  14  15
HETATM   15  C2  UNL     1      66.609  26.931  52.586  1.00  0.00     0.136 C 
HETATM   16  C1  UNL     1      66.778  27.775  51.367  1.00  0.00     0.033 C 
BRANCH  15  17
HETATM   17  N1  UNL     1      67.386  27.541  53.657  1.00  0.00    -0.067 NA
BRANCH  17  18
HETATM   18  O1  UNL     1      66.656  28.382  54.394  1.00  0.00    -0.172 OA
BRANCH  18  19
HETATM   19  N2  UNL     1      65.501  27.784  54.759  1.00  0.00    -0.290 N 
ATOM     20  H22 UNL     1      64.654  27.775  54.191  1.00  0.00     0.186 HD
ATOM     21  H21 UNL     1      65.612  27.352  55.676  1.00  0.00     0.186 HD
ENDBRANCH  18  19
ENDBRANCH  17  18
ENDBRANCH  15  17
ENDBRANCH  14  15
BRANCH  14  22
HETATM   22  C8  UNL     1      67.227  24.786  53.654  1.00  0.00     0.255 C 
HETATM   23  N6  UNL     1      66.234  24.724  54.664  1.00  0.00    -0.060 NA
HETATM   24  O5  UNL     1      68.318  24.209  53.877  1.00  0.00    -0.275 OA
ENDBRANCH  14  22
ENDBRANCH   1  14
TORSDOF 6
ENDMDL
MODEL 5
REMARK VINA RESULT: -6.663118586      1.953      2.623
REMARK  6 active torsions:
REMARK  status: ('A' for Active; 'I' for Inactive)
REMARK    1  A    between atoms: C2_2  and  N1_3 
REMARK    2  A    between atoms: C2_2  and  C3_8 
REMARK    3  A    between atoms: N1_3  and  O1_4 
REMARK    4  A    between atoms: O1_4  and  N2_5 
REMARK    5  A    between atoms: C3_8  and  N3_9 
REMARK    6  A    between atoms: C3_8  and  C8_22 
ROOT
HETATM    1  N3  UNL     1      66.891  27.876  52.569  1.00  0.00    -0.357 N 
ATOM      2  H3  UNL     1      67.260  28.492  53.293  1.00  0.00     0.162 HD
HETATM    3  C4  UNL     1      66.965  28.372  51.420  1.00  0.00     0.174 A 
HETATM    4  N4  UNL     1      67.539  29.695  51.274  1.00  0.00    -0.300 N 
ATOM      5  H4  UNL     1      67.867  30.187  52.105  1.00  0.00     0.171 HD
HETATM    6  C5  UNL     1      67.658  30.326  50.008  1.00  0.00     0.315 A 
HETATM    7  O2  UNL     1      68.162  31.476  49.925  1.00  0.00    -0.262 OA
HETATM    8  C6  UNL     1      67.216  29.689  48.801  1.00  0.00     0.316 A 
HETATM    9  O3  UNL     1      67.326  30.258  47.687  1.00  0.00    -0.262 OA
HETATM   10  N5  UNL     1      66.647  28.391  48.906  1.00  0.00    -0.283 N 
ATOM     11  H5  UNL     1      66.324  27.913  48.065  1.00  0.00     0.172 HD
HETATM   12  C7  UNL     1      66.522  27.740  50.191  1.00  0.00     0.292 A 
HETATM   13  O4  UNL     1      66.012  26.585  50.246  1.00  0.00    -0.264 OA
ENDROOT
BRANCH   1  14
HETATM   14  C3  UNL     1      66.412  26.659  53.079  1.00  0.00     0.194 C 
BRANCH  14  15
HETATM   15  C2  UNL     1      67.621  25.789  53.411  1.00  0.00     0.136 C 
HETATM   16  C1  UNL     1      67.861  24.719  52.398  1.00  0.00     0.033 C 
BRANCH  15  17
HETATM   17  N1  UNL     1      67.440  25.142  54.704  1.00  0.00    -0.067 NA
BRANCH  17  18
HETATM   18  O1  UNL     1      67.388  23.812  54.598  1.00  0.00    -0.172 OA
BRANCH  18  19
HETATM   19  N2  UNL     1      66.168  23.371  54.977  1.00  0.00    -0.290 N 
ATOM     20  H22 UNL     1      65.665  23.706  55.799  1.00  0.00     0.186 HD
ATOM     21  H21 UNL     1      65.838  22.664  54.320  1.00  0.00     0.186 HD
ENDBRANCH  18  19
ENDBRANCH  17  18
ENDBRANCH  15  17
ENDBRANCH  14  15
BRANCH  14  22
HETATM   22  C8  UNL     1      65.507  26.779  54.234  1.00  0.00     0.255 C 
HETATM   23  N6  UNL     1      64.536  25.805  54.578  1.00  0.00    -0.060 NA
HETATM   24  O5  UNL     1      65.591  27.796  54.962  1.00  0.00    -0.275 OA
ENDBRANCH  14  22
ENDBRANCH   1  14
TORSDOF 6
ENDMDL
