MODEL 1
REMARK VINA RESULT: -7.466109121      0.000      0.000
REMARK  4 active torsions:
REMARK  status: ('A' for Active; 'I' for Inactive)
REMARK    1  A    between atoms: C2_2  and  C3_3 
REMARK    2  A    between atoms: C3_3  and  C4_4 
REMARK    3  A    between atoms: C4_4  and  C5_5 
REMARK    4  A    between atoms: C13_20  and  C14_21 
ROOT
HETATM    1  C14 UNL     1      -0.183   7.278  21.558  1.00  0.00     0.047 C 
HETATM    2  C15 UNL     1      -1.349   6.301  21.377  1.00  0.00     0.062 C 
HETATM    3  C16 UNL     1      -0.213   8.029  22.728  1.00  0.00     0.097 C 
HETATM    4  N4  UNL     1      -0.228   8.627  23.708  1.00  0.00    -0.192 NA
ENDROOT
BRANCH   1   5
HETATM    5  C13 UNL     1       0.581   7.495  20.362  1.00  0.00     0.075 A 
HETATM    6  N3  UNL     1       0.327   8.717  19.678  1.00  0.00    -0.349 N 
HETATM    7  C12 UNL     1       0.964   8.743  18.532  1.00  0.00     0.189 A 
ATOM      8  H3  UNL     1      -0.267   9.468  20.030  1.00  0.00     0.166 HD
HETATM    9  N2  UNL     1       1.632   7.603  18.408  1.00  0.00    -0.305 N 
HETATM   10  C11 UNL     1       2.356   7.358  17.178  1.00  0.00     0.070 A 
HETATM   11  C17 UNL     1       1.425   6.843  19.503  1.00  0.00     0.073 A 
HETATM   12  C8  UNL     1       3.503   6.593  17.154  1.00  0.00     0.101 A 
HETATM   13  C10 UNL     1       1.994   7.915  15.974  1.00  0.00    -0.008 A 
HETATM   14  C7  UNL     1       4.114   5.805  18.249  1.00  0.00     0.261 C 
HETATM   15  S1  UNL     1       4.062   6.651  15.550  1.00  0.00    -0.078 SA
HETATM   16  N1  UNL     1       3.347   5.280  19.278  1.00  0.00    -0.342 N 
HETATM   17  O1  UNL     1       5.345   5.687  18.120  1.00  0.00    -0.267 OA
HETATM   18  C5  UNL     1       2.072   5.580  19.897  1.00  0.00     0.075 C 
ATOM     19  H1  UNL     1       3.798   4.474  19.711  1.00  0.00     0.164 HD
HETATM   20  C6  UNL     1       2.584   5.615  21.337  1.00  0.00     0.045 C 
HETATM   21  C9  UNL     1       2.819   7.654  14.904  1.00  0.00     0.060 A 
HETATM   22  C23 UNL     1       2.554   8.220  13.565  1.00  0.00     0.167 C 
HETATM   23  C22 UNL     1       1.252   8.820  13.183  1.00  0.00     0.093 C 
HETATM   24  O2  UNL     1       3.479   8.183  12.729  1.00  0.00    -0.292 OA
HETATM   25  C19 UNL     1       0.250   8.260  14.191  1.00  0.00    -0.037 C 
HETATM   26  C18 UNL     1       0.775   8.716  15.568  1.00  0.00     0.051 C 
HETATM   27  C20 UNL     1      -1.068   8.948  13.984  1.00  0.00     0.015 C 
HETATM   28  C21 UNL     1       0.139   6.772  14.093  1.00  0.00     0.015 C 
BRANCH  18  29
HETATM   29  C4  UNL     1       1.258   4.365  19.549  1.00  0.00     0.037 C 
BRANCH  29  30
HETATM   30  C3  UNL     1       0.961   3.428  20.687  1.00  0.00     0.002 C 
BRANCH  30  31
HETATM   31  C2  UNL     1       1.444   2.008  20.338  1.00  0.00    -0.004 C 
HETATM   32  C1  UNL     1       1.692   1.919  18.866  1.00  0.00     0.005 C 
ENDBRANCH  30  31
ENDBRANCH  29  30
ENDBRANCH  18  29
ENDBRANCH   1   5
TORSDOF 4
ENDMDL
MODEL 2
REMARK VINA RESULT: -6.696806290      3.100      5.318
REMARK  4 active torsions:
REMARK  status: ('A' for Active; 'I' for Inactive)
REMARK    1  A    between atoms: C2_2  and  C3_3 
REMARK    2  A    between atoms: C3_3  and  C4_4 
REMARK    3  A    between atoms: C4_4  and  C5_5 
REMARK    4  A    between atoms: C13_20  and  C14_21 
ROOT
HETATM    1  C14 UNL     1       6.336   4.023  19.725  1.00  0.00     0.047 C 
HETATM    2  C15 UNL     1       7.583   4.383  18.911  1.00  0.00     0.062 C 
HETATM    3  C16 UNL     1       6.467   2.913  20.553  1.00  0.00     0.097 C 
HETATM    4  N4  UNL     1       6.589   2.013  21.255  1.00  0.00    -0.192 NA
ENDROOT
BRANCH   1   5
HETATM    5  C13 UNL     1       5.143   4.685  19.279  1.00  0.00     0.075 A 
HETATM    6  N3  UNL     1       4.646   4.275  18.010  1.00  0.00    -0.349 N 
HETATM    7  C12 UNL     1       3.649   5.043  17.638  1.00  0.00     0.189 A 
ATOM      8  H3  UNL     1       5.013   3.495  17.466  1.00  0.00     0.166 HD
HETATM    9  N2  UNL     1       3.449   5.946  18.589  1.00  0.00    -0.305 N 
HETATM   10  C11 UNL     1       2.446   6.966  18.372  1.00  0.00     0.070 A 
HETATM   11  C17 UNL     1       4.330   5.742  19.591  1.00  0.00     0.073 A 
HETATM   12  C8  UNL     1       1.744   7.525  19.420  1.00  0.00     0.101 A 
HETATM   13  C10 UNL     1       2.077   7.399  17.120  1.00  0.00    -0.008 A 
HETATM   14  C7  UNL     1       1.943   7.333  20.874  1.00  0.00     0.261 C 
HETATM   15  S1  UNL     1       0.622   8.586  18.709  1.00  0.00    -0.078 SA
HETATM   16  N1  UNL     1       3.185   7.009  21.399  1.00  0.00    -0.342 N 
HETATM   17  O1  UNL     1       0.894   7.496  21.523  1.00  0.00    -0.267 OA
HETATM   18  C5  UNL     1       4.396   6.377  20.918  1.00  0.00     0.075 C 
ATOM     19  H1  UNL     1       3.266   7.289  22.377  1.00  0.00     0.164 HD
HETATM   20  C6  UNL     1       4.515   5.353  22.047  1.00  0.00     0.045 C 
HETATM   21  C9  UNL     1       1.056   8.318  17.063  1.00  0.00     0.060 A 
HETATM   22  C23 UNL     1       0.549   8.836  15.775  1.00  0.00     0.167 C 
HETATM   23  C22 UNL     1       1.282   8.677  14.495  1.00  0.00     0.093 C 
HETATM   24  O2  UNL     1      -0.547   9.431  15.783  1.00  0.00    -0.292 OA
HETATM   25  C19 UNL     1       2.727   8.396  14.902  1.00  0.00    -0.037 C 
HETATM   26  C18 UNL     1       2.658   7.110  15.751  1.00  0.00     0.051 C 
HETATM   27  C20 UNL     1       3.510   8.053  13.667  1.00  0.00     0.015 C 
HETATM   28  C21 UNL     1       3.323   9.541  15.657  1.00  0.00     0.015 C 
BRANCH  18  29
HETATM   29  C4  UNL     1       5.390   7.503  20.985  1.00  0.00     0.037 C 
BRANCH  29  30
HETATM   30  C3  UNL     1       6.429   7.396  22.065  1.00  0.00     0.002 C 
BRANCH  30  31
HETATM   31  C2  UNL     1       7.797   7.053  21.447  1.00  0.00    -0.004 C 
HETATM   32  C1  UNL     1       8.403   5.907  22.193  1.00  0.00     0.005 C 
ENDBRANCH  30  31
ENDBRANCH  29  30
ENDBRANCH  18  29
ENDBRANCH   1   5
TORSDOF 4
ENDMDL
MODEL 3
REMARK VINA RESULT: -6.663310870      3.872      5.755
REMARK  4 active torsions:
REMARK  status: ('A' for Active; 'I' for Inactive)
REMARK    1  A    between atoms: C2_2  and  C3_3 
REMARK    2  A    between atoms: C3_3  and  C4_4 
REMARK    3  A    between atoms: C4_4  and  C5_5 
REMARK    4  A    between atoms: C13_20  and  C14_21 
ROOT
HETATM    1  C14 UNL     1       1.073   8.438  20.245  1.00  0.00     0.047 C 
HETATM    2  C15 UNL     1       0.581   8.366  18.796  1.00  0.00     0.062 C 
HETATM    3  C16 UNL     1       0.581   9.506  20.988  1.00  0.00     0.097 C 
HETATM    4  N4  UNL     1       0.151  10.373  21.604  1.00  0.00    -0.192 NA
ENDROOT
BRANCH   1   5
HETATM    5  C13 UNL     1       2.196   7.585  20.518  1.00  0.00     0.075 A 
HETATM    6  N3  UNL     1       3.433   7.988  19.940  1.00  0.00    -0.349 N 
HETATM    7  C12 UNL     1       4.348   7.067  20.127  1.00  0.00     0.189 A 
ATOM      8  H3  UNL     1       3.586   8.869  19.450  1.00  0.00     0.166 HD
HETATM    9  N2  UNL     1       3.793   6.067  20.800  1.00  0.00    -0.305 N 
HETATM   10  C11 UNL     1       4.587   4.885  21.060  1.00  0.00     0.070 A 
HETATM   11  C17 UNL     1       2.501   6.363  21.055  1.00  0.00     0.073 A 
HETATM   12  C8  UNL     1       4.386   4.111  22.184  1.00  0.00     0.101 A 
HETATM   13  C10 UNL     1       5.629   4.491  20.253  1.00  0.00    -0.008 A 
HETATM   14  C7  UNL     1       3.318   4.220  23.203  1.00  0.00     0.261 C 
HETATM   15  S1  UNL     1       5.584   2.906  22.134  1.00  0.00    -0.078 SA
HETATM   16  N1  UNL     1       2.073   4.745  22.895  1.00  0.00    -0.342 N 
HETATM   17  O1  UNL     1       3.678   3.794  24.315  1.00  0.00    -0.267 OA
HETATM   18  C5  UNL     1       1.530   5.649  21.900  1.00  0.00     0.075 C 
ATOM     19  H1  UNL     1       1.352   4.409  23.534  1.00  0.00     0.164 HD
HETATM   20  C6  UNL     1       0.820   6.579  22.883  1.00  0.00     0.045 C 
HETATM   21  C9  UNL     1       6.343   3.391  20.665  1.00  0.00     0.060 A 
HETATM   22  C23 UNL     1       7.503   2.888  19.899  1.00  0.00     0.167 C 
HETATM   23  C22 UNL     1       7.789   3.298  18.502  1.00  0.00     0.093 C 
HETATM   24  O2  UNL     1       8.267   2.084  20.470  1.00  0.00    -0.292 OA
HETATM   25  C19 UNL     1       6.461   3.833  17.970  1.00  0.00    -0.037 C 
HETATM   26  C18 UNL     1       6.100   5.003  18.907  1.00  0.00     0.051 C 
HETATM   27  C20 UNL     1       6.699   4.428  16.612  1.00  0.00     0.015 C 
HETATM   28  C21 UNL     1       5.404   2.775  17.953  1.00  0.00     0.015 C 
BRANCH  18  29
HETATM   29  C4  UNL     1       0.617   4.746  21.118  1.00  0.00     0.037 C 
BRANCH  29  30
HETATM   30  C3  UNL     1       1.207   4.132  19.879  1.00  0.00     0.002 C 
BRANCH  30  31
HETATM   31  C2  UNL     1       1.219   2.598  20.007  1.00  0.00    -0.004 C 
HETATM   32  C1  UNL     1       1.792   2.003  18.759  1.00  0.00     0.005 C 
ENDBRANCH  30  31
ENDBRANCH  29  30
ENDBRANCH  18  29
ENDBRANCH   1   5
TORSDOF 4
ENDMDL
MODEL 4
REMARK VINA RESULT: -6.565229874      3.219      6.717
REMARK  4 active torsions:
REMARK  status: ('A' for Active; 'I' for Inactive)
REMARK    1  A    between atoms: C2_2  and  C3_3 
REMARK    2  A    between atoms: C3_3  and  C4_4 
REMARK    3  A    between atoms: C4_4  and  C5_5 
REMARK    4  A    between atoms: C13_20  and  C14_21 
ROOT
HETATM    1  C14 UNL     1       3.040   8.245  16.063  1.00  0.00     0.047 C 
HETATM    2  C15 UNL     1       3.108   9.749  15.781  1.00  0.00     0.062 C 
HETATM    3  C16 UNL     1       3.519   7.427  15.045  1.00  0.00     0.097 C 
HETATM    4  N4  UNL     1       3.941   6.758  14.214  1.00  0.00    -0.192 NA
ENDROOT
BRANCH   1   5
HETATM    5  C13 UNL     1       2.213   7.903  17.186  1.00  0.00     0.075 A 
HETATM    6  N3  UNL     1       0.905   8.465  17.185  1.00  0.00    -0.349 N 
HETATM    7  C12 UNL     1       0.296   8.212  18.318  1.00  0.00     0.189 A 
ATOM      8  H3  UNL     1       0.499   8.991  16.411  1.00  0.00     0.166 HD
HETATM    9  N2  UNL     1       1.124   7.510  19.082  1.00  0.00    -0.305 N 
HETATM   10  C11 UNL     1       0.706   7.175  20.427  1.00  0.00     0.070 A 
HETATM   11  C17 UNL     1       2.279   7.304  18.416  1.00  0.00     0.073 A 
HETATM   12  C8  UNL     1       1.135   6.023  21.052  1.00  0.00     0.101 A 
HETATM   13  C10 UNL     1      -0.188   7.935  21.144  1.00  0.00    -0.008 A 
HETATM   14  C7  UNL     1       2.140   5.039  20.590  1.00  0.00     0.261 C 
HETATM   15  S1  UNL     1       0.334   5.986  22.550  1.00  0.00    -0.078 SA
HETATM   16  N1  UNL     1       3.178   5.404  19.746  1.00  0.00    -0.342 N 
HETATM   17  O1  UNL     1       1.932   3.900  21.044  1.00  0.00    -0.267 OA
HETATM   18  C5  UNL     1       3.425   6.453  18.778  1.00  0.00     0.075 C 
ATOM     19  H1  UNL     1       3.973   4.771  19.829  1.00  0.00     0.164 HD
HETATM   20  C6  UNL     1       3.851   5.533  17.634  1.00  0.00     0.045 C 
HETATM   21  C9  UNL     1      -0.551   7.455  22.380  1.00  0.00     0.060 A 
HETATM   22  C23 UNL     1      -1.527   8.165  23.232  1.00  0.00     0.167 C 
HETATM   23  C22 UNL     1      -1.936   9.571  22.994  1.00  0.00     0.093 C 
HETATM   24  O2  UNL     1      -2.020   7.538  24.191  1.00  0.00    -0.292 OA
HETATM   25  C19 UNL     1      -0.826  10.163  22.129  1.00  0.00    -0.037 C 
HETATM   26  C18 UNL     1      -0.804   9.290  20.858  1.00  0.00     0.051 C 
HETATM   27  C20 UNL     1      -1.241  11.539  21.698  1.00  0.00     0.015 C 
HETATM   28  C21 UNL     1       0.491  10.160  22.839  1.00  0.00     0.015 C 
BRANCH  18  29
HETATM   29  C4  UNL     1       4.549   7.218  19.420  1.00  0.00     0.037 C 
BRANCH  29  30
HETATM   30  C3  UNL     1       4.682   7.061  20.908  1.00  0.00     0.002 C 
BRANCH  30  31
HETATM   31  C2  UNL     1       6.038   7.618  21.378  1.00  0.00    -0.004 C 
HETATM   32  C1  UNL     1       6.563   6.767  22.490  1.00  0.00     0.005 C 
ENDBRANCH  30  31
ENDBRANCH  29  30
ENDBRANCH  18  29
ENDBRANCH   1   5
TORSDOF 4
ENDMDL
MODEL 5
REMARK VINA RESULT: -6.564312636      3.591      5.838
REMARK  4 active torsions:
REMARK  status: ('A' for Active; 'I' for Inactive)
REMARK    1  A    between atoms: C2_2  and  C3_3 
REMARK    2  A    between atoms: C3_3  and  C4_4 
REMARK    3  A    between atoms: C4_4  and  C5_5 
REMARK    4  A    between atoms: C13_20  and  C14_21 
ROOT
HETATM    1  C14 UNL     1       5.968   2.585  23.882  1.00  0.00     0.047 C 
HETATM    2  C15 UNL     1       4.980   1.451  24.173  1.00  0.00     0.062 C 
HETATM    3  C16 UNL     1       7.020   2.703  24.783  1.00  0.00     0.097 C 
HETATM    4  N4  UNL     1       7.902   2.778  25.514  1.00  0.00    -0.192 NA
ENDROOT
BRANCH   1   5
HETATM    5  C13 UNL     1       5.489   3.537  22.920  1.00  0.00     0.075 A 
HETATM    6  N3  UNL     1       5.274   4.857  23.409  1.00  0.00    -0.349 N 
HETATM    7  C12 UNL     1       4.700   5.598  22.492  1.00  0.00     0.189 A 
ATOM      8  H3  UNL     1       5.530   5.180  24.342  1.00  0.00     0.166 HD
HETATM    9  N2  UNL     1       4.518   4.849  21.412  1.00  0.00    -0.305 N 
HETATM   10  C11 UNL     1       3.823   5.425  20.281  1.00  0.00     0.070 A 
HETATM   11  C17 UNL     1       4.995   3.608  21.644  1.00  0.00     0.073 A 
HETATM   12  C8  UNL     1       4.095   5.032  18.987  1.00  0.00     0.101 A 
HETATM   13  C10 UNL     1       2.901   6.438  20.407  1.00  0.00    -0.008 A 
HETATM   14  C7  UNL     1       4.970   3.934  18.519  1.00  0.00     0.261 C 
HETATM   15  S1  UNL     1       3.135   6.022  17.993  1.00  0.00    -0.078 SA
HETATM   16  N1  UNL     1       5.203   2.811  19.297  1.00  0.00    -0.342 N 
HETATM   17  O1  UNL     1       5.439   4.150  17.387  1.00  0.00    -0.267 OA
HETATM   18  C5  UNL     1       5.164   2.484  20.709  1.00  0.00     0.075 C 
ATOM     19  H1  UNL     1       5.472   2.007  18.730  1.00  0.00     0.164 HD
HETATM   20  C6  UNL     1       6.563   1.872  20.782  1.00  0.00     0.045 C 
HETATM   21  C9  UNL     1       2.376   6.940  19.238  1.00  0.00     0.060 A 
HETATM   22  C23 UNL     1       1.400   8.049  19.240  1.00  0.00     0.167 C 
HETATM   23  C22 UNL     1       0.672   8.484  20.458  1.00  0.00     0.093 C 
HETATM   24  O2  UNL     1       1.191   8.637  18.160  1.00  0.00    -0.292 OA
HETATM   25  C19 UNL     1       0.759   7.296  21.413  1.00  0.00    -0.037 C 
HETATM   26  C18 UNL     1       2.269   7.069  21.630  1.00  0.00     0.051 C 
HETATM   27  C20 UNL     1       0.192   7.710  22.740  1.00  0.00     0.015 C 
HETATM   28  C21 UNL     1       0.080   6.086  20.855  1.00  0.00     0.015 C 
BRANCH  18  29
HETATM   29  C4  UNL     1       4.039   1.489  20.772  1.00  0.00     0.037 C 
BRANCH  29  30
HETATM   30  C3  UNL     1       2.677   2.057  21.059  1.00  0.00     0.002 C 
BRANCH  30  31
HETATM   31  C2  UNL     1       1.724   1.757  19.888  1.00  0.00    -0.004 C 
HETATM   32  C1  UNL     1       1.007   3.012  19.502  1.00  0.00     0.005 C 
ENDBRANCH  30  31
ENDBRANCH  29  30
ENDBRANCH  18  29
ENDBRANCH   1   5
TORSDOF 4
ENDMDL
