MODEL 1
REMARK VINA RESULT: -7.249730855      0.000      0.000
REMARK  6 active torsions:
REMARK  status: ('A' for Active; 'I' for Inactive)
REMARK    1  A    between atoms: C4_4  and  C5_5 
REMARK    2  A    between atoms: C12_15  and  C13_16 
REMARK    3  A    between atoms: C13_16  and  C14_17 
REMARK    4  A    between atoms: C14_17  and  O4_18 
REMARK    5  A    between atoms: C14_17  and  C15_20 
REMARK    6  A    between atoms: N1_24  and  C18_26 
ROOT
HETATM    1  C13 UNL     1       0.945   3.467  21.606  1.00  0.00     0.069 C 
ENDROOT
BRANCH   1   2
HETATM    2  C12 UNL     1       0.484   4.873  21.801  1.00  0.00     0.156 C 
HETATM    3  C7  UNL     1       0.450   5.539  20.435  1.00  0.00     0.155 C 
HETATM    4  C6  UNL     1      -0.180   6.894  20.620  1.00  0.00     0.048 C 
HETATM    5  O1  UNL     1       1.600   5.503  19.751  1.00  0.00    -0.348 OA
HETATM    6  C5  UNL     1       0.642   7.687  21.589  1.00  0.00     0.066 C 
HETATM    7  C11 UNL     1       1.719   6.796  22.175  1.00  0.00     0.271 C 
HETATM    8  O2  UNL     1       2.805   6.632  21.388  1.00  0.00    -0.326 OA
HETATM    9  O3  UNL     1       1.198   5.611  22.694  1.00  0.00    -0.353 OA
HETATM   10  C8  UNL     1       2.652   6.250  20.106  1.00  0.00     0.160 C 
HETATM   11  C9  UNL     1       2.760   7.423  19.118  1.00  0.00     0.078 C 
HETATM   12  C10 UNL     1       3.913   5.407  19.801  1.00  0.00     0.078 C 
BRANCH   6  13
HETATM   13  C4  UNL     1      -0.153   8.365  22.620  1.00  0.00    -0.015 C 
HETATM   14  C2  UNL     1      -0.492   9.645  22.561  1.00  0.00    -0.091 C 
HETATM   15  C1  UNL     1      -1.287  10.334  23.587  1.00  0.00     0.042 C 
HETATM   16  C3  UNL     1      -0.039  10.440  21.378  1.00  0.00     0.042 C 
ENDBRANCH   6  13
ENDBRANCH   1   2
BRANCH   1  17
HETATM   17  C14 UNL     1       1.945   3.002  22.627  1.00  0.00     0.155 C 
BRANCH  17  18
HETATM   18  O4  UNL     1       3.155   3.625  22.390  1.00  0.00    -0.392 OA
ATOM     19  H4  UNL     1       3.726   3.028  21.922  1.00  0.00     0.210 HD
ENDBRANCH  17  18
BRANCH  17  20
HETATM   20  C15 UNL     1       2.011   1.511  22.548  1.00  0.00     0.095 C 
HETATM   21  C16 UNL     1       2.435   1.005  21.206  1.00  0.00     0.050 C 
HETATM   22  O5  UNL     1       0.683   1.023  22.777  1.00  0.00    -0.326 OA
HETATM   23  C17 UNL     1       0.555   0.635  24.098  1.00  0.00     0.115 C 
HETATM   24  N1  UNL     1      -0.520   0.171  24.613  1.00  0.00    -0.366 N 
HETATM   25  C22 UNL     1       1.847   0.846  24.788  1.00  0.00     0.091 C 
ATOM     26  H1  UNL     1      -1.337   0.082  24.008  1.00  0.00     0.162 HD
HETATM   27  C23 UNL     1       2.794   0.847  23.608  1.00  0.00     0.026 C 
HETATM   28  C24 UNL     1       4.120   1.459  23.916  1.00  0.00     0.014 C 
BRANCH  24  29
HETATM   29  C18 UNL     1      -0.658  -0.233  25.986  1.00  0.00     0.021 C 
HETATM   30  C19 UNL     1       0.127  -1.484  26.314  1.00  0.00     0.037 C 
HETATM   31  C20 UNL     1      -2.138  -0.586  26.187  1.00  0.00     0.037 C 
HETATM   32  C21 UNL     1      -0.341   0.867  26.965  1.00  0.00     0.037 C 
ENDBRANCH  24  29
ENDBRANCH  17  20
ENDBRANCH   1  17
TORSDOF 6
ENDMDL
MODEL 2
REMARK VINA RESULT: -7.162092617      2.577      4.292
REMARK  6 active torsions:
REMARK  status: ('A' for Active; 'I' for Inactive)
REMARK    1  A    between atoms: C4_4  and  C5_5 
REMARK    2  A    between atoms: C12_15  and  C13_16 
REMARK    3  A    between atoms: C13_16  and  C14_17 
REMARK    4  A    between atoms: C14_17  and  O4_18 
REMARK    5  A    between atoms: C14_17  and  C15_20 
REMARK    6  A    between atoms: N1_24  and  C18_26 
ROOT
HETATM    1  C13 UNL     1       3.526   6.617  20.433  1.00  0.00     0.069 C 
ENDROOT
BRANCH   1   2
HETATM    2  C12 UNL     1       2.423   7.333  21.136  1.00  0.00     0.156 C 
HETATM    3  C7  UNL     1       1.962   6.454  22.288  1.00  0.00     0.155 C 
HETATM    4  C6  UNL     1       0.975   7.258  23.091  1.00  0.00     0.048 C 
HETATM    5  O1  UNL     1       1.587   5.215  21.947  1.00  0.00    -0.348 OA
HETATM    6  C5  UNL     1      -0.174   7.643  22.210  1.00  0.00     0.066 C 
HETATM    7  C11 UNL     1       0.136   7.238  20.782  1.00  0.00     0.271 C 
HETATM    8  O2  UNL     1      -0.086   5.936  20.504  1.00  0.00    -0.326 OA
HETATM    9  O3  UNL     1       1.375   7.717  20.357  1.00  0.00    -0.353 OA
HETATM   10  C8  UNL     1       0.444   4.982  21.292  1.00  0.00     0.160 C 
HETATM   11  C9  UNL     1      -0.570   4.402  22.292  1.00  0.00     0.078 C 
HETATM   12  C10 UNL     1       0.719   3.798  20.334  1.00  0.00     0.078 C 
BRANCH   6  13
HETATM   13  C4  UNL     1      -0.560   9.054  22.326  1.00  0.00    -0.015 C 
HETATM   14  C2  UNL     1      -1.503   9.490  23.150  1.00  0.00    -0.091 C 
HETATM   15  C1  UNL     1      -1.898  10.901  23.274  1.00  0.00     0.042 C 
HETATM   16  C3  UNL     1      -2.210   8.488  24.006  1.00  0.00     0.042 C 
ENDBRANCH   6  13
ENDBRANCH   1   2
BRANCH   1  17
HETATM   17  C14 UNL     1       4.827   6.605  21.185  1.00  0.00     0.155 C 
BRANCH  17  18
HETATM   18  O4  UNL     1       5.532   7.754  20.885  1.00  0.00    -0.392 OA
ATOM     19  H4  UNL     1       5.806   8.171  21.694  1.00  0.00     0.210 HD
ENDBRANCH  17  18
BRANCH  17  20
HETATM   20  C15 UNL     1       5.547   5.346  20.823  1.00  0.00     0.095 C 
HETATM   21  C16 UNL     1       6.439   5.494  19.631  1.00  0.00     0.050 C 
HETATM   22  O5  UNL     1       4.547   4.379  20.478  1.00  0.00    -0.326 OA
HETATM   23  C17 UNL     1       4.305   3.558  21.563  1.00  0.00     0.115 C 
HETATM   24  N1  UNL     1       3.450   2.606  21.571  1.00  0.00    -0.366 N 
HETATM   25  C22 UNL     1       5.186   3.966  22.680  1.00  0.00     0.091 C 
ATOM     26  H1  UNL     1       2.913   2.443  20.720  1.00  0.00     0.162 HD
HETATM   27  C23 UNL     1       6.278   4.687  21.922  1.00  0.00     0.026 C 
HETATM   28  C24 UNL     1       7.102   5.585  22.785  1.00  0.00     0.014 C 
BRANCH  24  29
HETATM   29  C18 UNL     1       3.195   1.750  22.698  1.00  0.00     0.021 C 
HETATM   30  C19 UNL     1       4.343   0.811  22.998  1.00  0.00     0.037 C 
HETATM   31  C20 UNL     1       2.003   0.866  22.309  1.00  0.00     0.037 C 
HETATM   32  C21 UNL     1       2.785   2.503  23.937  1.00  0.00     0.037 C 
ENDBRANCH  24  29
ENDBRANCH  17  20
ENDBRANCH   1  17
TORSDOF 6
ENDMDL
MODEL 3
REMARK VINA RESULT: -6.880963046      1.890      2.625
REMARK  6 active torsions:
REMARK  status: ('A' for Active; 'I' for Inactive)
REMARK    1  A    between atoms: C4_4  and  C5_5 
REMARK    2  A    between atoms: C12_15  and  C13_16 
REMARK    3  A    between atoms: C13_16  and  C14_17 
REMARK    4  A    between atoms: C14_17  and  O4_18 
REMARK    5  A    between atoms: C14_17  and  C15_20 
REMARK    6  A    between atoms: N1_24  and  C18_26 
ROOT
HETATM    1  C13 UNL     1       2.597   4.762  21.473  1.00  0.00     0.069 C 
ENDROOT
BRANCH   1   2
HETATM    2  C12 UNL     1       1.532   5.787  21.675  1.00  0.00     0.156 C 
HETATM    3  C7  UNL     1       0.801   5.958  20.353  1.00  0.00     0.155 C 
HETATM    4  C6  UNL     1      -0.377   6.859  20.613  1.00  0.00     0.048 C 
HETATM    5  O1  UNL     1       1.575   6.273  19.307  1.00  0.00    -0.348 OA
HETATM    6  C5  UNL     1       0.119   8.175  21.133  1.00  0.00     0.066 C 
HETATM    7  C11 UNL     1       1.613   8.082  21.377  1.00  0.00     0.271 C 
HETATM    8  O2  UNL     1       2.375   8.230  20.273  1.00  0.00    -0.326 OA
HETATM    9  O3  UNL     1       1.949   6.985  22.168  1.00  0.00    -0.353 OA
HETATM   10  C8  UNL     1       2.123   7.486  19.179  1.00  0.00     0.160 C 
HETATM   11  C9  UNL     1       1.337   8.254  18.104  1.00  0.00     0.078 C 
HETATM   12  C10 UNL     1       3.511   7.275  18.527  1.00  0.00     0.078 C 
BRANCH   6  13
HETATM   13  C4  UNL     1      -0.616   8.662  22.306  1.00  0.00    -0.015 C 
HETATM   14  C2  UNL     1      -0.995   9.922  22.461  1.00  0.00    -0.091 C 
HETATM   15  C1  UNL     1      -1.732  10.421  23.632  1.00  0.00     0.042 C 
HETATM   16  C3  UNL     1      -0.654  10.900  21.383  1.00  0.00     0.042 C 
ENDBRANCH   6  13
ENDBRANCH   1   2
BRANCH   1  17
HETATM   17  C14 UNL     1       3.891   5.076  22.167  1.00  0.00     0.155 C 
BRANCH  17  18
HETATM   18  O4  UNL     1       4.491   6.150  21.540  1.00  0.00    -0.392 OA
ATOM     19  H4  UNL     1       5.368   6.264  21.887  1.00  0.00     0.210 HD
ENDBRANCH  17  18
BRANCH  17  20
HETATM   20  C15 UNL     1       4.722   3.834  22.159  1.00  0.00     0.095 C 
HETATM   21  C16 UNL     1       5.871   3.894  21.203  1.00  0.00     0.050 C 
HETATM   22  O5  UNL     1       3.871   2.767  21.720  1.00  0.00    -0.326 OA
HETATM   23  C17 UNL     1       3.402   2.069  22.818  1.00  0.00     0.115 C 
HETATM   24  N1  UNL     1       2.606   1.071  22.752  1.00  0.00    -0.366 N 
HETATM   25  C22 UNL     1       3.970   2.669  24.046  1.00  0.00     0.091 C 
ATOM     26  H1  UNL     1       2.297   0.770  21.828  1.00  0.00     0.162 HD
HETATM   27  C23 UNL     1       5.188   3.364  23.478  1.00  0.00     0.026 C 
HETATM   28  C24 UNL     1       5.744   4.414  24.382  1.00  0.00     0.014 C 
BRANCH  24  29
HETATM   29  C18 UNL     1       2.115   0.343  23.891  1.00  0.00     0.021 C 
HETATM   30  C19 UNL     1       3.223  -0.199  24.767  1.00  0.00     0.037 C 
HETATM   31  C20 UNL     1       1.366  -0.876  23.337  1.00  0.00     0.037 C 
HETATM   32  C21 UNL     1       1.120   1.122  24.712  1.00  0.00     0.037 C 
ENDBRANCH  24  29
ENDBRANCH  17  20
ENDBRANCH   1  17
TORSDOF 6
ENDMDL
MODEL 4
REMARK VINA RESULT: -6.863846281      2.114      7.908
REMARK  6 active torsions:
REMARK  status: ('A' for Active; 'I' for Inactive)
REMARK    1  A    between atoms: C4_4  and  C5_5 
REMARK    2  A    between atoms: C12_15  and  C13_16 
REMARK    3  A    between atoms: C13_16  and  C14_17 
REMARK    4  A    between atoms: C14_17  and  O4_18 
REMARK    5  A    between atoms: C14_17  and  C15_20 
REMARK    6  A    between atoms: N1_24  and  C18_26 
ROOT
HETATM    1  C13 UNL     1       1.864   1.796  23.647  1.00  0.00     0.069 C 
ENDROOT
BRANCH   1   2
HETATM    2  C12 UNL     1       0.837   1.242  24.576  1.00  0.00     0.156 C 
HETATM    3  C7  UNL     1       1.523   0.212  25.459  1.00  0.00     0.155 C 
HETATM    4  C6  UNL     1       0.524  -0.210  26.504  1.00  0.00     0.048 C 
HETATM    5  O1  UNL     1       2.157  -0.771  24.807  1.00  0.00    -0.348 OA
HETATM    6  C5  UNL     1      -0.678  -0.792  25.825  1.00  0.00     0.066 C 
HETATM    7  C11 UNL     1      -0.545  -0.599  24.326  1.00  0.00     0.271 C 
HETATM    8  O2  UNL     1       0.244  -1.504  23.709  1.00  0.00    -0.326 OA
HETATM    9  O3  UNL     1      -0.277   0.727  23.989  1.00  0.00    -0.353 OA
HETATM   10  C8  UNL     1       1.486  -1.738  24.172  1.00  0.00     0.160 C 
HETATM   11  C9  UNL     1       1.574  -3.017  25.021  1.00  0.00     0.078 C 
HETATM   12  C10 UNL     1       2.309  -2.089  22.910  1.00  0.00     0.078 C 
BRANCH   6  13
HETATM   13  C4  UNL     1      -1.953  -0.290  26.349  1.00  0.00    -0.015 C 
HETATM   14  C2  UNL     1      -2.939  -1.077  26.755  1.00  0.00    -0.091 C 
HETATM   15  C1  UNL     1      -4.221  -0.585  27.281  1.00  0.00     0.042 C 
HETATM   16  C3  UNL     1      -2.739  -2.557  26.674  1.00  0.00     0.042 C 
ENDBRANCH   6  13
ENDBRANCH   1   2
BRANCH   1  17
HETATM   17  C14 UNL     1       1.392   1.943  22.228  1.00  0.00     0.155 C 
BRANCH  17  18
HETATM   18  O4  UNL     1       1.494   0.723  21.589  1.00  0.00    -0.392 OA
ATOM     19  H4  UNL     1       0.669   0.525  21.163  1.00  0.00     0.210 HD
ENDBRANCH  17  18
BRANCH  17  20
HETATM   20  C15 UNL     1       2.204   3.026  21.592  1.00  0.00     0.095 C 
HETATM   21  C16 UNL     1       3.641   2.655  21.399  1.00  0.00     0.050 C 
HETATM   22  O5  UNL     1       2.179   4.145  22.487  1.00  0.00    -0.326 OA
HETATM   23  C17 UNL     1       1.220   5.050  22.068  1.00  0.00     0.115 C 
HETATM   24  N1  UNL     1       0.948   6.144  22.671  1.00  0.00    -0.366 N 
HETATM   25  C22 UNL     1       0.585   4.537  20.832  1.00  0.00     0.091 C 
ATOM     26  H1  UNL     1       1.474   6.363  23.517  1.00  0.00     0.162 HD
HETATM   27  C23 UNL     1       1.656   3.588  20.343  1.00  0.00     0.026 C 
HETATM   28  C24 UNL     1       1.154   2.594  19.348  1.00  0.00     0.014 C 
BRANCH  24  29
HETATM   29  C18 UNL     1      -0.048   7.086  22.239  1.00  0.00     0.021 C 
HETATM   30  C19 UNL     1       0.229   7.649  20.862  1.00  0.00     0.037 C 
HETATM   31  C20 UNL     1       0.025   8.271  23.212  1.00  0.00     0.037 C 
HETATM   32  C21 UNL     1      -1.453   6.548  22.322  1.00  0.00     0.037 C 
ENDBRANCH  24  29
ENDBRANCH  17  20
ENDBRANCH   1  17
TORSDOF 6
ENDMDL
MODEL 5
REMARK VINA RESULT: -6.844064780      1.594      3.445
REMARK  6 active torsions:
REMARK  status: ('A' for Active; 'I' for Inactive)
REMARK    1  A    between atoms: C4_4  and  C5_5 
REMARK    2  A    between atoms: C12_15  and  C13_16 
REMARK    3  A    between atoms: C13_16  and  C14_17 
REMARK    4  A    between atoms: C14_17  and  O4_18 
REMARK    5  A    between atoms: C14_17  and  C15_20 
REMARK    6  A    between atoms: N1_24  and  C18_26 
ROOT
HETATM    1  C13 UNL     1       2.771   3.900  21.863  1.00  0.00     0.069 C 
ENDROOT
BRANCH   1   2
HETATM    2  C12 UNL     1       3.005   5.045  20.935  1.00  0.00     0.156 C 
HETATM    3  C7  UNL     1       2.936   6.324  21.755  1.00  0.00     0.155 C 
HETATM    4  C6  UNL     1       3.345   7.453  20.848  1.00  0.00     0.048 C 
HETATM    5  O1  UNL     1       1.807   6.496  22.454  1.00  0.00    -0.348 OA
HETATM    6  C5  UNL     1       2.406   7.506  19.681  1.00  0.00     0.066 C 
HETATM    7  C11 UNL     1       1.481   6.306  19.730  1.00  0.00     0.271 C 
HETATM    8  O2  UNL     1       0.437   6.432  20.577  1.00  0.00    -0.326 OA
HETATM    9  O3  UNL     1       2.182   5.107  19.853  1.00  0.00    -0.353 OA
HETATM   10  C8  UNL     1       0.650   6.800  21.854  1.00  0.00     0.160 C 
HETATM   11  C9  UNL     1       0.360   8.289  22.103  1.00  0.00     0.078 C 
HETATM   12  C10 UNL     1      -0.462   6.080  22.654  1.00  0.00     0.078 C 
BRANCH   6  13
HETATM   13  C4  UNL     1       3.082   7.646  18.385  1.00  0.00    -0.015 C 
HETATM   14  C2  UNL     1       2.518   8.198  17.321  1.00  0.00    -0.091 C 
HETATM   15  C1  UNL     1       3.186   8.343  16.019  1.00  0.00     0.042 C 
HETATM   16  C3  UNL     1       1.117   8.706  17.448  1.00  0.00     0.042 C 
ENDBRANCH   6  13
ENDBRANCH   1   2
BRANCH   1  17
HETATM   17  C14 UNL     1       3.056   2.554  21.261  1.00  0.00     0.155 C 
BRANCH  17  18
HETATM   18  O4  UNL     1       3.775   2.724  20.094  1.00  0.00    -0.392 OA
ATOM     19  H4  UNL     1       4.299   1.948  19.936  1.00  0.00     0.210 HD
ENDBRANCH  17  18
BRANCH  17  20
HETATM   20  C15 UNL     1       1.747   1.860  21.065  1.00  0.00     0.095 C 
HETATM   21  C16 UNL     1       1.084   2.197  19.767  1.00  0.00     0.050 C 
HETATM   22  O5  UNL     1       0.875   2.315  22.108  1.00  0.00    -0.326 OA
HETATM   23  C17 UNL     1       0.857   1.386  23.133  1.00  0.00     0.115 C 
HETATM   24  N1  UNL     1       0.184   1.516  24.212  1.00  0.00    -0.366 N 
HETATM   25  C22 UNL     1       1.731   0.249  22.765  1.00  0.00     0.091 C 
ATOM     26  H1  UNL     1      -0.377   2.360  24.324  1.00  0.00     0.162 HD
HETATM   27  C23 UNL     1       1.760   0.398  21.260  1.00  0.00     0.026 C 
HETATM   28  C24 UNL     1       2.893  -0.333  20.617  1.00  0.00     0.014 C 
BRANCH  24  29
HETATM   29  C18 UNL     1       0.163   0.552  25.280  1.00  0.00     0.021 C 
HETATM   30  C19 UNL     1      -0.751  -0.620  25.000  1.00  0.00     0.037 C 
HETATM   31  C20 UNL     1      -0.421   1.274  26.503  1.00  0.00     0.037 C 
HETATM   32  C21 UNL     1       1.536   0.075  25.678  1.00  0.00     0.037 C 
ENDBRANCH  24  29
ENDBRANCH  17  20
ENDBRANCH   1  17
TORSDOF 6
ENDMDL
