MODEL 1
REMARK VINA RESULT: -7.980025834      0.000      0.000
REMARK  7 active torsions:
REMARK  status: ('A' for Active; 'I' for Inactive)
REMARK    1  A    between atoms: N2_10  and  C8_12 
REMARK    2  A    between atoms: C8_12  and  C9_13 
REMARK    3  A    between atoms: N3_14  and  O1_16 
REMARK    4  A    between atoms: C10_19  and  C11_20 
REMARK    5  A    between atoms: C11_20  and  O3_22 
REMARK    6  A    between atoms: O3_22  and  C12_23 
REMARK    7  A    between atoms: C12_23  and  C13_24 
ROOT
HETATM    1  C1  UNL     1       3.127   3.728  21.929  1.00  0.00     0.010 C 
HETATM    2  C2  UNL     1       1.834   4.467  22.090  1.00  0.00    -0.013 C 
HETATM    3  C3  UNL     1       0.983   4.502  20.864  1.00  0.00     0.005 C 
HETATM    4  C4  UNL     1       1.472   5.384  19.763  1.00  0.00     0.012 C 
HETATM    5  C5  UNL     1       2.165   6.602  20.335  1.00  0.00     0.055 C 
HETATM    6  C6  UNL     1       1.637   6.825  21.670  1.00  0.00    -0.005 C 
HETATM    7  N1  UNL     1       0.865   7.761  22.050  1.00  0.00    -0.344 N 
ATOM      8  H1  UNL     1       0.590   7.767  23.033  1.00  0.00     0.167 HD
HETATM    9  C7  UNL     1       0.360   8.783  21.241  1.00  0.00     0.141 C 
HETATM   10  N2  UNL     1      -0.242   9.841  21.627  1.00  0.00    -0.366 N 
ATOM     11  H2  UNL     1      -0.575  10.530  20.953  1.00  0.00     0.162 HD
HETATM   12  S1  UNL     1       0.592   8.582  19.464  1.00  0.00    -0.078 SA
HETATM   13  C10 UNL     1       2.231   7.756  19.409  1.00  0.00     0.164 C 
HETATM   14  C23 UNL     1       2.045   5.832  22.727  1.00  0.00     0.057 C 
ENDROOT
BRANCH  13  15
HETATM   15  C11 UNL     1       2.609   7.359  18.056  1.00  0.00     0.274 C 
HETATM   16  O2  UNL     1       3.725   6.773  17.896  1.00  0.00    -0.264 OA
BRANCH  15  17
HETATM   17  O3  UNL     1       1.852   7.565  16.920  1.00  0.00    -0.320 OA
BRANCH  17  18
HETATM   18  C12 UNL     1       2.329   8.300  15.801  1.00  0.00     0.188 C 
BRANCH  18  19
HETATM   19  C13 UNL     1       1.540   8.051  14.563  1.00  0.00    -0.017 C 
HETATM   20  C14 UNL     1       1.685   9.143  13.532  1.00  0.00     0.016 C 
HETATM   21  C15 UNL     1       0.751   8.870  12.386  1.00  0.00    -0.013 C 
HETATM   22  C16 UNL     1      -0.666   8.835  12.868  1.00  0.00     0.009 C 
HETATM   23  C20 UNL     1       1.123   7.570  11.693  1.00  0.00     0.009 C 
HETATM   24  C17 UNL     1      -0.811   7.647  13.795  1.00  0.00    -0.013 C 
HETATM   25  C18 UNL     1      -0.420   6.360  13.135  1.00  0.00     0.009 C 
HETATM   26  C22 UNL     1       0.088   7.874  14.971  1.00  0.00     0.016 C 
HETATM   27  C19 UNL     1       1.032   6.474  12.721  1.00  0.00    -0.013 C 
HETATM   28  C21 UNL     1       1.949   6.744  13.883  1.00  0.00     0.016 C 
ENDBRANCH  18  19
ENDBRANCH  17  18
ENDBRANCH  15  17
ENDBRANCH  13  15
BRANCH  10  29
HETATM   29  C8  UNL     1      -0.442  10.038  23.063  1.00  0.00     0.168 C 
BRANCH  29  30
HETATM   30  C9  UNL     1      -1.895   9.950  23.314  1.00  0.00     0.106 C 
HETATM   31  N3  UNL     1      -2.408   8.844  23.685  1.00  0.00    -0.283 N 
ATOM     32  H3  UNL     1      -3.412   8.790  23.855  1.00  0.00     0.192 HD
BRANCH  31  33
HETATM   33  O1  UNL     1      -1.641   7.732  23.859  1.00  0.00    -0.291 OA
ATOM     34  H1  UNL     1      -1.591   7.057  23.191  1.00  0.00     0.244 HD
ENDBRANCH  31  33
ENDBRANCH  29  30
ENDBRANCH  10  29
TORSDOF 7
ENDMDL
MODEL 2
REMARK VINA RESULT: -7.903374351      2.928      6.869
REMARK  7 active torsions:
REMARK  status: ('A' for Active; 'I' for Inactive)
REMARK    1  A    between atoms: N2_10  and  C8_12 
REMARK    2  A    between atoms: C8_12  and  C9_13 
REMARK    3  A    between atoms: N3_14  and  O1_16 
REMARK    4  A    between atoms: C10_19  and  C11_20 
REMARK    5  A    between atoms: C11_20  and  O3_22 
REMARK    6  A    between atoms: O3_22  and  C12_23 
REMARK    7  A    between atoms: C12_23  and  C13_24 
ROOT
HETATM    1  C1  UNL     1       1.668   7.569  16.631  1.00  0.00     0.010 C 
HETATM    2  C2  UNL     1       1.835   8.394  17.869  1.00  0.00    -0.013 C 
HETATM    3  C3  UNL     1       2.861   7.880  18.824  1.00  0.00     0.005 C 
HETATM    4  C4  UNL     1       2.487   6.643  19.571  1.00  0.00     0.012 C 
HETATM    5  C5  UNL     1       1.000   6.632  19.856  1.00  0.00     0.055 C 
HETATM    6  C6  UNL     1       0.540   8.010  19.857  1.00  0.00    -0.005 C 
HETATM    7  N1  UNL     1       0.174   8.701  20.859  1.00  0.00    -0.344 N 
ATOM      8  H1  UNL     1      -0.123   9.661  20.678  1.00  0.00     0.167 HD
HETATM    9  C7  UNL     1       0.141   8.264  22.187  1.00  0.00     0.141 C 
HETATM   10  N2  UNL     1      -0.409   8.855  23.176  1.00  0.00    -0.366 N 
ATOM     11  H2  UNL     1      -0.376   8.451  24.112  1.00  0.00     0.162 HD
HETATM   12  S1  UNL     1       0.959   6.694  22.530  1.00  0.00    -0.078 SA
HETATM   13  C10 UNL     1       0.604   5.762  20.987  1.00  0.00     0.164 C 
HETATM   14  C23 UNL     1       0.496   8.703  18.521  1.00  0.00     0.057 C 
ENDROOT
BRANCH  13  15
HETATM   15  C11 UNL     1       1.277   4.467  20.952  1.00  0.00     0.274 C 
HETATM   16  O2  UNL     1       0.901   3.624  20.080  1.00  0.00    -0.264 OA
BRANCH  15  17
HETATM   17  O3  UNL     1       2.299   4.073  21.793  1.00  0.00    -0.320 OA
BRANCH  17  18
HETATM   18  C12 UNL     1       3.460   3.396  21.327  1.00  0.00     0.188 C 
BRANCH  18  19
HETATM   19  C13 UNL     1       4.701   4.205  21.473  1.00  0.00    -0.017 C 
HETATM   20  C14 UNL     1       4.516   5.434  22.329  1.00  0.00     0.016 C 
HETATM   21  C15 UNL     1       5.779   6.249  22.304  1.00  0.00    -0.013 C 
HETATM   22  C16 UNL     1       6.098   6.670  20.904  1.00  0.00     0.009 C 
HETATM   23  C20 UNL     1       6.930   5.468  22.914  1.00  0.00     0.009 C 
HETATM   24  C17 UNL     1       6.412   5.423  20.105  1.00  0.00    -0.013 C 
HETATM   25  C18 UNL     1       7.526   4.626  20.710  1.00  0.00     0.009 C 
HETATM   26  C22 UNL     1       5.177   4.576  20.080  1.00  0.00     0.016 C 
HETATM   27  C19 UNL     1       7.097   4.212  22.102  1.00  0.00    -0.013 C 
HETATM   28  C21 UNL     1       5.835   3.394  22.103  1.00  0.00     0.016 C 
ENDBRANCH  18  19
ENDBRANCH  17  18
ENDBRANCH  15  17
ENDBRANCH  13  15
BRANCH  10  29
HETATM   29  C8  UNL     1      -1.086  10.128  22.931  1.00  0.00     0.168 C 
BRANCH  29  30
HETATM   30  C9  UNL     1      -2.404  10.053  23.595  1.00  0.00     0.106 C 
HETATM   31  N3  UNL     1      -3.033  11.124  23.876  1.00  0.00    -0.283 N 
ATOM     32  H3  UNL     1      -3.942  11.065  24.335  1.00  0.00     0.192 HD
BRANCH  31  33
HETATM   33  O1  UNL     1      -2.516  12.348  23.575  1.00  0.00    -0.291 OA
ATOM     34  H1  UNL     1      -2.824  12.843  22.825  1.00  0.00     0.244 HD
ENDBRANCH  31  33
ENDBRANCH  29  30
ENDBRANCH  10  29
TORSDOF 7
ENDMDL
MODEL 3
REMARK VINA RESULT: -7.875616413      3.182      7.073
REMARK  7 active torsions:
REMARK  status: ('A' for Active; 'I' for Inactive)
REMARK    1  A    between atoms: N2_10  and  C8_12 
REMARK    2  A    between atoms: C8_12  and  C9_13 
REMARK    3  A    between atoms: N3_14  and  O1_16 
REMARK    4  A    between atoms: C10_19  and  C11_20 
REMARK    5  A    between atoms: C11_20  and  O3_22 
REMARK    6  A    between atoms: O3_22  and  C12_23 
REMARK    7  A    between atoms: C12_23  and  C13_24 
ROOT
HETATM    1  C1  UNL     1       5.997   4.734  20.166  1.00  0.00     0.010 C 
HETATM    2  C2  UNL     1       5.560   6.098  19.729  1.00  0.00    -0.013 C 
HETATM    3  C3  UNL     1       5.142   7.002  20.840  1.00  0.00     0.005 C 
HETATM    4  C4  UNL     1       3.835   6.674  21.483  1.00  0.00     0.012 C 
HETATM    5  C5  UNL     1       2.874   6.108  20.458  1.00  0.00     0.055 C 
HETATM    6  C6  UNL     1       3.282   6.599  19.153  1.00  0.00    -0.005 C 
HETATM    7  N1  UNL     1       2.688   7.460  18.431  1.00  0.00    -0.344 N 
ATOM      8  H1  UNL     1       3.116   7.689  17.533  1.00  0.00     0.167 HD
HETATM    9  C7  UNL     1       1.500   8.122  18.757  1.00  0.00     0.141 C 
HETATM   10  N2  UNL     1       0.777   8.829  17.978  1.00  0.00    -0.366 N 
ATOM     11  H2  UNL     1      -0.077   9.273  18.316  1.00  0.00     0.162 HD
HETATM   12  S1  UNL     1       0.932   7.948  20.460  1.00  0.00    -0.078 SA
HETATM   13  C10 UNL     1       1.447   6.225  20.833  1.00  0.00     0.164 C 
HETATM   14  C23 UNL     1       4.556   6.026  18.589  1.00  0.00     0.057 C 
ENDROOT
BRANCH  13  15
HETATM   15  C11 UNL     1       1.209   5.863  22.228  1.00  0.00     0.274 C 
HETATM   16  O2  UNL     1       0.806   6.771  23.019  1.00  0.00    -0.264 OA
BRANCH  15  17
HETATM   17  O3  UNL     1       1.385   4.605  22.770  1.00  0.00    -0.320 OA
BRANCH  17  18
HETATM   18  C12 UNL     1       0.690   3.459  22.293  1.00  0.00     0.188 C 
BRANCH  18  19
HETATM   19  C13 UNL     1       1.543   2.568  21.461  1.00  0.00    -0.017 C 
HETATM   20  C14 UNL     1       3.021   2.807  21.651  1.00  0.00     0.016 C 
HETATM   21  C15 UNL     1       3.789   1.960  20.674  1.00  0.00    -0.013 C 
HETATM   22  C16 UNL     1       3.411   2.315  19.270  1.00  0.00     0.009 C 
HETATM   23  C20 UNL     1       3.552   0.484  20.946  1.00  0.00     0.009 C 
HETATM   24  C17 UNL     1       1.959   1.936  19.071  1.00  0.00    -0.013 C 
HETATM   25  C18 UNL     1       1.703   0.490  19.364  1.00  0.00     0.009 C 
HETATM   26  C22 UNL     1       1.139   2.766  20.010  1.00  0.00     0.016 C 
HETATM   27  C19 UNL     1       2.074   0.237  20.810  1.00  0.00    -0.013 C 
HETATM   28  C21 UNL     1       1.290   1.091  21.769  1.00  0.00     0.016 C 
ENDBRANCH  18  19
ENDBRANCH  17  18
ENDBRANCH  15  17
ENDBRANCH  13  15
BRANCH  10  29
HETATM   29  C8  UNL     1       1.206   8.986  16.589  1.00  0.00     0.168 C 
BRANCH  29  30
HETATM   30  C9  UNL     1       0.039   8.673  15.737  1.00  0.00     0.106 C 
HETATM   31  N3  UNL     1      -0.997   9.413  15.788  1.00  0.00    -0.283 N 
ATOM     32  H3  UNL     1      -1.799   9.190  15.198  1.00  0.00     0.192 HD
BRANCH  31  33
HETATM   33  O1  UNL     1      -1.056  10.494  16.614  1.00  0.00    -0.291 OA
ATOM     34  H1  UNL     1      -1.644  11.219  16.438  1.00  0.00     0.244 HD
ENDBRANCH  31  33
ENDBRANCH  29  30
ENDBRANCH  10  29
TORSDOF 7
ENDMDL
MODEL 4
REMARK VINA RESULT: -7.871678194      2.948      6.991
REMARK  7 active torsions:
REMARK  status: ('A' for Active; 'I' for Inactive)
REMARK    1  A    between atoms: N2_10  and  C8_12 
REMARK    2  A    between atoms: C8_12  and  C9_13 
REMARK    3  A    between atoms: N3_14  and  O1_16 
REMARK    4  A    between atoms: C10_19  and  C11_20 
REMARK    5  A    between atoms: C11_20  and  O3_22 
REMARK    6  A    between atoms: O3_22  and  C12_23 
REMARK    7  A    between atoms: C12_23  and  C13_24 
ROOT
HETATM    1  C1  UNL     1       2.386   7.245  16.268  1.00  0.00     0.010 C 
HETATM    2  C2  UNL     1       2.453   8.269  17.358  1.00  0.00    -0.013 C 
HETATM    3  C3  UNL     1       3.297   7.878  18.526  1.00  0.00     0.005 C 
HETATM    4  C4  UNL     1       2.726   6.819  19.410  1.00  0.00     0.012 C 
HETATM    5  C5  UNL     1       1.218   6.945  19.473  1.00  0.00     0.055 C 
HETATM    6  C6  UNL     1       0.878   8.325  19.172  1.00  0.00    -0.005 C 
HETATM    7  N1  UNL     1       0.439   9.206  19.977  1.00  0.00    -0.344 N 
ATOM      8  H1  UNL     1       0.250  10.133  19.593  1.00  0.00     0.167 HD
HETATM    9  C7  UNL     1       0.193   9.018  21.340  1.00  0.00     0.141 C 
HETATM   10  N2  UNL     1      -0.432   9.809  22.123  1.00  0.00    -0.366 N 
ATOM     11  H2  UNL     1      -0.559   9.580  23.109  1.00  0.00     0.162 HD
HETATM   12  S1  UNL     1       0.826   7.492  22.062  1.00  0.00    -0.078 SA
HETATM   13  C10 UNL     1       0.604   6.319  20.666  1.00  0.00     0.164 C 
HETATM   14  C23 UNL     1       1.069   8.767  17.745  1.00  0.00     0.057 C 
ENDROOT
BRANCH  13  15
HETATM   15  C11 UNL     1       1.167   5.002  20.951  1.00  0.00     0.274 C 
HETATM   16  O2  UNL     1       0.846   4.039  20.187  1.00  0.00    -0.264 OA
BRANCH  15  17
HETATM   17  O3  UNL     1       2.028   4.707  21.990  1.00  0.00    -0.320 OA
BRANCH  17  18
HETATM   18  C12 UNL     1       3.084   3.763  21.868  1.00  0.00     0.188 C 
BRANCH  18  19
HETATM   19  C13 UNL     1       4.429   4.399  21.836  1.00  0.00    -0.017 C 
HETATM   20  C14 UNL     1       4.417   5.845  22.266  1.00  0.00     0.016 C 
HETATM   21  C15 UNL     1       5.788   6.431  22.070  1.00  0.00    -0.013 C 
HETATM   22  C16 UNL     1       6.185   6.352  20.629  1.00  0.00     0.009 C 
HETATM   23  C20 UNL     1       6.802   5.727  22.955  1.00  0.00     0.009 C 
HETATM   24  C17 UNL     1       6.321   4.888  20.266  1.00  0.00    -0.013 C 
HETATM   25  C18 UNL     1       7.296   4.172  21.150  1.00  0.00     0.009 C 
HETATM   26  C22 UNL     1       4.975   4.253  20.426  1.00  0.00     0.016 C 
HETATM   27  C19 UNL     1       6.791   4.271  22.573  1.00  0.00    -0.013 C 
HETATM   28  C21 UNL     1       5.421   3.674  22.747  1.00  0.00     0.016 C 
ENDBRANCH  18  19
ENDBRANCH  17  18
ENDBRANCH  15  17
ENDBRANCH  13  15
BRANCH  10  29
HETATM   29  C8  UNL     1      -0.963  11.055  21.569  1.00  0.00     0.168 C 
BRANCH  29  30
HETATM   30  C9  UNL     1      -2.091  11.466  22.430  1.00  0.00     0.106 C 
HETATM   31  N3  UNL     1      -2.742  12.527  22.157  1.00  0.00    -0.283 N 
ATOM     32  H3  UNL     1      -3.518  12.806  22.756  1.00  0.00     0.192 HD
BRANCH  31  33
HETATM   33  O1  UNL     1      -2.420  13.297  21.080  1.00  0.00    -0.291 OA
ATOM     34  H1  UNL     1      -2.963  14.032  20.818  1.00  0.00     0.244 HD
ENDBRANCH  31  33
ENDBRANCH  29  30
ENDBRANCH  10  29
TORSDOF 7
ENDMDL
MODEL 5
REMARK VINA RESULT: -7.844938002      2.933      6.916
REMARK  7 active torsions:
REMARK  status: ('A' for Active; 'I' for Inactive)
REMARK    1  A    between atoms: N2_10  and  C8_12 
REMARK    2  A    between atoms: C8_12  and  C9_13 
REMARK    3  A    between atoms: N3_14  and  O1_16 
REMARK    4  A    between atoms: C10_19  and  C11_20 
REMARK    5  A    between atoms: C11_20  and  O3_22 
REMARK    6  A    between atoms: O3_22  and  C12_23 
REMARK    7  A    between atoms: C12_23  and  C13_24 
ROOT
HETATM    1  C1  UNL     1       1.738   7.574  16.647  1.00  0.00     0.010 C 
HETATM    2  C2  UNL     1       1.889   8.412  17.878  1.00  0.00    -0.013 C 
HETATM    3  C3  UNL     1       2.926   7.928  18.836  1.00  0.00     0.005 C 
HETATM    4  C4  UNL     1       2.577   6.689  19.594  1.00  0.00     0.012 C 
HETATM    5  C5  UNL     1       1.091   6.651  19.880  1.00  0.00     0.055 C 
HETATM    6  C6  UNL     1       0.604   8.020  19.870  1.00  0.00    -0.005 C 
HETATM    7  N1  UNL     1       0.225   8.712  20.866  1.00  0.00    -0.344 N 
ATOM      8  H1  UNL     1      -0.091   9.664  20.678  1.00  0.00     0.167 HD
HETATM    9  C7  UNL     1       0.202   8.286  22.198  1.00  0.00     0.141 C 
HETATM   10  N2  UNL     1      -0.359   8.874  23.182  1.00  0.00    -0.366 N 
ATOM     11  H2  UNL     1      -0.317   8.479  24.122  1.00  0.00     0.162 HD
HETATM   12  S1  UNL     1       1.051   6.736  22.554  1.00  0.00    -0.078 SA
HETATM   13  C10 UNL     1       0.713   5.783  21.019  1.00  0.00     0.164 C 
HETATM   14  C23 UNL     1       0.545   8.700  18.528  1.00  0.00     0.057 C 
ENDROOT
BRANCH  13  15
HETATM   15  C11 UNL     1       1.412   4.502  20.995  1.00  0.00     0.274 C 
HETATM   16  O2  UNL     1       1.056   3.646  20.126  1.00  0.00    -0.264 OA
BRANCH  15  17
HETATM   17  O3  UNL     1       2.439   4.133  21.841  1.00  0.00    -0.320 OA
BRANCH  17  18
HETATM   18  C12 UNL     1       3.555   3.366  21.408  1.00  0.00     0.188 C 
BRANCH  18  19
HETATM   19  C13 UNL     1       4.833   4.128  21.447  1.00  0.00    -0.017 C 
HETATM   20  C14 UNL     1       5.992   3.325  21.984  1.00  0.00     0.016 C 
HETATM   21  C15 UNL     1       7.196   4.217  22.111  1.00  0.00    -0.013 C 
HETATM   22  C16 UNL     1       6.907   5.348  23.048  1.00  0.00     0.009 C 
HETATM   23  C20 UNL     1       7.624   4.733  20.748  1.00  0.00     0.009 C 
HETATM   24  C17 UNL     1       5.836   6.211  22.416  1.00  0.00    -0.013 C 
HETATM   25  C18 UNL     1       6.231   6.704  21.058  1.00  0.00     0.009 C 
HETATM   26  C22 UNL     1       4.600   5.376  22.281  1.00  0.00     0.016 C 
HETATM   27  C19 UNL     1       6.460   5.496  20.175  1.00  0.00    -0.013 C 
HETATM   28  C21 UNL     1       5.242   4.621  20.058  1.00  0.00     0.016 C 
ENDBRANCH  18  19
ENDBRANCH  17  18
ENDBRANCH  15  17
ENDBRANCH  13  15
BRANCH  10  29
HETATM   29  C8  UNL     1      -1.061  10.132  22.928  1.00  0.00     0.168 C 
BRANCH  29  30
HETATM   30  C9  UNL     1      -2.374  10.038  23.599  1.00  0.00     0.106 C 
HETATM   31  N3  UNL     1      -3.028  11.100  23.861  1.00  0.00    -0.283 N 
ATOM     32  H3  UNL     1      -3.934  11.028  24.325  1.00  0.00     0.192 HD
BRANCH  31  33
HETATM   33  O1  UNL     1      -2.542  12.329  23.533  1.00  0.00    -0.291 OA
ATOM     34  H1  UNL     1      -2.811  13.108  24.006  1.00  0.00     0.244 HD
ENDBRANCH  31  33
ENDBRANCH  29  30
ENDBRANCH  10  29
TORSDOF 7
ENDMDL
