MODEL 1
REMARK VINA RESULT: -6.989344827      0.000      0.000
REMARK  5 active torsions:
REMARK  status: ('A' for Active; 'I' for Inactive)
REMARK    1  A    between atoms: C3_3  and  C5_5 
REMARK    2  A    between atoms: C5_5  and  O1_6 
REMARK    3  A    between atoms: C5_5  and  C22_29 
REMARK    4  A    between atoms: O1_6  and  C6_7 
REMARK    5  A    between atoms: C14_17  and  O4_18 
ROOT
HETATM    1  C6  UNL     1       3.088   4.342  20.921  1.00  0.00     0.282 C 
HETATM    2  O2  UNL     1       4.453   4.052  20.824  1.00  0.00    -0.307 OA
HETATM    3  C7  UNL     1       4.782   2.837  20.389  1.00  0.00     0.416 C 
HETATM    4  O3  UNL     1       5.869   2.405  21.195  1.00  0.00    -0.335 OA
HETATM    5  C8  UNL     1       6.601   3.464  21.647  1.00  0.00     0.207 C 
HETATM    6  C9  UNL     1       6.052   4.230  22.770  1.00  0.00    -0.064 C 
HETATM    7  C10 UNL     1       6.378   5.710  22.784  1.00  0.00     0.045 C 
HETATM    8  C11 UNL     1       5.311   3.717  23.764  1.00  0.00    -0.022 C 
HETATM    9  C12 UNL     1       4.915   2.327  23.922  1.00  0.00     0.030 C 
HETATM   10  C13 UNL     1       3.628   1.868  23.368  1.00  0.00     0.045 C 
HETATM   11  C14 UNL     1       2.608   2.786  22.902  1.00  0.00     0.101 C 
HETATM   12  C15 UNL     1       1.267   2.014  23.068  1.00  0.00     0.157 C 
HETATM   13  C16 UNL     1       1.503   0.653  22.390  1.00  0.00     0.038 C 
HETATM   14  C17 UNL     1       1.848   0.800  20.958  1.00  0.00     0.041 C 
HETATM   15  C18 UNL     1       2.564   2.052  20.551  1.00  0.00     0.080 C 
HETATM   16  C19 UNL     1       2.079   2.397  19.140  1.00  0.00     0.047 C 
HETATM   17  O5  UNL     1       3.905   1.823  20.392  1.00  0.00    -0.327 OA
HETATM   18  C20 UNL     1       2.402   3.201  21.518  1.00  0.00     0.095 C 
HETATM   19  C21 UNL     1       0.946   3.657  21.652  1.00  0.00     0.189 C 
HETATM   20  O6  UNL     1       0.334   2.620  22.291  1.00  0.00    -0.382 OA
ENDROOT
BRANCH   1  21
HETATM   21  O1  UNL     1       2.902   5.606  21.339  1.00  0.00    -0.350 OA
BRANCH  21  22
HETATM   22  C5  UNL     1       2.272   6.523  20.541  1.00  0.00     0.156 C 
BRANCH  22  23
HETATM   23  C3  UNL     1       1.448   7.401  21.405  1.00  0.00    -0.059 C 
HETATM   24  C2  UNL     1       1.149   8.625  20.989  1.00  0.00    -0.026 C 
HETATM   25  C1  UNL     1       0.355   9.594  21.788  1.00  0.00     0.036 C 
HETATM   26  C4  UNL     1       0.943   7.024  22.745  1.00  0.00     0.046 C 
ENDBRANCH  22  23
BRANCH  22  27
HETATM   27  C22 UNL     1       3.202   7.315  19.654  1.00  0.00     0.011 C 
HETATM   28  C23 UNL     1       4.507   7.473  20.451  1.00  0.00     0.012 C 
HETATM   29  C24 UNL     1       3.464   6.772  18.317  1.00  0.00     0.012 C 
ENDBRANCH  22  27
ENDBRANCH  21  22
ENDBRANCH   1  21
BRANCH  11  30
HETATM   30  O4  UNL     1       2.510   3.857  23.775  1.00  0.00    -0.386 OA
ATOM     31  H4  UNL     1       3.197   4.486  23.589  1.00  0.00     0.210 HD
ENDBRANCH  11  30
TORSDOF 5
ENDMDL
MODEL 2
REMARK VINA RESULT: -6.819269126      1.778      4.514
REMARK  5 active torsions:
REMARK  status: ('A' for Active; 'I' for Inactive)
REMARK    1  A    between atoms: C3_3  and  C5_5 
REMARK    2  A    between atoms: C5_5  and  O1_6 
REMARK    3  A    between atoms: C5_5  and  C22_29 
REMARK    4  A    between atoms: O1_6  and  C6_7 
REMARK    5  A    between atoms: C14_17  and  O4_18 
ROOT
HETATM    1  C6  UNL     1       2.855   6.004  21.370  1.00  0.00     0.282 C 
HETATM    2  O2  UNL     1       2.907   5.053  22.394  1.00  0.00    -0.307 OA
HETATM    3  C7  UNL     1       4.116   4.673  22.803  1.00  0.00     0.416 C 
HETATM    4  O3  UNL     1       4.049   3.266  22.994  1.00  0.00    -0.335 OA
HETATM    5  C8  UNL     1       2.786   2.872  23.325  1.00  0.00     0.207 C 
HETATM    6  C9  UNL     1       1.802   2.787  22.241  1.00  0.00    -0.064 C 
HETATM    7  C10 UNL     1       0.369   3.102  22.620  1.00  0.00     0.045 C 
HETATM    8  C11 UNL     1       2.080   2.446  20.973  1.00  0.00    -0.022 C 
HETATM    9  C12 UNL     1       3.386   2.100  20.435  1.00  0.00     0.030 C 
HETATM   10  C13 UNL     1       4.230   3.149  19.835  1.00  0.00     0.045 C 
HETATM   11  C14 UNL     1       3.722   4.466  19.509  1.00  0.00     0.101 C 
HETATM   12  C15 UNL     1       4.625   4.969  18.346  1.00  0.00     0.157 C 
HETATM   13  C16 UNL     1       6.067   4.756  18.839  1.00  0.00     0.038 C 
HETATM   14  C17 UNL     1       6.345   5.511  20.080  1.00  0.00     0.041 C 
HETATM   15  C18 UNL     1       5.193   5.757  21.007  1.00  0.00     0.080 C 
HETATM   16  C19 UNL     1       5.432   7.124  21.654  1.00  0.00     0.047 C 
HETATM   17  O5  UNL     1       5.213   4.884  22.062  1.00  0.00    -0.327 OA
HETATM   18  C20 UNL     1       3.837   5.656  20.348  1.00  0.00     0.095 C 
HETATM   19  C21 UNL     1       3.635   6.704  19.250  1.00  0.00     0.189 C 
HETATM   20  O6  UNL     1       4.493   6.317  18.264  1.00  0.00    -0.382 OA
ENDROOT
BRANCH   1  21
HETATM   21  O1  UNL     1       1.581   6.318  21.081  1.00  0.00    -0.350 OA
BRANCH  21  22
HETATM   22  C5  UNL     1       0.942   7.336  21.738  1.00  0.00     0.156 C 
BRANCH  22  23
HETATM   23  C3  UNL     1       0.554   8.360  20.741  1.00  0.00    -0.059 C 
HETATM   24  C2  UNL     1       0.263   7.982  19.503  1.00  0.00    -0.026 C 
HETATM   25  C1  UNL     1      -0.110   8.929  18.420  1.00  0.00     0.036 C 
HETATM   26  C4  UNL     1       0.492   9.815  21.012  1.00  0.00     0.046 C 
ENDBRANCH  22  23
BRANCH  22  27
HETATM   27  C22 UNL     1      -0.230   6.891  22.578  1.00  0.00     0.011 C 
HETATM   28  C23 UNL     1      -0.678   8.134  23.364  1.00  0.00     0.012 C 
HETATM   29  C24 UNL     1      -1.359   6.281  21.869  1.00  0.00     0.012 C 
ENDBRANCH  22  27
ENDBRANCH  21  22
ENDBRANCH   1  21
BRANCH  11  30
HETATM   30  O4  UNL     1       2.458   4.356  18.954  1.00  0.00    -0.386 OA
ATOM     31  H4  UNL     1       2.481   3.751  18.222  1.00  0.00     0.210 HD
ENDBRANCH  11  30
TORSDOF 5
ENDMDL
MODEL 3
REMARK VINA RESULT: -6.766952387      1.299      1.537
REMARK  5 active torsions:
REMARK  status: ('A' for Active; 'I' for Inactive)
REMARK    1  A    between atoms: C3_3  and  C5_5 
REMARK    2  A    between atoms: C5_5  and  O1_6 
REMARK    3  A    between atoms: C5_5  and  C22_29 
REMARK    4  A    between atoms: O1_6  and  C6_7 
REMARK    5  A    between atoms: C14_17  and  O4_18 
ROOT
HETATM    1  C6  UNL     1       3.501   3.966  21.300  1.00  0.00     0.282 C 
HETATM    2  O2  UNL     1       4.875   4.106  21.077  1.00  0.00    -0.307 OA
HETATM    3  C7  UNL     1       5.562   2.993  20.828  1.00  0.00     0.416 C 
HETATM    4  O3  UNL     1       6.781   3.107  21.548  1.00  0.00    -0.335 OA
HETATM    5  C8  UNL     1       7.145   4.412  21.702  1.00  0.00     0.207 C 
HETATM    6  C9  UNL     1       6.446   5.188  22.732  1.00  0.00    -0.064 C 
HETATM    7  C10 UNL     1       6.258   6.662  22.438  1.00  0.00     0.045 C 
HETATM    8  C11 UNL     1       5.986   4.692  23.891  1.00  0.00    -0.022 C 
HETATM    9  C12 UNL     1       6.089   3.315  24.347  1.00  0.00     0.030 C 
HETATM   10  C13 UNL     1       4.997   2.367  24.058  1.00  0.00     0.045 C 
HETATM   11  C14 UNL     1       3.700   2.797  23.574  1.00  0.00     0.101 C 
HETATM   12  C15 UNL     1       2.709   1.696  24.051  1.00  0.00     0.157 C 
HETATM   13  C16 UNL     1       3.341   0.367  23.603  1.00  0.00     0.038 C 
HETATM   14  C17 UNL     1       3.522   0.307  22.136  1.00  0.00     0.041 C 
HETATM   15  C18 UNL     1       3.751   1.603  21.419  1.00  0.00     0.080 C 
HETATM   16  C19 UNL     1       3.086   1.470  20.046  1.00  0.00     0.047 C 
HETATM   17  O5  UNL     1       5.077   1.780  21.128  1.00  0.00    -0.327 OA
HETATM   18  C20 UNL     1       3.276   2.822  22.177  1.00  0.00     0.095 C 
HETATM   19  C21 UNL     1       1.765   2.814  22.418  1.00  0.00     0.189 C 
HETATM   20  O6  UNL     1       1.578   1.798  23.308  1.00  0.00    -0.382 OA
ENDROOT
BRANCH   1  21
HETATM   21  O1  UNL     1       2.931   5.165  21.505  1.00  0.00    -0.350 OA
BRANCH  21  22
HETATM   22  C5  UNL     1       1.958   5.633  20.663  1.00  0.00     0.156 C 
BRANCH  22  23
HETATM   23  C3  UNL     1       0.821   6.109  21.486  1.00  0.00    -0.059 C 
HETATM   24  C2  UNL     1      -0.417   5.948  21.037  1.00  0.00    -0.026 C 
HETATM   25  C1  UNL     1      -1.624   6.413  21.768  1.00  0.00     0.036 C 
HETATM   26  C4  UNL     1       0.960   6.795  22.791  1.00  0.00     0.046 C 
ENDBRANCH  22  23
BRANCH  22  27
HETATM   27  C22 UNL     1       2.433   6.687  19.692  1.00  0.00     0.011 C 
HETATM   28  C23 UNL     1       3.591   7.413  20.396  1.00  0.00     0.012 C 
HETATM   29  C24 UNL     1       2.834   6.226  18.359  1.00  0.00     0.012 C 
ENDBRANCH  22  27
ENDBRANCH  21  22
ENDBRANCH   1  21
BRANCH  11  30
HETATM   30  O4  UNL     1       3.307   3.943  24.246  1.00  0.00    -0.386 OA
ATOM     31  H4  UNL     1       2.667   3.720  24.912  1.00  0.00     0.210 HD
ENDBRANCH  11  30
TORSDOF 5
ENDMDL
MODEL 4
REMARK VINA RESULT: -6.647521274      1.889      4.764
REMARK  5 active torsions:
REMARK  status: ('A' for Active; 'I' for Inactive)
REMARK    1  A    between atoms: C3_3  and  C5_5 
REMARK    2  A    between atoms: C5_5  and  O1_6 
REMARK    3  A    between atoms: C5_5  and  C22_29 
REMARK    4  A    between atoms: O1_6  and  C6_7 
REMARK    5  A    between atoms: C14_17  and  O4_18 
ROOT
HETATM    1  C6  UNL     1       3.080   6.037  21.451  1.00  0.00     0.282 C 
HETATM    2  O2  UNL     1       3.437   5.484  20.217  1.00  0.00    -0.307 OA
HETATM    3  C7  UNL     1       2.754   5.898  19.151  1.00  0.00     0.416 C 
HETATM    4  O3  UNL     1       2.513   4.744  18.358  1.00  0.00    -0.335 OA
HETATM    5  C8  UNL     1       3.492   3.810  18.534  1.00  0.00     0.207 C 
HETATM    6  C9  UNL     1       3.437   3.001  19.756  1.00  0.00    -0.064 C 
HETATM    7  C10 UNL     1       4.773   2.569  20.326  1.00  0.00     0.045 C 
HETATM    8  C11 UNL     1       2.311   2.620  20.379  1.00  0.00    -0.022 C 
HETATM    9  C12 UNL     1       0.949   2.926  19.972  1.00  0.00     0.030 C 
HETATM   10  C13 UNL     1       0.277   4.122  20.513  1.00  0.00     0.045 C 
HETATM   11  C14 UNL     1       0.804   4.870  21.637  1.00  0.00     0.101 C 
HETATM   12  C15 UNL     1      -0.440   5.536  22.294  1.00  0.00     0.157 C 
HETATM   13  C16 UNL     1      -1.180   6.229  21.135  1.00  0.00     0.038 C 
HETATM   14  C17 UNL     1      -0.335   7.243  20.466  1.00  0.00     0.041 C 
HETATM   15  C18 UNL     1       1.145   7.011  20.468  1.00  0.00     0.080 C 
HETATM   16  C19 UNL     1       1.807   8.390  20.548  1.00  0.00     0.047 C 
HETATM   17  O5  UNL     1       1.568   6.512  19.264  1.00  0.00    -0.327 OA
HETATM   18  C20 UNL     1       1.624   6.074  21.552  1.00  0.00     0.095 C 
HETATM   19  C21 UNL     1       1.351   6.612  22.959  1.00  0.00     0.189 C 
HETATM   20  O6  UNL     1      -0.006   6.558  23.074  1.00  0.00    -0.382 OA
ENDROOT
BRANCH   1  21
HETATM   21  O1  UNL     1       3.866   5.557  22.429  1.00  0.00    -0.350 OA
BRANCH  21  22
HETATM   22  C5  UNL     1       5.171   5.959  22.541  1.00  0.00     0.156 C 
BRANCH  22  23
HETATM   23  C3  UNL     1       5.933   4.878  23.211  1.00  0.00    -0.059 C 
HETATM   24  C2  UNL     1       5.306   3.760  23.555  1.00  0.00    -0.026 C 
HETATM   25  C1  UNL     1       5.968   2.629  24.254  1.00  0.00     0.036 C 
HETATM   26  C4  UNL     1       7.368   4.958  23.563  1.00  0.00     0.046 C 
ENDBRANCH  22  23
BRANCH  22  27
HETATM   27  C22 UNL     1       5.806   6.374  21.236  1.00  0.00     0.011 C 
HETATM   28  C23 UNL     1       6.316   7.807  21.456  1.00  0.00     0.012 C 
HETATM   29  C24 UNL     1       6.869   5.510  20.713  1.00  0.00     0.012 C 
ENDBRANCH  22  27
ENDBRANCH  21  22
ENDBRANCH   1  21
BRANCH  11  30
HETATM   30  O4  UNL     1       1.283   3.994  22.597  1.00  0.00    -0.386 OA
ATOM     31  H4  UNL     1       2.058   4.361  23.007  1.00  0.00     0.210 HD
ENDBRANCH  11  30
TORSDOF 5
ENDMDL
MODEL 5
REMARK VINA RESULT: -6.632612406      1.660      3.736
REMARK  5 active torsions:
REMARK  status: ('A' for Active; 'I' for Inactive)
REMARK    1  A    between atoms: C3_3  and  C5_5 
REMARK    2  A    between atoms: C5_5  and  O1_6 
REMARK    3  A    between atoms: C5_5  and  C22_29 
REMARK    4  A    between atoms: O1_6  and  C6_7 
REMARK    5  A    between atoms: C14_17  and  O4_18 
ROOT
HETATM    1  C6  UNL     1       2.234   5.124  21.473  1.00  0.00     0.282 C 
HETATM    2  O2  UNL     1       2.319   5.102  20.077  1.00  0.00    -0.307 OA
HETATM    3  C7  UNL     1       2.599   3.932  19.508  1.00  0.00     0.416 C 
HETATM    4  O3  UNL     1       3.523   4.205  18.464  1.00  0.00    -0.335 OA
HETATM    5  C8  UNL     1       3.351   5.465  17.969  1.00  0.00     0.207 C 
HETATM    6  C9  UNL     1       3.891   6.576  18.759  1.00  0.00    -0.064 C 
HETATM    7  C10 UNL     1       3.121   7.879  18.682  1.00  0.00     0.045 C 
HETATM    8  C11 UNL     1       4.998   6.518  19.515  1.00  0.00    -0.022 C 
HETATM    9  C12 UNL     1       5.866   5.365  19.696  1.00  0.00     0.030 C 
HETATM   10  C13 UNL     1       5.627   4.441  20.819  1.00  0.00     0.045 C 
HETATM   11  C14 UNL     1       4.734   4.762  21.916  1.00  0.00     0.101 C 
HETATM   12  C15 UNL     1       5.271   3.940  23.123  1.00  0.00     0.157 C 
HETATM   13  C16 UNL     1       5.421   2.503  22.594  1.00  0.00     0.038 C 
HETATM   14  C17 UNL     1       4.133   1.951  22.118  1.00  0.00     0.041 C 
HETATM   15  C18 UNL     1       3.130   2.923  21.573  1.00  0.00     0.080 C 
HETATM   16  C19 UNL     1       1.746   2.383  21.945  1.00  0.00     0.047 C 
HETATM   17  O5  UNL     1       3.130   2.916  20.203  1.00  0.00    -0.327 OA
HETATM   18  C20 UNL     1       3.339   4.349  22.028  1.00  0.00     0.095 C 
HETATM   19  C21 UNL     1       3.196   4.510  23.544  1.00  0.00     0.189 C 
HETATM   20  O6  UNL     1       4.282   3.857  24.048  1.00  0.00    -0.382 OA
ENDROOT
BRANCH   1  21
HETATM   21  O1  UNL     1       1.916   6.355  21.908  1.00  0.00    -0.350 OA
BRANCH  21  22
HETATM   22  C5  UNL     1       0.673   6.620  22.418  1.00  0.00     0.156 C 
BRANCH  22  23
HETATM   23  C3  UNL     1       0.434   8.079  22.322  1.00  0.00    -0.059 C 
HETATM   24  C2  UNL     1      -0.291   8.680  23.257  1.00  0.00    -0.026 C 
HETATM   25  C1  UNL     1      -0.615  10.131  23.240  1.00  0.00     0.036 C 
HETATM   26  C4  UNL     1       0.927   8.940  21.222  1.00  0.00     0.046 C 
ENDBRANCH  22  23
BRANCH  22  27
HETATM   27  C22 UNL     1      -0.440   5.822  21.783  1.00  0.00     0.011 C 
HETATM   28  C23 UNL     1      -1.497   5.630  22.882  1.00  0.00     0.012 C 
HETATM   29  C24 UNL     1      -1.040   6.375  20.565  1.00  0.00     0.012 C 
ENDBRANCH  22  27
ENDBRANCH  21  22
ENDBRANCH   1  21
BRANCH  11  30
HETATM   30  O4  UNL     1       4.905   6.086  22.285  1.00  0.00    -0.386 OA
ATOM     31  H4  UNL     1       5.831   6.278  22.370  1.00  0.00     0.210 HD
ENDBRANCH  11  30
TORSDOF 5
ENDMDL
