MODEL 1
REMARK VINA RESULT: -7.483682962      0.000      0.000
REMARK  6 active torsions:
REMARK  status: ('A' for Active; 'I' for Inactive)
REMARK    1  A    between atoms: C2_2  and  O1_3 
REMARK    2  A    between atoms: O1_3  and  C3_4 
REMARK    3  A    between atoms: C3_4  and  C4_5 
REMARK    4  A    between atoms: C3_4  and  C22_27 
REMARK    5  A    between atoms: C4_5  and  C5_6 
REMARK    6  A    between atoms: C22_27  and  O6_30 
ROOT
HETATM    1  C5  UNL     1       2.435   7.564  21.002  1.00  0.00    -0.006 C 
HETATM    2  C6  UNL     1       3.278   6.558  21.836  1.00  0.00     0.017 C 
HETATM    3  C7  UNL     1       4.129   6.429  20.652  1.00  0.00    -0.011 C 
HETATM    4  C8  UNL     1       5.212   7.516  20.683  1.00  0.00     0.018 C 
HETATM    5  C9  UNL     1       2.971   6.892  19.811  1.00  0.00     0.000 C 
HETATM    6  C10 UNL     1       2.247   5.932  19.008  1.00  0.00     0.006 C 
HETATM    7  C11 UNL     1       1.741   4.646  19.498  1.00  0.00     0.005 C 
HETATM    8  C12 UNL     1       2.444   3.410  18.986  1.00  0.00    -0.012 C 
HETATM    9  C13 UNL     1       1.492   2.222  19.194  1.00  0.00     0.010 C 
HETATM   10  C14 UNL     1       3.759   3.051  19.569  1.00  0.00     0.022 C 
HETATM   11  C15 UNL     1       4.767   3.125  18.452  1.00  0.00     0.013 C 
HETATM   12  C16 UNL     1       6.186   3.200  18.774  1.00  0.00     0.069 C 
HETATM   13  C17 UNL     1       6.790   4.143  19.682  1.00  0.00     0.172 C 
HETATM   14  C18 UNL     1       8.107   4.721  19.134  1.00  0.00     0.080 C 
HETATM   15  O2  UNL     1       7.213   3.408  20.866  1.00  0.00    -0.260 OA
HETATM   16  C19 UNL     1       6.262   2.860  21.716  1.00  0.00     0.409 C 
HETATM   17  O3  UNL     1       6.647   1.983  22.543  1.00  0.00    -0.229 OA
HETATM   18  O4  UNL     1       4.902   3.198  21.738  1.00  0.00    -0.290 OA
HETATM   19  C20 UNL     1       4.140   3.918  20.761  1.00  0.00     0.168 C 
HETATM   20  C21 UNL     1       4.744   5.144  20.216  1.00  0.00     0.163 C 
HETATM   21  O5  UNL     1       6.128   5.185  20.235  1.00  0.00    -0.346 OA
ENDROOT
BRANCH   1  22
HETATM   22  C4  UNL     1       1.015   7.607  21.342  1.00  0.00     0.040 C 
BRANCH  22  23
HETATM   23  C3  UNL     1       0.591   6.926  22.616  1.00  0.00     0.155 C 
BRANCH  23  24
HETATM   24  O1  UNL     1       0.207   7.906  23.567  1.00  0.00    -0.383 OA
BRANCH  24  25
HETATM   25  C2  UNL     1      -0.138   9.098  23.012  1.00  0.00     0.163 C 
HETATM   26  C1  UNL     1      -1.521   9.527  23.373  1.00  0.00     0.033 C 
ENDBRANCH  24  25
ENDBRANCH  23  24
BRANCH  23  27
HETATM   27  C22 UNL     1      -0.533   5.947  22.476  1.00  0.00     0.076 C 
HETATM   28  C23 UNL     1      -1.261   6.187  21.153  1.00  0.00     0.048 C 
HETATM   29  C24 UNL     1       0.040   4.524  22.360  1.00  0.00     0.048 C 
BRANCH  27  30
HETATM   30  O6  UNL     1      -1.458   5.914  23.471  1.00  0.00    -0.388 OA
ATOM     31  H6  UNL     1      -2.339   5.644  23.237  1.00  0.00     0.210 HD
ENDBRANCH  27  30
ENDBRANCH  23  27
ENDBRANCH  22  23
ENDBRANCH   1  22
TORSDOF 6
ENDMDL
MODEL 2
REMARK VINA RESULT: -7.378589315      1.734      2.021
REMARK  6 active torsions:
REMARK  status: ('A' for Active; 'I' for Inactive)
REMARK    1  A    between atoms: C2_2  and  O1_3 
REMARK    2  A    between atoms: O1_3  and  C3_4 
REMARK    3  A    between atoms: C3_4  and  C4_5 
REMARK    4  A    between atoms: C3_4  and  C22_27 
REMARK    5  A    between atoms: C4_5  and  C5_6 
REMARK    6  A    between atoms: C22_27  and  O6_30 
ROOT
HETATM    1  C5  UNL     1       1.745   7.568  20.086  1.00  0.00    -0.006 C 
HETATM    2  C6  UNL     1       2.647   7.404  21.343  1.00  0.00     0.017 C 
HETATM    3  C7  UNL     1       3.512   6.574  20.502  1.00  0.00    -0.011 C 
HETATM    4  C8  UNL     1       4.521   7.469  19.771  1.00  0.00     0.018 C 
HETATM    5  C9  UNL     1       2.331   6.309  19.608  1.00  0.00     0.000 C 
HETATM    6  C10 UNL     1       1.676   5.021  19.661  1.00  0.00     0.006 C 
HETATM    7  C11 UNL     1       1.251   4.349  20.893  1.00  0.00     0.005 C 
HETATM    8  C12 UNL     1       2.037   3.120  21.291  1.00  0.00    -0.012 C 
HETATM    9  C13 UNL     1       1.163   2.313  22.263  1.00  0.00     0.010 C 
HETATM   10  C14 UNL     1       3.369   3.303  21.915  1.00  0.00     0.022 C 
HETATM   11  C15 UNL     1       4.376   2.677  20.986  1.00  0.00     0.013 C 
HETATM   12  C16 UNL     1       5.786   3.021  21.126  1.00  0.00     0.069 C 
HETATM   13  C17 UNL     1       6.322   4.359  21.168  1.00  0.00     0.172 C 
HETATM   14  C18 UNL     1       7.602   4.503  20.326  1.00  0.00     0.080 C 
HETATM   15  O2  UNL     1       6.785   4.606  22.526  1.00  0.00    -0.260 OA
HETATM   16  C19 UNL     1       5.866   4.702  23.564  1.00  0.00     0.409 C 
HETATM   17  O3  UNL     1       6.302   4.607  24.747  1.00  0.00    -0.229 OA
HETATM   18  O4  UNL     1       4.487   4.899  23.410  1.00  0.00    -0.290 OA
HETATM   19  C20 UNL     1       3.685   4.758  22.231  1.00  0.00     0.168 C 
HETATM   20  C21 UNL     1       4.211   5.354  20.992  1.00  0.00     0.163 C 
HETATM   21  O5  UNL     1       5.590   5.470  20.927  1.00  0.00    -0.346 OA
ENDROOT
BRANCH   1  22
HETATM   22  C4  UNL     1       0.324   7.748  20.368  1.00  0.00     0.040 C 
BRANCH  22  23
HETATM   23  C3  UNL     1      -0.056   8.125  21.776  1.00  0.00     0.155 C 
BRANCH  23  24
HETATM   24  O1  UNL     1      -0.834   9.310  21.751  1.00  0.00    -0.383 OA
BRANCH  24  25
HETATM   25  C2  UNL     1      -0.123  10.421  21.419  1.00  0.00     0.163 C 
HETATM   26  C1  UNL     1      -0.993  11.582  21.067  1.00  0.00     0.033 C 
ENDBRANCH  24  25
ENDBRANCH  23  24
BRANCH  23  27
HETATM   27  C22 UNL     1      -0.819   7.083  22.534  1.00  0.00     0.076 C 
HETATM   28  C23 UNL     1      -1.866   7.758  23.421  1.00  0.00     0.048 C 
HETATM   29  C24 UNL     1      -1.629   6.224  21.549  1.00  0.00     0.048 C 
BRANCH  27  30
HETATM   30  O6  UNL     1      -0.102   6.222  23.302  1.00  0.00    -0.388 OA
ATOM     31  H6  UNL     1      -0.551   5.449  23.625  1.00  0.00     0.210 HD
ENDBRANCH  27  30
ENDBRANCH  23  27
ENDBRANCH  22  23
ENDBRANCH   1  22
TORSDOF 6
ENDMDL
MODEL 3
REMARK VINA RESULT: -7.029468271      1.014      1.146
REMARK  6 active torsions:
REMARK  status: ('A' for Active; 'I' for Inactive)
REMARK    1  A    between atoms: C2_2  and  O1_3 
REMARK    2  A    between atoms: O1_3  and  C3_4 
REMARK    3  A    between atoms: C3_4  and  C4_5 
REMARK    4  A    between atoms: C3_4  and  C22_27 
REMARK    5  A    between atoms: C4_5  and  C5_6 
REMARK    6  A    between atoms: C22_27  and  O6_30 
ROOT
HETATM    1  C5  UNL     1       2.507   7.696  20.676  1.00  0.00    -0.006 C 
HETATM    2  C6  UNL     1       3.113   6.744  21.745  1.00  0.00     0.017 C 
HETATM    3  C7  UNL     1       4.104   6.381  20.730  1.00  0.00    -0.011 C 
HETATM    4  C8  UNL     1       5.281   7.364  20.793  1.00  0.00     0.018 C 
HETATM    5  C9  UNL     1       3.131   6.825  19.672  1.00  0.00     0.000 C 
HETATM    6  C10 UNL     1       2.429   5.830  18.891  1.00  0.00     0.006 C 
HETATM    7  C11 UNL     1       1.725   4.673  19.451  1.00  0.00     0.005 C 
HETATM    8  C12 UNL     1       2.358   3.322  19.207  1.00  0.00    -0.012 C 
HETATM    9  C13 UNL     1       1.266   2.260  19.410  1.00  0.00     0.010 C 
HETATM   10  C14 UNL     1       3.533   2.932  20.024  1.00  0.00     0.022 C 
HETATM   11  C15 UNL     1       4.689   2.765  19.073  1.00  0.00     0.013 C 
HETATM   12  C16 UNL     1       6.049   2.760  19.597  1.00  0.00     0.069 C 
HETATM   13  C17 UNL     1       6.617   3.762  20.464  1.00  0.00     0.172 C 
HETATM   14  C18 UNL     1       8.052   4.143  20.059  1.00  0.00     0.080 C 
HETATM   15  O2  UNL     1       6.789   3.161  21.780  1.00  0.00    -0.260 OA
HETATM   16  C19 UNL     1       5.676   2.819  22.535  1.00  0.00     0.409 C 
HETATM   17  O3  UNL     1       5.845   2.033  23.512  1.00  0.00    -0.229 OA
HETATM   18  O4  UNL     1       4.369   3.274  22.308  1.00  0.00    -0.290 OA
HETATM   19  C20 UNL     1       3.833   3.918  21.145  1.00  0.00     0.168 C 
HETATM   20  C21 UNL     1       4.634   5.001  20.553  1.00  0.00     0.163 C 
HETATM   21  O5  UNL     1       5.998   4.923  20.779  1.00  0.00    -0.346 OA
ENDROOT
BRANCH   1  22
HETATM   22  C4  UNL     1       1.067   7.909  20.786  1.00  0.00     0.040 C 
BRANCH  22  23
HETATM   23  C3  UNL     1       0.478   7.924  22.172  1.00  0.00     0.155 C 
BRANCH  23  24
HETATM   24  O1  UNL     1      -0.065   9.207  22.438  1.00  0.00    -0.383 OA
BRANCH  24  25
HETATM   25  C2  UNL     1       0.128  10.100  21.431  1.00  0.00     0.163 C 
HETATM   26  C1  UNL     1      -0.929  11.153  21.380  1.00  0.00     0.033 C 
ENDBRANCH  24  25
ENDBRANCH  23  24
BRANCH  23  27
HETATM   27  C22 UNL     1      -0.589   6.905  22.426  1.00  0.00     0.076 C 
HETATM   28  C23 UNL     1      -1.788   7.573  23.101  1.00  0.00     0.048 C 
HETATM   29  C24 UNL     1      -1.130   6.385  21.084  1.00  0.00     0.048 C 
BRANCH  27  30
HETATM   30  O6  UNL     1      -0.245   5.812  23.157  1.00  0.00    -0.388 OA
ATOM     31  H6  UNL     1       0.677   5.581  23.187  1.00  0.00     0.210 HD
ENDBRANCH  27  30
ENDBRANCH  23  27
ENDBRANCH  22  23
ENDBRANCH   1  22
TORSDOF 6
ENDMDL
MODEL 4
REMARK VINA RESULT: -6.909092173      1.728      2.117
REMARK  6 active torsions:
REMARK  status: ('A' for Active; 'I' for Inactive)
REMARK    1  A    between atoms: C2_2  and  O1_3 
REMARK    2  A    between atoms: O1_3  and  C3_4 
REMARK    3  A    between atoms: C3_4  and  C4_5 
REMARK    4  A    between atoms: C3_4  and  C22_27 
REMARK    5  A    between atoms: C4_5  and  C5_6 
REMARK    6  A    between atoms: C22_27  and  O6_30 
ROOT
HETATM    1  C5  UNL     1       3.354   7.162  20.343  1.00  0.00    -0.006 C 
HETATM    2  C6  UNL     1       3.876   6.600  21.696  1.00  0.00     0.017 C 
HETATM    3  C7  UNL     1       5.168   6.437  21.025  1.00  0.00    -0.011 C 
HETATM    4  C8  UNL     1       5.970   7.740  21.142  1.00  0.00     0.018 C 
HETATM    5  C9  UNL     1       4.441   6.406  19.708  1.00  0.00     0.000 C 
HETATM    6  C10 UNL     1       4.278   5.146  19.017  1.00  0.00     0.006 C 
HETATM    7  C11 UNL     1       3.788   3.911  19.636  1.00  0.00     0.005 C 
HETATM    8  C12 UNL     1       4.805   2.809  19.828  1.00  0.00    -0.012 C 
HETATM    9  C13 UNL     1       4.029   1.494  20.001  1.00  0.00     0.010 C 
HETATM   10  C14 UNL     1       5.769   2.923  20.948  1.00  0.00     0.022 C 
HETATM   11  C15 UNL     1       7.143   3.004  20.335  1.00  0.00     0.013 C 
HETATM   12  C16 UNL     1       8.255   3.498  21.138  1.00  0.00     0.069 C 
HETATM   13  C17 UNL     1       8.269   4.734  21.880  1.00  0.00     0.172 C 
HETATM   14  C18 UNL     1       9.600   5.490  21.733  1.00  0.00     0.080 C 
HETATM   15  O2  UNL     1       8.228   4.399  23.297  1.00  0.00    -0.260 OA
HETATM   16  C19 UNL     1       7.086   3.826  23.840  1.00  0.00     0.409 C 
HETATM   17  O3  UNL     1       7.186   3.271  24.973  1.00  0.00    -0.229 OA
HETATM   18  O4  UNL     1       5.820   3.812  23.237  1.00  0.00    -0.290 OA
HETATM   19  C20 UNL     1       5.471   4.092  21.876  1.00  0.00     0.168 C 
HETATM   20  C21 UNL     1       6.079   5.284  21.264  1.00  0.00     0.163 C 
HETATM   21  O5  UNL     1       7.297   5.671  21.798  1.00  0.00    -0.346 OA
ENDROOT
BRANCH   1  22
HETATM   22  C4  UNL     1       1.937   6.921  20.083  1.00  0.00     0.040 C 
BRANCH  22  23
HETATM   23  C3  UNL     1       0.966   7.282  21.176  1.00  0.00     0.155 C 
BRANCH  23  24
HETATM   24  O1  UNL     1       0.091   8.297  20.713  1.00  0.00    -0.383 OA
BRANCH  24  25
HETATM   25  C2  UNL     1       0.435   9.545  21.129  1.00  0.00     0.163 C 
HETATM   26  C1  UNL     1       0.061   9.804  22.551  1.00  0.00     0.033 C 
ENDBRANCH  24  25
ENDBRANCH  23  24
BRANCH  23  27
HETATM   27  C22 UNL     1       0.133   6.149  21.692  1.00  0.00     0.076 C 
HETATM   28  C23 UNL     1      -1.323   6.350  21.271  1.00  0.00     0.048 C 
HETATM   29  C24 UNL     1       0.567   4.842  21.009  1.00  0.00     0.048 C 
BRANCH  27  30
HETATM   30  O6  UNL     1       0.160   5.916  23.031  1.00  0.00    -0.388 OA
ATOM     31  H6  UNL     1       0.579   5.115  23.325  1.00  0.00     0.210 HD
ENDBRANCH  27  30
ENDBRANCH  23  27
ENDBRANCH  22  23
ENDBRANCH   1  22
TORSDOF 6
ENDMDL
MODEL 5
REMARK VINA RESULT: -6.820067954      1.484      1.815
REMARK  6 active torsions:
REMARK  status: ('A' for Active; 'I' for Inactive)
REMARK    1  A    between atoms: C2_2  and  O1_3 
REMARK    2  A    between atoms: O1_3  and  C3_4 
REMARK    3  A    between atoms: C3_4  and  C4_5 
REMARK    4  A    between atoms: C3_4  and  C22_27 
REMARK    5  A    between atoms: C4_5  and  C5_6 
REMARK    6  A    between atoms: C22_27  and  O6_30 
ROOT
HETATM    1  C5  UNL     1       3.156   7.430  20.546  1.00  0.00    -0.006 C 
HETATM    2  C6  UNL     1       3.889   6.284  21.300  1.00  0.00     0.017 C 
HETATM    3  C7  UNL     1       5.083   6.679  20.549  1.00  0.00    -0.011 C 
HETATM    4  C8  UNL     1       5.820   7.787  21.313  1.00  0.00     0.018 C 
HETATM    5  C9  UNL     1       4.186   7.291  19.509  1.00  0.00     0.000 C 
HETATM    6  C10 UNL     1       4.000   6.614  18.245  1.00  0.00     0.006 C 
HETATM    7  C11 UNL     1       3.669   5.193  18.099  1.00  0.00     0.005 C 
HETATM    8  C12 UNL     1       4.762   4.303  17.553  1.00  0.00    -0.012 C 
HETATM    9  C13 UNL     1       4.092   3.028  17.019  1.00  0.00     0.010 C 
HETATM   10  C14 UNL     1       5.863   3.897  18.459  1.00  0.00     0.022 C 
HETATM   11  C15 UNL     1       7.133   4.471  17.887  1.00  0.00     0.013 C 
HETATM   12  C16 UNL     1       8.316   4.572  18.734  1.00  0.00     0.069 C 
HETATM   13  C17 UNL     1       8.362   5.183  20.039  1.00  0.00     0.172 C 
HETATM   14  C18 UNL     1       9.617   6.052  20.234  1.00  0.00     0.080 C 
HETATM   15  O2  UNL     1       8.535   4.120  21.019  1.00  0.00    -0.260 OA
HETATM   16  C19 UNL     1       7.511   3.207  21.237  1.00  0.00     0.409 C 
HETATM   17  O3  UNL     1       7.797   2.136  21.848  1.00  0.00    -0.229 OA
HETATM   18  O4  UNL     1       6.178   3.372  20.837  1.00  0.00    -0.290 OA
HETATM   19  C20 UNL     1       5.630   4.312  19.905  1.00  0.00     0.168 C 
HETATM   20  C21 UNL     1       6.082   5.708  20.022  1.00  0.00     0.163 C 
HETATM   21  O5  UNL     1       7.338   5.882  20.579  1.00  0.00    -0.346 OA
ENDROOT
BRANCH   1  22
HETATM   22  C4  UNL     1       1.732   7.201  20.314  1.00  0.00     0.040 C 
BRANCH  22  23
HETATM   23  C3  UNL     1       0.808   7.358  21.492  1.00  0.00     0.155 C 
BRANCH  23  24
HETATM   24  O1  UNL     1      -0.090   8.427  21.246  1.00  0.00    -0.383 OA
BRANCH  24  25
HETATM   25  C2  UNL     1       0.272   9.593  21.845  1.00  0.00     0.163 C 
HETATM   26  C1  UNL     1      -0.330   9.760  23.200  1.00  0.00     0.033 C 
ENDBRANCH  24  25
ENDBRANCH  23  24
BRANCH  23  27
HETATM   27  C22 UNL     1       0.004   6.145  21.843  1.00  0.00     0.076 C 
HETATM   28  C23 UNL     1      -1.468   6.390  21.506  1.00  0.00     0.048 C 
HETATM   29  C24 UNL     1       0.426   4.973  20.941  1.00  0.00     0.048 C 
BRANCH  27  30
HETATM   30  O6  UNL     1       0.078   5.697  23.124  1.00  0.00    -0.388 OA
ATOM     31  H6  UNL     1      -0.555   6.042  23.743  1.00  0.00     0.210 HD
ENDBRANCH  27  30
ENDBRANCH  23  27
ENDBRANCH  22  23
ENDBRANCH   1  22
TORSDOF 6
ENDMDL
