MODEL 1
REMARK VINA RESULT: -8.294109400      0.000      0.000
REMARK  5 active torsions:
REMARK  status: ('A' for Active; 'I' for Inactive)
REMARK    1  A    between atoms: O1_2  and  C2_3 
REMARK    2  A    between atoms: C8_11  and  C9_12 
REMARK    3  A    between atoms: C9_12  and  N1_13 
REMARK    4  A    between atoms: C12_16  and  O3_17 
REMARK    5  A    between atoms: O3_17  and  C13_18 
ROOT
HETATM    1  N1  UNL     1      21.681  10.600 -13.288  1.00  0.00    -0.371 N 
HETATM    2  C10 UNL     1      21.944  10.264 -14.621  1.00  0.00     0.065 C 
HETATM    3  C11 UNL     1      23.386  10.479 -14.997  1.00  0.00     0.076 C 
HETATM    4  C12 UNL     1      24.293  10.912 -13.906  1.00  0.00     0.128 C 
HETATM    5  C21 UNL     1      23.697  11.901 -12.933  1.00  0.00     0.052 C 
HETATM    6  C22 UNL     1      22.202  11.886 -12.874  1.00  0.00     0.129 C 
ENDROOT
BRANCH   1   7
HETATM    7  C9  UNL     1      20.504  10.210 -12.651  1.00  0.00     0.095 C 
BRANCH   7   8
HETATM    8  C8  UNL     1      20.551   9.966 -11.162  1.00  0.00     0.167 C 
HETATM    9  O2  UNL     1      20.854   8.574 -10.906  1.00  0.00    -0.340 OA
HETATM   10  C5  UNL     1      20.947   8.178  -9.541  1.00  0.00     0.079 A 
HETATM   11  C4  UNL     1      19.917   8.615  -8.744  1.00  0.00    -0.022 A 
HETATM   12  C6  UNL     1      21.954   7.434  -9.020  1.00  0.00     0.082 A 
HETATM   13  C3  UNL     1      19.897   8.309  -7.410  1.00  0.00     0.049 A 
HETATM   14  C24 UNL     1      18.823   9.361  -9.364  1.00  0.00     0.044 C 
HETATM   15  C2  UNL     1      20.914   7.550  -6.848  1.00  0.00     0.107 A 
HETATM   16  C7  UNL     1      21.946   7.113  -7.668  1.00  0.00     0.152 A 
HETATM   17  F1  UNL     1      22.939   6.381  -7.147  1.00  0.00    -0.203 F 
HETATM   18  C23 UNL     1      19.304  10.281 -10.433  1.00  0.00     0.042 C 
BRANCH  15  19
HETATM   19  O1  UNL     1      20.894   7.240  -5.489  1.00  0.00    -0.353 OA
HETATM   20  C1  UNL     1      20.160   6.112  -5.056  1.00  0.00     0.210 C 
ENDBRANCH  15  19
ENDBRANCH   7   8
ENDBRANCH   1   7
BRANCH   4  21
HETATM   21  O3  UNL     1      25.398  11.551 -14.527  1.00  0.00    -0.380 OA
BRANCH  21  22
HETATM   22  C13 UNL     1      26.612  11.137 -14.041  1.00  0.00     0.122 C 
HETATM   23  C14 UNL     1      27.598  11.238 -15.201  1.00  0.00     0.033 C 
HETATM   24  C15 UNL     1      28.090   9.877 -15.521  1.00  0.00     0.014 C 
HETATM   25  C16 UNL     1      27.241   8.921 -14.771  1.00  0.00    -0.009 C 
HETATM   26  C17 UNL     1      26.321   8.115 -15.666  1.00  0.00     0.187 C 
HETATM   27  C19 UNL     1      28.124   7.821 -14.196  1.00  0.00     0.095 C 
HETATM   28  C20 UNL     1      26.513   9.671 -13.714  1.00  0.00     0.044 C 
HETATM   29  O4  UNL     1      27.158   7.102 -16.172  1.00  0.00    -0.339 OA
HETATM   30  C18 UNL     1      28.288   6.959 -15.390  1.00  0.00     0.112 C 
HETATM   31  N2  UNL     1      29.294   6.211 -15.662  1.00  0.00    -0.384 N 
ATOM     32  H22 UNL     1      29.407   5.618 -16.484  1.00  0.00     0.157 HD
ATOM     33  H21 UNL     1      30.129   6.107 -15.084  1.00  0.00     0.157 HD
ENDBRANCH  21  22
ENDBRANCH   4  21
TORSDOF 5
ENDMDL
MODEL 2
REMARK VINA RESULT: -7.901247833      1.197      1.695
REMARK  5 active torsions:
REMARK  status: ('A' for Active; 'I' for Inactive)
REMARK    1  A    between atoms: O1_2  and  C2_3 
REMARK    2  A    between atoms: C8_11  and  C9_12 
REMARK    3  A    between atoms: C9_12  and  N1_13 
REMARK    4  A    between atoms: C12_16  and  O3_17 
REMARK    5  A    between atoms: O3_17  and  C13_18 
ROOT
HETATM    1  N1  UNL     1      22.381  10.128 -13.657  1.00  0.00    -0.371 N 
HETATM    2  C10 UNL     1      22.429  11.390 -14.259  1.00  0.00     0.065 C 
HETATM    3  C11 UNL     1      23.669  11.587 -15.089  1.00  0.00     0.076 C 
HETATM    4  C12 UNL     1      24.574  10.418 -15.208  1.00  0.00     0.128 C 
HETATM    5  C21 UNL     1      24.730   9.598 -13.950  1.00  0.00     0.052 C 
HETATM    6  C22 UNL     1      23.599   9.734 -12.980  1.00  0.00     0.129 C 
ENDROOT
BRANCH   1   7
HETATM    7  C9  UNL     1      21.208   9.625 -13.095  1.00  0.00     0.095 C 
BRANCH   7   8
HETATM    8  C8  UNL     1      21.116   9.554 -11.590  1.00  0.00     0.167 C 
HETATM    9  O2  UNL     1      21.281   8.183 -11.156  1.00  0.00    -0.340 OA
HETATM   10  C5  UNL     1      21.231   7.944  -9.753  1.00  0.00     0.079 A 
HETATM   11  C4  UNL     1      20.181   8.546  -9.103  1.00  0.00    -0.022 A 
HETATM   12  C6  UNL     1      22.129   7.193  -9.066  1.00  0.00     0.082 A 
HETATM   13  C3  UNL     1      20.030   8.400  -7.750  1.00  0.00     0.049 A 
HETATM   14  C24 UNL     1      19.206   9.293  -9.897  1.00  0.00     0.044 C 
HETATM   15  C2  UNL     1      20.932   7.639  -7.020  1.00  0.00     0.107 A 
HETATM   16  C7  UNL     1      21.987   7.035  -7.693  1.00  0.00     0.152 A 
HETATM   17  F1  UNL     1      22.870   6.298  -7.009  1.00  0.00    -0.203 F 
HETATM   18  C23 UNL     1      19.845  10.044 -11.014  1.00  0.00     0.042 C 
BRANCH  15  19
HETATM   19  O1  UNL     1      20.779   7.492  -5.642  1.00  0.00    -0.353 OA
HETATM   20  C1  UNL     1      20.085   6.364  -5.149  1.00  0.00     0.210 C 
ENDBRANCH  15  19
ENDBRANCH   7   8
ENDBRANCH   1   7
BRANCH   4  21
HETATM   21  O3  UNL     1      25.857  10.930 -15.535  1.00  0.00    -0.380 OA
BRANCH  21  22
HETATM   22  C13 UNL     1      26.338  10.471 -16.735  1.00  0.00     0.122 C 
HETATM   23  C14 UNL     1      25.439   9.306 -17.140  1.00  0.00     0.033 C 
HETATM   24  C15 UNL     1      26.257   8.070 -17.177  1.00  0.00     0.014 C 
HETATM   25  C16 UNL     1      27.562   8.395 -16.554  1.00  0.00    -0.009 C 
HETATM   26  C17 UNL     1      27.758   7.732 -15.205  1.00  0.00     0.187 C 
HETATM   27  C19 UNL     1      28.673   7.740 -17.364  1.00  0.00     0.095 C 
HETATM   28  C20 UNL     1      27.699   9.874 -16.499  1.00  0.00     0.044 C 
HETATM   29  O4  UNL     1      28.149   6.419 -15.537  1.00  0.00    -0.339 OA
HETATM   30  C18 UNL     1      28.605   6.356 -16.839  1.00  0.00     0.112 C 
HETATM   31  N2  UNL     1      28.911   5.282 -17.471  1.00  0.00    -0.384 N 
ATOM     32  H22 UNL     1      28.865   4.329 -17.110  1.00  0.00     0.157 HD
ATOM     33  H21 UNL     1      29.248   5.236 -18.433  1.00  0.00     0.157 HD
ENDBRANCH  21  22
ENDBRANCH   4  21
TORSDOF 5
ENDMDL
MODEL 3
REMARK VINA RESULT: -7.712136270      1.206      1.713
REMARK  5 active torsions:
REMARK  status: ('A' for Active; 'I' for Inactive)
REMARK    1  A    between atoms: O1_2  and  C2_3 
REMARK    2  A    between atoms: C8_11  and  C9_12 
REMARK    3  A    between atoms: C9_12  and  N1_13 
REMARK    4  A    between atoms: C12_16  and  O3_17 
REMARK    5  A    between atoms: O3_17  and  C13_18 
ROOT
HETATM    1  N1  UNL     1      21.266  10.139 -12.648  1.00  0.00    -0.371 N 
HETATM    2  C10 UNL     1      21.365   9.847 -14.013  1.00  0.00     0.065 C 
HETATM    3  C11 UNL     1      22.734  10.137 -14.568  1.00  0.00     0.076 C 
HETATM    4  C12 UNL     1      23.757  10.587 -13.593  1.00  0.00     0.128 C 
HETATM    5  C21 UNL     1      23.253  11.525 -12.522  1.00  0.00     0.052 C 
HETATM    6  C22 UNL     1      21.781  11.438 -12.268  1.00  0.00     0.129 C 
ENDROOT
BRANCH   1   7
HETATM    7  C9  UNL     1      20.202   9.680 -11.873  1.00  0.00     0.095 C 
BRANCH   7   8
HETATM    8  C8  UNL     1      20.489   8.643 -10.814  1.00  0.00     0.167 C 
HETATM    9  O2  UNL     1      20.373   9.243  -9.501  1.00  0.00    -0.340 OA
HETATM   10  C5  UNL     1      20.604   8.390  -8.385  1.00  0.00     0.079 A 
HETATM   11  C4  UNL     1      21.733   7.613  -8.477  1.00  0.00    -0.022 A 
HETATM   12  C6  UNL     1      19.798   8.310  -7.296  1.00  0.00     0.082 A 
HETATM   13  C3  UNL     1      22.059   6.744  -7.471  1.00  0.00     0.049 A 
HETATM   14  C24 UNL     1      22.602   7.781  -9.641  1.00  0.00     0.044 C 
HETATM   15  C2  UNL     1      21.255   6.639  -6.345  1.00  0.00     0.107 A 
HETATM   16  C7  UNL     1      20.118   7.434  -6.266  1.00  0.00     0.152 A 
HETATM   17  F1  UNL     1      19.326   7.348  -5.190  1.00  0.00    -0.203 F 
HETATM   18  C23 UNL     1      21.827   8.019 -10.892  1.00  0.00     0.042 C 
BRANCH  15  19
HETATM   19  O1  UNL     1      21.586   5.753  -5.321  1.00  0.00    -0.353 OA
HETATM   20  C1  UNL     1      20.575   4.928  -4.778  1.00  0.00     0.210 C 
ENDBRANCH  15  19
ENDBRANCH   7   8
ENDBRANCH   1   7
BRANCH   4  21
HETATM   21  O3  UNL     1      24.742  11.291 -14.336  1.00  0.00    -0.380 OA
BRANCH  21  22
HETATM   22  C13 UNL     1      26.016  11.104 -13.865  1.00  0.00     0.122 C 
HETATM   23  C14 UNL     1      26.953  11.398 -15.033  1.00  0.00     0.033 C 
HETATM   24  C15 UNL     1      27.686  10.156 -15.375  1.00  0.00     0.014 C 
HETATM   25  C16 UNL     1      27.037   9.051 -14.629  1.00  0.00    -0.009 C 
HETATM   26  C17 UNL     1      26.271   8.098 -15.526  1.00  0.00     0.187 C 
HETATM   27  C19 UNL     1      28.115   8.127 -14.077  1.00  0.00     0.095 C 
HETATM   28  C20 UNL     1      26.194   9.641 -13.557  1.00  0.00     0.044 C 
HETATM   29  O4  UNL     1      27.276   7.263 -16.054  1.00  0.00    -0.339 OA
HETATM   30  C18 UNL     1      28.422   7.324 -15.283  1.00  0.00     0.112 C 
HETATM   31  N2  UNL     1      29.546   6.779 -15.574  1.00  0.00    -0.384 N 
ATOM     32  H22 UNL     1      29.757   6.225 -16.405  1.00  0.00     0.157 HD
ATOM     33  H21 UNL     1      30.392   6.824 -15.005  1.00  0.00     0.157 HD
ENDBRANCH  21  22
ENDBRANCH   4  21
TORSDOF 5
ENDMDL
MODEL 4
REMARK VINA RESULT: -7.608069163      0.851      1.242
REMARK  5 active torsions:
REMARK  status: ('A' for Active; 'I' for Inactive)
REMARK    1  A    between atoms: O1_2  and  C2_3 
REMARK    2  A    between atoms: C8_11  and  C9_12 
REMARK    3  A    between atoms: C9_12  and  N1_13 
REMARK    4  A    between atoms: C12_16  and  O3_17 
REMARK    5  A    between atoms: O3_17  and  C13_18 
ROOT
HETATM    1  N1  UNL     1      21.248  10.681 -13.034  1.00  0.00    -0.371 N 
HETATM    2  C10 UNL     1      22.464  11.038 -12.442  1.00  0.00     0.065 C 
HETATM    3  C11 UNL     1      23.555  11.265 -13.454  1.00  0.00     0.076 C 
HETATM    4  C12 UNL     1      23.160  11.166 -14.880  1.00  0.00     0.128 C 
HETATM    5  C21 UNL     1      22.167  10.073 -15.195  1.00  0.00     0.052 C 
HETATM    6  C22 UNL     1      21.344   9.631 -14.026  1.00  0.00     0.129 C 
ENDROOT
BRANCH   1   7
HETATM    7  C9  UNL     1      20.048  10.710 -12.325  1.00  0.00     0.095 C 
BRANCH   7   8
HETATM    8  C8  UNL     1      20.078  10.341 -10.862  1.00  0.00     0.167 C 
HETATM    9  O2  UNL     1      20.548   8.979 -10.713  1.00  0.00    -0.340 OA
HETATM   10  C5  UNL     1      20.646   8.477  -9.385  1.00  0.00     0.079 A 
HETATM   11  C4  UNL     1      19.545   8.710  -8.597  1.00  0.00    -0.022 A 
HETATM   12  C6  UNL     1      21.724   7.819  -8.887  1.00  0.00     0.082 A 
HETATM   13  C3  UNL     1      19.522   8.284  -7.296  1.00  0.00     0.049 A 
HETATM   14  C24 UNL     1      18.385   9.367  -9.198  1.00  0.00     0.044 C 
HETATM   15  C2  UNL     1      20.608   7.610  -6.758  1.00  0.00     0.107 A 
HETATM   16  C7  UNL     1      21.714   7.380  -7.568  1.00  0.00     0.152 A 
HETATM   17  F1  UNL     1      22.774   6.733  -7.070  1.00  0.00    -0.203 F 
HETATM   18  C23 UNL     1      18.778  10.432 -10.163  1.00  0.00     0.042 C 
BRANCH  15  19
HETATM   19  O1  UNL     1      20.585   7.178  -5.433  1.00  0.00    -0.353 OA
HETATM   20  C1  UNL     1      20.181   5.853  -5.153  1.00  0.00     0.210 C 
ENDBRANCH  15  19
ENDBRANCH   7   8
ENDBRANCH   1   7
BRANCH   4  21
HETATM   21  O3  UNL     1      24.344  10.877 -15.609  1.00  0.00    -0.380 OA
BRANCH  21  22
HETATM   22  C13 UNL     1      25.427  10.616 -14.809  1.00  0.00     0.122 C 
HETATM   23  C14 UNL     1      26.640  11.211 -15.519  1.00  0.00     0.033 C 
HETATM   24  C15 UNL     1      27.565  10.108 -15.875  1.00  0.00     0.014 C 
HETATM   25  C16 UNL     1      26.837   8.838 -15.641  1.00  0.00    -0.009 C 
HETATM   26  C17 UNL     1      26.483   8.112 -16.924  1.00  0.00     0.187 C 
HETATM   27  C19 UNL     1      27.784   7.838 -14.992  1.00  0.00     0.095 C 
HETATM   28  C20 UNL     1      25.652   9.128 -14.792  1.00  0.00     0.044 C 
HETATM   29  O4  UNL     1      27.681   7.457 -17.273  1.00  0.00    -0.339 OA
HETATM   30  C18 UNL     1      28.525   7.360 -16.183  1.00  0.00     0.112 C 
HETATM   31  N2  UNL     1      29.734   6.932 -16.211  1.00  0.00    -0.384 N 
ATOM     32  H22 UNL     1      30.244   6.603 -17.031  1.00  0.00     0.157 HD
ATOM     33  H21 UNL     1      30.357   6.861 -15.406  1.00  0.00     0.157 HD
ENDBRANCH  21  22
ENDBRANCH   4  21
TORSDOF 5
ENDMDL
MODEL 5
REMARK VINA RESULT: -7.543373477      2.853      3.830
REMARK  5 active torsions:
REMARK  status: ('A' for Active; 'I' for Inactive)
REMARK    1  A    between atoms: O1_2  and  C2_3 
REMARK    2  A    between atoms: C8_11  and  C9_12 
REMARK    3  A    between atoms: C9_12  and  N1_13 
REMARK    4  A    between atoms: C12_16  and  O3_17 
REMARK    5  A    between atoms: O3_17  and  C13_18 
ROOT
HETATM    1  N1  UNL     1      22.493  11.326 -12.230  1.00  0.00    -0.371 N 
HETATM    2  C10 UNL     1      22.201  10.560 -13.364  1.00  0.00     0.065 C 
HETATM    3  C11 UNL     1      23.408  10.336 -14.236  1.00  0.00     0.076 C 
HETATM    4  C12 UNL     1      24.695  10.866 -13.726  1.00  0.00     0.128 C 
HETATM    5  C21 UNL     1      24.607  12.205 -13.032  1.00  0.00     0.052 C 
HETATM    6  C22 UNL     1      23.250  12.532 -12.492  1.00  0.00     0.129 C 
ENDROOT
BRANCH   1   7
HETATM    7  C9  UNL     1      21.613  11.408 -11.152  1.00  0.00     0.095 C 
BRANCH   7   8
HETATM    8  C8  UNL     1      20.381  10.535 -11.172  1.00  0.00     0.167 C 
HETATM    9  O2  UNL     1      19.256  11.266 -10.629  1.00  0.00    -0.340 OA
HETATM   10  C5  UNL     1      18.008  10.584 -10.588  1.00  0.00     0.079 A 
HETATM   11  C4  UNL     1      18.064   9.310 -10.077  1.00  0.00    -0.022 A 
HETATM   12  C6  UNL     1      16.829  11.106 -11.013  1.00  0.00     0.082 A 
HETATM   13  C3  UNL     1      16.930   8.547  -9.995  1.00  0.00     0.049 A 
HETATM   14  C24 UNL     1      19.345   8.816  -9.575  1.00  0.00     0.044 C 
HETATM   15  C2  UNL     1      15.710   9.052 -10.422  1.00  0.00     0.107 A 
HETATM   16  C7  UNL     1      15.670  10.344 -10.933  1.00  0.00     0.152 A 
HETATM   17  F1  UNL     1      14.505  10.851 -11.354  1.00  0.00    -0.203 F 
HETATM   18  C23 UNL     1      20.492   9.274 -10.409  1.00  0.00     0.042 C 
BRANCH  15  19
HETATM   19  O1  UNL     1      14.556   8.275 -10.340  1.00  0.00    -0.353 OA
HETATM   20  C1  UNL     1      13.672   8.477  -9.255  1.00  0.00     0.210 C 
ENDBRANCH  15  19
ENDBRANCH   7   8
ENDBRANCH   1   7
BRANCH   4  21
HETATM   21  O3  UNL     1      25.539  11.036 -14.855  1.00  0.00    -0.380 OA
BRANCH  21  22
HETATM   22  C13 UNL     1      26.847  10.702 -14.613  1.00  0.00     0.122 C 
HETATM   23  C14 UNL     1      27.568  10.787 -15.956  1.00  0.00     0.033 C 
HETATM   24  C15 UNL     1      28.058   9.434 -16.314  1.00  0.00     0.014 C 
HETATM   25  C16 UNL     1      27.433   8.481 -15.364  1.00  0.00    -0.009 C 
HETATM   26  C17 UNL     1      26.394   7.590 -16.015  1.00  0.00     0.187 C 
HETATM   27  C19 UNL     1      28.473   7.454 -14.940  1.00  0.00     0.095 C 
HETATM   28  C20 UNL     1      26.897   9.253 -14.212  1.00  0.00     0.044 C 
HETATM   29  O4  UNL     1      27.164   6.590 -16.642  1.00  0.00    -0.339 OA
HETATM   30  C18 UNL     1      28.436   6.539 -16.105  1.00  0.00     0.112 C 
HETATM   31  N2  UNL     1      29.405   5.824 -16.547  1.00  0.00    -0.384 N 
ATOM     32  H22 UNL     1      29.378   5.193 -17.350  1.00  0.00     0.157 HD
ATOM     33  H21 UNL     1      30.344   5.786 -16.151  1.00  0.00     0.157 HD
ENDBRANCH  21  22
ENDBRANCH   4  21
TORSDOF 5
ENDMDL
