MODEL 1
REMARK VINA RESULT: -7.367515851      0.000      0.000
REMARK  7 active torsions:
REMARK  status: ('A' for Active; 'I' for Inactive)
REMARK    1  A    between atoms: C6_6  and  C7_7 
REMARK    2  A    between atoms: C6_6  and  S1_17 
REMARK    3  A    between atoms: C7_7  and  O2_12 
REMARK    4  A    between atoms: N1_8  and  O1_10 
REMARK    5  A    between atoms: O2_12  and  C8_13 
REMARK    6  A    between atoms: C8_13  and  C9_14 
REMARK    7  A    between atoms: S1_17  and  C12_20 
ROOT
HETATM    1  C1  UNL     1      21.989  15.935 -10.428  1.00  0.00     0.015 C 
HETATM    2  C2  UNL     1      20.469  15.739 -10.545  1.00  0.00    -0.046 C 
HETATM    3  C3  UNL     1      19.810  17.091 -10.354  1.00  0.00     0.015 C 
HETATM    4  C4  UNL     1      20.047  14.819  -9.456  1.00  0.00     0.011 C 
HETATM    5  C5  UNL     1      19.609  13.566 -10.140  1.00  0.00     0.035 C 
HETATM    6  C6  UNL     1      19.917  13.674 -11.629  1.00  0.00     0.135 C 
HETATM    7  C21 UNL     1      20.122  15.125 -11.872  1.00  0.00     0.043 C 
ENDROOT
BRANCH   6   8
HETATM    8  C7  UNL     1      21.193  12.883 -11.837  1.00  0.00     0.162 C 
HETATM    9  N1  UNL     1      21.996  13.024 -12.791  1.00  0.00    -0.249 N 
ATOM     10  H1  UNL     1      22.815  12.417 -12.791  1.00  0.00     0.196 HD
BRANCH   9  11
HETATM   11  O1  UNL     1      21.893  13.886 -13.807  1.00  0.00    -0.288 OA
ATOM     12  H1  UNL     1      22.518  14.556 -14.053  1.00  0.00     0.244 HD
ENDBRANCH   9  11
BRANCH   8  13
HETATM   13  O2  UNL     1      21.530  11.901 -10.904  1.00  0.00    -0.336 OA
BRANCH  13  14
HETATM   14  C8  UNL     1      22.063  10.690 -11.297  1.00  0.00     0.181 C 
BRANCH  14  15
HETATM   15  C9  UNL     1      21.767   9.498 -10.457  1.00  0.00     0.010 A 
HETATM   16  C10 UNL     1      21.102   8.342 -11.276  1.00  0.00     0.007 A 
HETATM   17  C11 UNL     1      22.413   8.175 -10.650  1.00  0.00     0.007 A 
ENDBRANCH  14  15
ENDBRANCH  13  14
ENDBRANCH   8  13
ENDBRANCH   6   8
BRANCH   6  18
HETATM   18  S1  UNL     1      18.650  12.902 -12.545  1.00  0.00     0.195 S 
HETATM   19  O3  UNL     1      17.700  13.961 -13.111  1.00  0.00    -0.221 OA
HETATM   20  O4  UNL     1      19.281  12.305 -13.813  1.00  0.00    -0.221 OA
BRANCH  18  21
HETATM   21  C12 UNL     1      17.745  11.666 -11.767  1.00  0.00     0.099 A 
HETATM   22  C13 UNL     1      18.236  10.773 -10.857  1.00  0.00     0.029 A 
HETATM   23  C14 UNL     1      17.390   9.810 -10.277  1.00  0.00     0.039 A 
HETATM   24  C15 UNL     1      16.053   9.719 -10.587  1.00  0.00     0.078 A 
HETATM   25  C16 UNL     1      15.559  10.617 -11.500  1.00  0.00     0.015 A 
HETATM   26  O5  UNL     1      15.228   8.758 -10.002  1.00  0.00    -0.350 OA
HETATM   27  C17 UNL     1      16.380  11.563 -12.073  1.00  0.00     0.146 A 
HETATM   28  C18 UNL     1      14.122  10.577 -11.882  1.00  0.00     0.046 C 
HETATM   29  F1  UNL     1      15.893  12.449 -12.975  1.00  0.00    -0.204 F 
HETATM   30  C19 UNL     1      13.295   9.756 -10.958  1.00  0.00     0.031 C 
HETATM   31  C20 UNL     1      13.964   8.459 -10.559  1.00  0.00     0.176 C 
ENDBRANCH  18  21
ENDBRANCH   6  18
TORSDOF 7
ENDMDL
MODEL 2
REMARK VINA RESULT: -7.213016810      2.596      4.343
REMARK  7 active torsions:
REMARK  status: ('A' for Active; 'I' for Inactive)
REMARK    1  A    between atoms: C6_6  and  C7_7 
REMARK    2  A    between atoms: C6_6  and  S1_17 
REMARK    3  A    between atoms: C7_7  and  O2_12 
REMARK    4  A    between atoms: N1_8  and  O1_10 
REMARK    5  A    between atoms: O2_12  and  C8_13 
REMARK    6  A    between atoms: C8_13  and  C9_14 
REMARK    7  A    between atoms: S1_17  and  C12_20 
ROOT
HETATM    1  C1  UNL     1      23.564   9.385 -12.649  1.00  0.00     0.015 C 
HETATM    2  C2  UNL     1      22.073   9.535 -12.312  1.00  0.00    -0.046 C 
HETATM    3  C3  UNL     1      21.646   8.308 -11.532  1.00  0.00     0.015 C 
HETATM    4  C4  UNL     1      21.325   9.598 -13.595  1.00  0.00     0.011 C 
HETATM    5  C5  UNL     1      20.783  10.988 -13.673  1.00  0.00     0.035 C 
HETATM    6  C6  UNL     1      21.337  11.808 -12.515  1.00  0.00     0.135 C 
HETATM    7  C21 UNL     1      21.837  10.803 -11.540  1.00  0.00     0.043 C 
ENDROOT
BRANCH   6   8
HETATM    8  C7  UNL     1      22.466  12.628 -13.105  1.00  0.00     0.162 C 
HETATM    9  N1  UNL     1      23.189  13.440 -12.477  1.00  0.00    -0.249 N 
ATOM     10  H1  UNL     1      23.912  13.917 -13.015  1.00  0.00     0.196 HD
BRANCH   9  11
HETATM   11  O1  UNL     1      23.111  13.747 -11.178  1.00  0.00    -0.288 OA
ATOM     12  H1  UNL     1      23.571  13.324 -10.463  1.00  0.00     0.244 HD
ENDBRANCH   9  11
BRANCH   8  13
HETATM   13  O2  UNL     1      22.750  12.495 -14.465  1.00  0.00    -0.336 OA
BRANCH  13  14
HETATM   14  C8  UNL     1      24.041  12.304 -14.915  1.00  0.00     0.181 C 
BRANCH  14  15
HETATM   15  C9  UNL     1      24.225  11.596 -16.210  1.00  0.00     0.010 A 
HETATM   16  C10 UNL     1      24.853  10.174 -16.029  1.00  0.00     0.007 A 
HETATM   17  C11 UNL     1      23.507  10.348 -16.576  1.00  0.00     0.007 A 
ENDBRANCH  14  15
ENDBRANCH  13  14
ENDBRANCH   8  13
ENDBRANCH   6   8
BRANCH   6  18
HETATM   18  S1  UNL     1      20.115  12.909 -11.940  1.00  0.00     0.195 S 
HETATM   19  O3  UNL     1      20.397  13.283 -10.482  1.00  0.00    -0.221 OA
HETATM   20  O4  UNL     1      20.302  14.247 -12.672  1.00  0.00    -0.221 OA
BRANCH  18  21
HETATM   21  C12 UNL     1      18.473  12.434 -12.110  1.00  0.00     0.099 A 
HETATM   22  C13 UNL     1      17.582  12.954 -13.006  1.00  0.00     0.029 A 
HETATM   23  C14 UNL     1      16.261  12.472 -13.059  1.00  0.00     0.039 A 
HETATM   24  C15 UNL     1      15.806  11.473 -12.230  1.00  0.00     0.078 A 
HETATM   25  C16 UNL     1      16.701  10.949 -11.330  1.00  0.00     0.015 A 
HETATM   26  O5  UNL     1      14.492  11.006 -12.295  1.00  0.00    -0.350 OA
HETATM   27  C17 UNL     1      17.995  11.415 -11.272  1.00  0.00     0.146 A 
HETATM   28  C18 UNL     1      16.278   9.866 -10.404  1.00  0.00     0.046 C 
HETATM   29  F1  UNL     1      18.879  10.899 -10.383  1.00  0.00    -0.204 F 
HETATM   30  C19 UNL     1      14.990   9.232 -10.795  1.00  0.00     0.031 C 
HETATM   31  C20 UNL     1      13.950  10.235 -11.244  1.00  0.00     0.176 C 
ENDBRANCH  18  21
ENDBRANCH   6  18
TORSDOF 7
ENDMDL
MODEL 3
REMARK VINA RESULT: -7.152717413      1.997      2.409
REMARK  7 active torsions:
REMARK  status: ('A' for Active; 'I' for Inactive)
REMARK    1  A    between atoms: C6_6  and  C7_7 
REMARK    2  A    between atoms: C6_6  and  S1_17 
REMARK    3  A    between atoms: C7_7  and  O2_12 
REMARK    4  A    between atoms: N1_8  and  O1_10 
REMARK    5  A    between atoms: O2_12  and  C8_13 
REMARK    6  A    between atoms: C8_13  and  C9_14 
REMARK    7  A    between atoms: S1_17  and  C12_20 
ROOT
HETATM    1  C1  UNL     1      24.698  12.602 -13.128  1.00  0.00     0.015 C 
HETATM    2  C2  UNL     1      23.604  13.587 -12.687  1.00  0.00    -0.046 C 
HETATM    3  C3  UNL     1      24.127  14.992 -12.905  1.00  0.00     0.015 C 
HETATM    4  C4  UNL     1      23.355  13.364 -11.238  1.00  0.00     0.011 C 
HETATM    5  C5  UNL     1      21.975  12.799 -11.153  1.00  0.00     0.035 C 
HETATM    6  C6  UNL     1      21.455  12.532 -12.560  1.00  0.00     0.135 C 
HETATM    7  C21 UNL     1      22.335  13.333 -13.451  1.00  0.00     0.043 C 
ENDROOT
BRANCH   6   8
HETATM    8  C7  UNL     1      21.635  11.044 -12.783  1.00  0.00     0.162 C 
HETATM    9  N1  UNL     1      21.407  10.430 -13.853  1.00  0.00    -0.249 N 
ATOM     10  H1  UNL     1      21.580   9.425 -13.847  1.00  0.00     0.196 HD
BRANCH   9  11
HETATM   11  O1  UNL     1      20.963  10.952 -15.001  1.00  0.00    -0.288 OA
ATOM     12  H1  UNL     1      21.235  10.715 -15.879  1.00  0.00     0.244 HD
ENDBRANCH   9  11
BRANCH   8  13
HETATM   13  O2  UNL     1      22.088  10.260 -11.721  1.00  0.00    -0.336 OA
BRANCH  13  14
HETATM   14  C8  UNL     1      22.221   8.891 -11.844  1.00  0.00     0.181 C 
BRANCH  14  15
HETATM   15  C9  UNL     1      21.304   8.032 -11.047  1.00  0.00     0.010 A 
HETATM   16  C10 UNL     1      22.075   7.079 -10.075  1.00  0.00     0.007 A 
HETATM   17  C11 UNL     1      21.174   8.116  -9.570  1.00  0.00     0.007 A 
ENDBRANCH  14  15
ENDBRANCH  13  14
ENDBRANCH   8  13
ENDBRANCH   6   8
BRANCH   6  18
HETATM   18  S1  UNL     1      19.749  12.885 -12.630  1.00  0.00     0.195 S 
HETATM   19  O3  UNL     1      19.494  14.315 -12.149  1.00  0.00    -0.221 OA
HETATM   20  O4  UNL     1      19.341  12.951 -14.110  1.00  0.00    -0.221 OA
BRANCH  18  21
HETATM   21  C12 UNL     1      18.681  11.803 -11.830  1.00  0.00     0.099 A 
HETATM   22  C13 UNL     1      19.034  10.901 -10.867  1.00  0.00     0.029 A 
HETATM   23  C14 UNL     1      18.062  10.074 -10.275  1.00  0.00     0.039 A 
HETATM   24  C15 UNL     1      16.734  10.127 -10.625  1.00  0.00     0.078 A 
HETATM   25  C16 UNL     1      16.377  11.034 -11.592  1.00  0.00     0.015 A 
HETATM   26  O5  UNL     1      15.783   9.300 -10.028  1.00  0.00    -0.350 OA
HETATM   27  C17 UNL     1      17.322  11.848 -12.177  1.00  0.00     0.146 A 
HETATM   28  C18 UNL     1      14.957  11.147 -12.020  1.00  0.00     0.046 C 
HETATM   29  F1  UNL     1      16.971  12.743 -13.133  1.00  0.00    -0.204 F 
HETATM   30  C19 UNL     1      14.012  10.475 -11.090  1.00  0.00     0.031 C 
HETATM   31  C20 UNL     1      14.509   9.128 -10.613  1.00  0.00     0.176 C 
ENDBRANCH  18  21
ENDBRANCH   6  18
TORSDOF 7
ENDMDL
MODEL 4
REMARK VINA RESULT: -7.082127408      2.305      3.478
REMARK  7 active torsions:
REMARK  status: ('A' for Active; 'I' for Inactive)
REMARK    1  A    between atoms: C6_6  and  C7_7 
REMARK    2  A    between atoms: C6_6  and  S1_17 
REMARK    3  A    between atoms: C7_7  and  O2_12 
REMARK    4  A    between atoms: N1_8  and  O1_10 
REMARK    5  A    between atoms: O2_12  and  C8_13 
REMARK    6  A    between atoms: C8_13  and  C9_14 
REMARK    7  A    between atoms: S1_17  and  C12_20 
ROOT
HETATM    1  C1  UNL     1      22.421   9.974 -14.213  1.00  0.00     0.015 C 
HETATM    2  C2  UNL     1      21.423  11.051 -14.667  1.00  0.00    -0.046 C 
HETATM    3  C3  UNL     1      20.973  10.706 -16.072  1.00  0.00     0.015 C 
HETATM    4  C4  UNL     1      22.140  12.354 -14.676  1.00  0.00     0.011 C 
HETATM    5  C5  UNL     1      21.518  13.158 -13.582  1.00  0.00     0.035 C 
HETATM    6  C6  UNL     1      20.537  12.283 -12.812  1.00  0.00     0.135 C 
HETATM    7  C21 UNL     1      20.268  11.129 -13.709  1.00  0.00     0.043 C 
ENDROOT
BRANCH   6   8
HETATM    8  C7  UNL     1      21.273  11.859 -11.557  1.00  0.00     0.162 C 
HETATM    9  N1  UNL     1      22.065  12.573 -10.894  1.00  0.00    -0.249 N 
ATOM     10  H1  UNL     1      22.482  12.145 -10.068  1.00  0.00     0.196 HD
BRANCH   9  11
HETATM   11  O1  UNL     1      22.420  13.835 -11.155  1.00  0.00    -0.288 OA
ATOM     12  H1  UNL     1      22.895  14.149 -11.915  1.00  0.00     0.244 HD
ENDBRANCH   9  11
BRANCH   8  13
HETATM   13  O2  UNL     1      21.077  10.565 -11.072  1.00  0.00    -0.336 OA
BRANCH  13  14
HETATM   14  C8  UNL     1      22.091   9.874 -10.440  1.00  0.00     0.181 C 
BRANCH  14  15
HETATM   15  C9  UNL     1      22.286   8.444 -10.804  1.00  0.00     0.010 A 
HETATM   16  C10 UNL     1      22.071   7.484  -9.588  1.00  0.00     0.007 A 
HETATM   17  C11 UNL     1      21.203   7.430 -10.764  1.00  0.00     0.007 A 
ENDBRANCH  14  15
ENDBRANCH  13  14
ENDBRANCH   8  13
ENDBRANCH   6   8
BRANCH   6  18
HETATM   18  S1  UNL     1      19.157  13.234 -12.331  1.00  0.00     0.195 S 
HETATM   19  O3  UNL     1      19.394  13.827 -10.939  1.00  0.00    -0.221 OA
HETATM   20  O4  UNL     1      19.110  14.483 -13.225  1.00  0.00    -0.221 OA
BRANCH  18  21
HETATM   21  C12 UNL     1      17.614  12.480 -12.387  1.00  0.00     0.099 A 
HETATM   22  C13 UNL     1      16.621  12.764 -13.281  1.00  0.00     0.029 A 
HETATM   23  C14 UNL     1      15.400  12.067 -13.234  1.00  0.00     0.039 A 
HETATM   24  C15 UNL     1      15.145  11.085 -12.306  1.00  0.00     0.078 A 
HETATM   25  C16 UNL     1      16.143  10.798 -11.408  1.00  0.00     0.015 A 
HETATM   26  O5  UNL     1      13.928  10.403 -12.273  1.00  0.00    -0.350 OA
HETATM   27  C17 UNL     1      17.342  11.475 -11.447  1.00  0.00     0.146 A 
HETATM   28  C18 UNL     1      15.938   9.746 -10.377  1.00  0.00     0.046 C 
HETATM   29  F1  UNL     1      18.327  11.193 -10.560  1.00  0.00    -0.204 F 
HETATM   30  C19 UNL     1      14.764   8.876 -10.656  1.00  0.00     0.031 C 
HETATM   31  C20 UNL     1      13.556   9.649 -11.138  1.00  0.00     0.176 C 
ENDBRANCH  18  21
ENDBRANCH   6  18
TORSDOF 7
ENDMDL
MODEL 5
REMARK VINA RESULT: -7.065630089      1.932      4.384
REMARK  7 active torsions:
REMARK  status: ('A' for Active; 'I' for Inactive)
REMARK    1  A    between atoms: C6_6  and  C7_7 
REMARK    2  A    between atoms: C6_6  and  S1_17 
REMARK    3  A    between atoms: C7_7  and  O2_12 
REMARK    4  A    between atoms: N1_8  and  O1_10 
REMARK    5  A    between atoms: O2_12  and  C8_13 
REMARK    6  A    between atoms: C8_13  and  C9_14 
REMARK    7  A    between atoms: S1_17  and  C12_20 
ROOT
HETATM    1  C1  UNL     1      23.471   9.418 -12.540  1.00  0.00     0.015 C 
HETATM    2  C2  UNL     1      21.967   9.537 -12.248  1.00  0.00    -0.046 C 
HETATM    3  C3  UNL     1      21.542   8.301 -11.481  1.00  0.00     0.015 C 
HETATM    4  C4  UNL     1      21.257   9.586 -13.553  1.00  0.00     0.011 C 
HETATM    5  C5  UNL     1      20.689  10.964 -13.648  1.00  0.00     0.035 C 
HETATM    6  C6  UNL     1      21.192  11.794 -12.473  1.00  0.00     0.135 C 
HETATM    7  C21 UNL     1      21.682  10.800 -11.484  1.00  0.00     0.043 C 
ENDROOT
BRANCH   6   8
HETATM    8  C7  UNL     1      22.321  12.638 -13.029  1.00  0.00     0.162 C 
HETATM    9  N1  UNL     1      22.334  13.199 -14.151  1.00  0.00    -0.249 N 
ATOM     10  H1  UNL     1      23.169  13.737 -14.382  1.00  0.00     0.196 HD
BRANCH   9  11
HETATM   11  O1  UNL     1      21.370  13.167 -15.077  1.00  0.00    -0.288 OA
ATOM     12  H1  UNL     1      21.484  13.129 -16.019  1.00  0.00     0.244 HD
ENDBRANCH   9  11
BRANCH   8  13
HETATM   13  O2  UNL     1      23.464  12.822 -12.249  1.00  0.00    -0.336 OA
BRANCH  13  14
HETATM   14  C8  UNL     1      24.197  13.989 -12.313  1.00  0.00     0.181 C 
BRANCH  14  15
HETATM   15  C9  UNL     1      24.001  14.991 -11.230  1.00  0.00     0.010 A 
HETATM   16  C10 UNL     1      23.562  16.388 -11.783  1.00  0.00     0.007 A 
HETATM   17  C11 UNL     1      22.689  15.607 -10.907  1.00  0.00     0.007 A 
ENDBRANCH  14  15
ENDBRANCH  13  14
ENDBRANCH   8  13
ENDBRANCH   6   8
BRANCH   6  18
HETATM   18  S1  UNL     1      19.930  12.870 -11.935  1.00  0.00     0.195 S 
HETATM   19  O3  UNL     1      20.180  13.278 -10.481  1.00  0.00    -0.221 OA
HETATM   20  O4  UNL     1      20.090  14.200 -12.688  1.00  0.00    -0.221 OA
BRANCH  18  21
HETATM   21  C12 UNL     1      18.305  12.345 -12.120  1.00  0.00     0.099 A 
HETATM   22  C13 UNL     1      17.404  12.844 -13.018  1.00  0.00     0.029 A 
HETATM   23  C14 UNL     1      16.099  12.322 -13.083  1.00  0.00     0.039 A 
HETATM   24  C15 UNL     1      15.670  11.303 -12.265  1.00  0.00     0.078 A 
HETATM   25  C16 UNL     1      16.576  10.799 -11.364  1.00  0.00     0.015 A 
HETATM   26  O5  UNL     1      14.373  10.795 -12.343  1.00  0.00    -0.350 OA
HETATM   27  C17 UNL     1      17.854  11.305 -11.294  1.00  0.00     0.146 A 
HETATM   28  C18 UNL     1      16.181   9.695 -10.449  1.00  0.00     0.046 C 
HETATM   29  F1  UNL     1      18.748  10.809 -10.404  1.00  0.00    -0.204 F 
HETATM   30  C19 UNL     1      14.916   9.025 -10.855  1.00  0.00     0.031 C 
HETATM   31  C20 UNL     1      13.848   9.998 -11.302  1.00  0.00     0.176 C 
ENDBRANCH  18  21
ENDBRANCH   6  18
TORSDOF 7
ENDMDL
