MODEL 1
REMARK VINA RESULT: -7.331704888      0.000      0.000
REMARK  5 active torsions:
REMARK  status: ('A' for Active; 'I' for Inactive)
REMARK    1  A    between atoms: C6_9  and  N2_10 
REMARK    2  A    between atoms: C11_15  and  N3_16 
REMARK    3  A    between atoms: N3_16  and  C12_18 
REMARK    4  A    between atoms: C12_18  and  C13_19 
REMARK    5  A    between atoms: C13_19  and  N4_20 
ROOT
HETATM    1  C1  UNL     1      14.518  10.316 -12.042  1.00  0.00     0.070 C 
HETATM    2  C2  UNL     1      15.148   9.330 -11.128  1.00  0.00     0.033 A 
HETATM    3  C3  UNL     1      14.537   8.183 -10.600  1.00  0.00     0.037 A 
HETATM    4 BR1  UNL     1      12.734   7.678 -10.972  1.00  0.00    -0.049 Br
HETATM    5  C4  UNL     1      15.425   7.517  -9.802  1.00  0.00     0.070 A 
HETATM    6  C5  UNL     1      16.596   8.261  -9.838  1.00  0.00     0.116 A 
HETATM    7  N1  UNL     1      17.770   8.051  -9.233  1.00  0.00    -0.326 N 
ATOM      8  H1  UNL     1      17.885   7.231  -8.637  1.00  0.00     0.169 HD
HETATM    9  C6  UNL     1      18.830   8.920  -9.399  1.00  0.00     0.135 A 
HETATM   10  C11 UNL     1      18.683  10.018 -10.199  1.00  0.00     0.111 A 
HETATM   11  C19 UNL     1      17.435  10.207 -10.816  1.00  0.00     0.152 A 
HETATM   12  C20 UNL     1      17.219  11.380 -11.637  1.00  0.00     0.120 C 
HETATM   13  N5  UNL     1      17.053  12.358 -12.285  1.00  0.00    -0.190 NA
HETATM   14  N6  UNL     1      16.405   9.342 -10.640  1.00  0.00    -0.289 N 
ENDROOT
BRANCH  10  15
HETATM   15  N3  UNL     1      19.697  10.939 -10.458  1.00  0.00    -0.383 N 
ATOM     16  H3  UNL     1      19.834  11.634  -9.723  1.00  0.00     0.159 HD
BRANCH  15  17
HETATM   17  C12 UNL     1      20.568  11.077 -11.564  1.00  0.00     0.150 C 
BRANCH  17  18
HETATM   18  C13 UNL     1      20.791  12.412 -12.162  1.00  0.00     0.292 C 
BRANCH  18  19
HETATM   19  N4  UNL     1      20.899  13.378 -11.077  1.00  0.00     0.090 N 
HETATM   20  C14 UNL     1      19.786  14.261 -10.956  1.00  0.00     0.272 C 
HETATM   21  C15 UNL     1      20.042  15.098  -9.694  1.00  0.00     0.030 C 
HETATM   22  C16 UNL     1      21.163  16.079 -10.031  1.00  0.00     0.003 C 
HETATM   23  C17 UNL     1      22.081  15.526 -11.112  1.00  0.00     0.030 C 
HETATM   24  C18 UNL     1      22.179  14.002 -11.010  1.00  0.00     0.272 C 
ENDBRANCH  18  19
ENDBRANCH  17  18
ENDBRANCH  15  17
ENDBRANCH  10  15
BRANCH   9  25
HETATM   25  N2  UNL     1      19.946   8.542  -8.642  1.00  0.00    -0.365 N 
HETATM   26  C7  UNL     1      21.268   8.190  -9.047  1.00  0.00     0.124 C 
HETATM   27  C8  UNL     1      21.779   7.234  -7.972  1.00  0.00     0.021 C 
HETATM   28  C9  UNL     1      21.012   7.568  -6.739  1.00  0.00     0.021 C 
HETATM   29  C10 UNL     1      19.880   8.450  -7.176  1.00  0.00     0.124 C 
ENDBRANCH   9  25
TORSDOF 5
ENDMDL
MODEL 2
REMARK VINA RESULT: -7.317553670      0.755      1.053
REMARK  5 active torsions:
REMARK  status: ('A' for Active; 'I' for Inactive)
REMARK    1  A    between atoms: C6_9  and  N2_10 
REMARK    2  A    between atoms: C11_15  and  N3_16 
REMARK    3  A    between atoms: N3_16  and  C12_18 
REMARK    4  A    between atoms: C12_18  and  C13_19 
REMARK    5  A    between atoms: C13_19  and  N4_20 
ROOT
HETATM    1  C1  UNL     1      14.511  10.417 -12.117  1.00  0.00     0.070 C 
HETATM    2  C2  UNL     1      15.122   9.437 -11.183  1.00  0.00     0.033 A 
HETATM    3  C3  UNL     1      14.486   8.317 -10.629  1.00  0.00     0.037 A 
HETATM    4 BR1  UNL     1      12.672   7.844 -10.985  1.00  0.00    -0.049 Br
HETATM    5  C4  UNL     1      15.361   7.648  -9.818  1.00  0.00     0.070 A 
HETATM    6  C5  UNL     1      16.549   8.364  -9.873  1.00  0.00     0.116 A 
HETATM    7  N1  UNL     1      17.719   8.141  -9.266  1.00  0.00    -0.326 N 
ATOM      8  H1  UNL     1      17.817   7.333  -8.652  1.00  0.00     0.169 HD
HETATM    9  C6  UNL     1      18.798   8.982  -9.453  1.00  0.00     0.135 A 
HETATM   10  C11 UNL     1      18.673  10.066 -10.276  1.00  0.00     0.111 A 
HETATM   11  C19 UNL     1      17.429  10.269 -10.895  1.00  0.00     0.152 A 
HETATM   12  C20 UNL     1      17.237  11.429 -11.741  1.00  0.00     0.120 C 
HETATM   13  N5  UNL     1      17.092  12.395 -12.410  1.00  0.00    -0.190 NA
HETATM   14  N6  UNL     1      16.379   9.432 -10.698  1.00  0.00    -0.289 N 
ENDROOT
BRANCH  10  15
HETATM   15  N3  UNL     1      19.707  10.958 -10.558  1.00  0.00    -0.383 N 
ATOM     16  H3  UNL     1      19.735  11.777  -9.950  1.00  0.00     0.159 HD
BRANCH  15  17
HETATM   17  C12 UNL     1      20.724  10.923 -11.541  1.00  0.00     0.150 C 
BRANCH  17  18
HETATM   18  C13 UNL     1      20.991  12.123 -12.366  1.00  0.00     0.292 C 
BRANCH  18  19
HETATM   19  N4  UNL     1      21.730  13.074 -11.547  1.00  0.00     0.090 N 
HETATM   20  C14 UNL     1      21.481  14.443 -11.858  1.00  0.00     0.272 C 
HETATM   21  C15 UNL     1      22.251  15.264 -10.812  1.00  0.00     0.030 C 
HETATM   22  C16 UNL     1      23.733  15.146 -11.158  1.00  0.00     0.003 C 
HETATM   23  C17 UNL     1      24.036  13.840 -11.877  1.00  0.00     0.030 C 
HETATM   24  C18 UNL     1      23.104  12.728 -11.392  1.00  0.00     0.272 C 
ENDBRANCH  18  19
ENDBRANCH  17  18
ENDBRANCH  15  17
ENDBRANCH  10  15
BRANCH   9  25
HETATM   25  N2  UNL     1      19.907   8.596  -8.690  1.00  0.00    -0.365 N 
HETATM   26  C7  UNL     1      21.232   8.248  -9.087  1.00  0.00     0.124 C 
HETATM   27  C8  UNL     1      21.734   7.280  -8.019  1.00  0.00     0.021 C 
HETATM   28  C9  UNL     1      20.957   7.601  -6.789  1.00  0.00     0.021 C 
HETATM   29  C10 UNL     1      19.828   8.488  -7.227  1.00  0.00     0.124 C 
ENDBRANCH   9  25
TORSDOF 5
ENDMDL
MODEL 3
REMARK VINA RESULT: -7.259038006      0.770      1.302
REMARK  5 active torsions:
REMARK  status: ('A' for Active; 'I' for Inactive)
REMARK    1  A    between atoms: C6_9  and  N2_10 
REMARK    2  A    between atoms: C11_15  and  N3_16 
REMARK    3  A    between atoms: N3_16  and  C12_18 
REMARK    4  A    between atoms: C12_18  and  C13_19 
REMARK    5  A    between atoms: C13_19  and  N4_20 
ROOT
HETATM    1  C1  UNL     1      14.575  10.439 -12.085  1.00  0.00     0.070 C 
HETATM    2  C2  UNL     1      15.197   9.446 -11.174  1.00  0.00     0.033 A 
HETATM    3  C3  UNL     1      14.570   8.314 -10.633  1.00  0.00     0.037 A 
HETATM    4 BR1  UNL     1      12.754   7.840 -10.983  1.00  0.00    -0.049 Br
HETATM    5  C4  UNL     1      15.453   7.635  -9.842  1.00  0.00     0.070 A 
HETATM    6  C5  UNL     1      16.638   8.356  -9.893  1.00  0.00     0.116 A 
HETATM    7  N1  UNL     1      17.814   8.127  -9.300  1.00  0.00    -0.326 N 
ATOM      8  H1  UNL     1      17.920   7.308  -8.701  1.00  0.00     0.169 HD
HETATM    9  C6  UNL     1      18.889   8.975  -9.482  1.00  0.00     0.135 A 
HETATM   10  C11 UNL     1      18.753  10.072 -10.285  1.00  0.00     0.111 A 
HETATM   11  C19 UNL     1      17.503  10.281 -10.890  1.00  0.00     0.152 A 
HETATM   12  C20 UNL     1      17.300  11.454 -11.714  1.00  0.00     0.120 C 
HETATM   13  N5  UNL     1      17.146  12.432 -12.366  1.00  0.00    -0.190 NA
HETATM   14  N6  UNL     1      16.458   9.437 -10.699  1.00  0.00    -0.289 N 
ENDROOT
BRANCH  10  15
HETATM   15  N3  UNL     1      19.782  10.972 -10.559  1.00  0.00    -0.383 N 
ATOM     16  H3  UNL     1      19.732  11.844 -10.031  1.00  0.00     0.159 HD
BRANCH  15  17
HETATM   17  C12 UNL     1      20.883  10.887 -11.444  1.00  0.00     0.150 C 
BRANCH  17  18
HETATM   18  C13 UNL     1      20.878  11.667 -12.702  1.00  0.00     0.292 C 
BRANCH  18  19
HETATM   19  N4  UNL     1      21.741  12.825 -12.513  1.00  0.00     0.090 N 
HETATM   20  C14 UNL     1      22.884  12.586 -11.695  1.00  0.00     0.272 C 
HETATM   21  C15 UNL     1      23.710  13.880 -11.730  1.00  0.00     0.030 C 
HETATM   22  C16 UNL     1      22.957  14.911 -10.892  1.00  0.00     0.003 C 
HETATM   23  C17 UNL     1      21.460  14.638 -10.886  1.00  0.00     0.030 C 
HETATM   24  C18 UNL     1      21.018  14.017 -12.213  1.00  0.00     0.272 C 
ENDBRANCH  18  19
ENDBRANCH  17  18
ENDBRANCH  15  17
ENDBRANCH  10  15
BRANCH   9  25
HETATM   25  N2  UNL     1      20.005   8.580  -8.734  1.00  0.00    -0.365 N 
HETATM   26  C7  UNL     1      21.321   8.217  -9.150  1.00  0.00     0.124 C 
HETATM   27  C8  UNL     1      21.829   7.248  -8.086  1.00  0.00     0.021 C 
HETATM   28  C9  UNL     1      21.074   7.580  -6.846  1.00  0.00     0.021 C 
HETATM   29  C10 UNL     1      19.947   8.477  -7.269  1.00  0.00     0.124 C 
ENDBRANCH   9  25
TORSDOF 5
ENDMDL
MODEL 4
REMARK VINA RESULT: -7.234086324      3.296      7.001
REMARK  5 active torsions:
REMARK  status: ('A' for Active; 'I' for Inactive)
REMARK    1  A    between atoms: C6_9  and  N2_10 
REMARK    2  A    between atoms: C11_15  and  N3_16 
REMARK    3  A    between atoms: N3_16  and  C12_18 
REMARK    4  A    between atoms: C12_18  and  C13_19 
REMARK    5  A    between atoms: C13_19  and  N4_20 
ROOT
HETATM    1  C1  UNL     1      21.276  15.719 -12.767  1.00  0.00     0.070 C 
HETATM    2  C2  UNL     1      22.065  14.588 -12.218  1.00  0.00     0.033 A 
HETATM    3  C3  UNL     1      23.433  14.608 -11.907  1.00  0.00     0.037 A 
HETATM    4 BR1  UNL     1      24.551  16.135 -12.148  1.00  0.00    -0.049 Br
HETATM    5  C4  UNL     1      23.810  13.387 -11.421  1.00  0.00     0.070 A 
HETATM    6  C5  UNL     1      22.663  12.605 -11.432  1.00  0.00     0.116 A 
HETATM    7  N1  UNL     1      22.481  11.335 -11.059  1.00  0.00    -0.326 N 
ATOM      8  H1  UNL     1      23.274  10.801 -10.702  1.00  0.00     0.169 HD
HETATM    9  C6  UNL     1      21.244  10.729 -11.147  1.00  0.00     0.135 A 
HETATM   10  C11 UNL     1      20.178  11.439 -11.622  1.00  0.00     0.111 A 
HETATM   11  C19 UNL     1      20.407  12.771 -12.006  1.00  0.00     0.152 A 
HETATM   12  C20 UNL     1      19.317  13.549 -12.557  1.00  0.00     0.120 C 
HETATM   13  N5  UNL     1      18.418  14.162 -13.028  1.00  0.00    -0.190 NA
HETATM   14  N6  UNL     1      21.631  13.349 -11.913  1.00  0.00    -0.289 N 
ENDROOT
BRANCH  10  15
HETATM   15  N3  UNL     1      18.882  10.934 -11.722  1.00  0.00    -0.383 N 
ATOM     16  H3  UNL     1      18.618  10.633 -12.660  1.00  0.00     0.159 HD
BRANCH  15  17
HETATM   17  C12 UNL     1      17.871  10.766 -10.747  1.00  0.00     0.150 C 
BRANCH  17  18
HETATM   18  C13 UNL     1      16.489  11.209 -11.037  1.00  0.00     0.292 C 
BRANCH  18  19
HETATM   19  N4  UNL     1      15.597  10.084 -10.792  1.00  0.00     0.090 N 
HETATM   20  C14 UNL     1      16.253   8.887 -10.378  1.00  0.00     0.272 C 
HETATM   21  C15 UNL     1      15.138   7.881 -10.057  1.00  0.00     0.030 C 
HETATM   22  C16 UNL     1      14.536   7.443 -11.391  1.00  0.00     0.003 C 
HETATM   23  C17 UNL     1      14.680   8.527 -12.450  1.00  0.00     0.030 C 
HETATM   24  C18 UNL     1      14.616   9.917 -11.812  1.00  0.00     0.272 C 
ENDBRANCH  18  19
ENDBRANCH  17  18
ENDBRANCH  15  17
ENDBRANCH  10  15
BRANCH   9  25
HETATM   25  N2  UNL     1      21.284   9.385 -10.752  1.00  0.00    -0.365 N 
HETATM   26  C7  UNL     1      20.664   8.721  -9.653  1.00  0.00     0.124 C 
HETATM   27  C8  UNL     1      21.581   7.547  -9.320  1.00  0.00     0.021 C 
HETATM   28  C9  UNL     1      22.306   7.233 -10.583  1.00  0.00     0.021 C 
HETATM   29  C10 UNL     1      22.059   8.390 -11.506  1.00  0.00     0.124 C 
ENDBRANCH   9  25
TORSDOF 5
ENDMDL
MODEL 5
REMARK VINA RESULT: -7.045822665      1.964      2.826
REMARK  5 active torsions:
REMARK  status: ('A' for Active; 'I' for Inactive)
REMARK    1  A    between atoms: C6_9  and  N2_10 
REMARK    2  A    between atoms: C11_15  and  N3_16 
REMARK    3  A    between atoms: N3_16  and  C12_18 
REMARK    4  A    between atoms: C12_18  and  C13_19 
REMARK    5  A    between atoms: C13_19  and  N4_20 
ROOT
HETATM    1  C1  UNL     1      14.619  10.445 -12.073  1.00  0.00     0.070 C 
HETATM    2  C2  UNL     1      15.221   9.442 -11.158  1.00  0.00     0.033 A 
HETATM    3  C3  UNL     1      14.581   8.308 -10.639  1.00  0.00     0.037 A 
HETATM    4 BR1  UNL     1      12.771   7.843 -11.027  1.00  0.00    -0.049 Br
HETATM    5  C4  UNL     1      15.447   7.620  -9.836  1.00  0.00     0.070 A 
HETATM    6  C5  UNL     1      16.635   8.338  -9.860  1.00  0.00     0.116 A 
HETATM    7  N1  UNL     1      17.799   8.100  -9.247  1.00  0.00    -0.326 N 
ATOM      8  H1  UNL     1      17.891   7.276  -8.652  1.00  0.00     0.169 HD
HETATM    9  C6  UNL     1      18.879   8.947  -9.401  1.00  0.00     0.135 A 
HETATM   10  C11 UNL     1      18.762  10.050 -10.197  1.00  0.00     0.111 A 
HETATM   11  C19 UNL     1      17.524  10.268 -10.824  1.00  0.00     0.152 A 
HETATM   12  C20 UNL     1      17.340  11.449 -11.642  1.00  0.00     0.120 C 
HETATM   13  N5  UNL     1      17.200  12.432 -12.288  1.00  0.00    -0.190 NA
HETATM   14  N6  UNL     1      16.473   9.426 -10.659  1.00  0.00    -0.289 N 
ENDROOT
BRANCH  10  15
HETATM   15  N3  UNL     1      19.798  10.950 -10.445  1.00  0.00    -0.383 N 
ATOM     16  H3  UNL     1      19.766  11.797  -9.877  1.00  0.00     0.159 HD
BRANCH  15  17
HETATM   17  C12 UNL     1      20.885  10.891 -11.348  1.00  0.00     0.150 C 
BRANCH  17  18
HETATM   18  C13 UNL     1      20.954   9.802 -12.347  1.00  0.00     0.292 C 
BRANCH  18  19
HETATM   19  N4  UNL     1      22.076  10.078 -13.235  1.00  0.00     0.090 N 
HETATM   20  C14 UNL     1      23.241   9.297 -12.977  1.00  0.00     0.272 C 
HETATM   21  C15 UNL     1      24.243   9.651 -14.086  1.00  0.00     0.030 C 
HETATM   22  C16 UNL     1      24.757  11.057 -13.789  1.00  0.00     0.003 C 
HETATM   23  C17 UNL     1      23.729  11.877 -13.023  1.00  0.00     0.030 C 
HETATM   24  C18 UNL     1      22.309  11.471 -13.423  1.00  0.00     0.272 C 
ENDBRANCH  18  19
ENDBRANCH  17  18
ENDBRANCH  15  17
ENDBRANCH  10  15
BRANCH   9  25
HETATM   25  N2  UNL     1      19.980   8.541  -8.636  1.00  0.00    -0.365 N 
HETATM   26  C7  UNL     1      21.291   8.144  -9.033  1.00  0.00     0.124 C 
HETATM   27  C8  UNL     1      21.770   7.184  -7.947  1.00  0.00     0.021 C 
HETATM   28  C9  UNL     1      21.010   7.554  -6.720  1.00  0.00     0.021 C 
HETATM   29  C10 UNL     1      19.907   8.467  -7.170  1.00  0.00     0.124 C 
ENDBRANCH   9  25
TORSDOF 5
ENDMDL
