MODEL 1
REMARK VINA RESULT: -6.737787037      0.000      0.000
REMARK  7 active torsions:
REMARK  status: ('A' for Active; 'I' for Inactive)
REMARK    1  A    between atoms: C3_4  and  O1_5 
REMARK    2  A    between atoms: C3_4  and  C4_7 
REMARK    3  A    between atoms: C5_9  and  N2_10 
REMARK       I    between atoms: N2_10  and  C6_12 
REMARK    4  A    between atoms: C6_12  and  C7_14 
REMARK    5  A    between atoms: C7_14  and  S2_15 
REMARK    6  A    between atoms: S2_15  and  C8_16 
REMARK    7  A    between atoms: C9_19  and  C10_20 
ROOT
HETATM    1  N2  UNL     1      19.176  12.365 -12.355  1.00  0.00    -0.306 N 
ATOM      2  H2  UNL     1      19.795  11.828 -12.961  1.00  0.00     0.171 HD
HETATM    3  C6  UNL     1      19.595  13.586 -11.772  1.00  0.00     0.233 C 
HETATM    4  O2  UNL     1      19.015  14.644 -12.154  1.00  0.00    -0.272 OA
ENDROOT
BRANCH   1   5
HETATM    5  C5  UNL     1      17.953  11.949 -12.082  1.00  0.00     0.153 A 
HETATM    6  S1  UNL     1      17.432  10.918 -10.843  1.00  0.00    -0.046 SA
HETATM    7  C4  UNL     1      15.692  10.902 -11.215  1.00  0.00     0.097 A 
HETATM    8  C16 UNL     1      15.697  11.719 -12.288  1.00  0.00     0.127 A 
HETATM    9  N4  UNL     1      16.831  12.233 -12.710  1.00  0.00    -0.326 N 
HETATM   10 CL1  UNL     1      14.194  12.133 -13.185  1.00  0.00    -0.063 Cl
ATOM     11  H4  UNL     1      16.841  12.852 -13.521  1.00  0.00     0.169 HD
BRANCH   7  12
HETATM   12  C3  UNL     1      14.756  10.142 -10.433  1.00  0.00     0.158 C 
HETATM   13  N1  UNL     1      14.615   8.865 -10.021  1.00  0.00    -0.369 N 
HETATM   14  C1  UNL     1      13.379   8.599  -9.169  1.00  0.00     0.151 C 
HETATM   15  C2  UNL     1      15.384   7.667 -10.208  1.00  0.00     0.151 C 
BRANCH  12  16
HETATM   16  O1  UNL     1      13.757  10.932 -10.003  1.00  0.00    -0.345 OA
ATOM     17  H1  UNL     1      13.940  11.855 -10.140  1.00  0.00     0.219 HD
ENDBRANCH  12  16
ENDBRANCH   7  12
ENDBRANCH   1   5
BRANCH   3  18
HETATM   18  C7  UNL     1      20.673  13.608 -10.755  1.00  0.00     0.184 C 
BRANCH  18  19
HETATM   19  S2  UNL     1      22.237  13.269 -11.576  1.00  0.00    -0.096 SA
BRANCH  19  20
HETATM   20  C8  UNL     1      22.346  11.505 -11.953  1.00  0.00     0.112 A 
HETATM   21  N3  UNL     1      21.683  10.518 -11.373  1.00  0.00    -0.348 N 
HETATM   22  C9  UNL     1      21.878   9.301 -11.762  1.00  0.00     0.021 A 
ATOM     23  H3  UNL     1      21.022  10.716 -10.621  1.00  0.00     0.167 HD
HETATM   24  C15 UNL     1      22.777   9.090 -12.777  1.00  0.00     0.077 A 
HETATM   25  S3  UNL     1      23.295  10.686 -13.110  1.00  0.00    -0.075 SA
BRANCH  22  26
HETATM   26  C10 UNL     1      21.156   8.120 -11.145  1.00  0.00     0.036 C 
HETATM   27  C11 UNL     1      20.290   8.567 -10.009  1.00  0.00     0.011 C 
HETATM   28  C12 UNL     1      20.934   8.121  -8.733  1.00  0.00     0.001 C 
HETATM   29  C13 UNL     1      22.161   7.337  -9.085  1.00  0.00     0.001 C 
HETATM   30  C14 UNL     1      22.163   7.151 -10.570  1.00  0.00     0.011 C 
ENDBRANCH  22  26
ENDBRANCH  19  20
ENDBRANCH  18  19
ENDBRANCH   3  18
TORSDOF 7
ENDMDL
MODEL 2
REMARK VINA RESULT: -6.620791848      3.962      5.996
REMARK  7 active torsions:
REMARK  status: ('A' for Active; 'I' for Inactive)
REMARK    1  A    between atoms: C3_4  and  O1_5 
REMARK    2  A    between atoms: C3_4  and  C4_7 
REMARK    3  A    between atoms: C5_9  and  N2_10 
REMARK       I    between atoms: N2_10  and  C6_12 
REMARK    4  A    between atoms: C6_12  and  C7_14 
REMARK    5  A    between atoms: C7_14  and  S2_15 
REMARK    6  A    between atoms: S2_15  and  C8_16 
REMARK    7  A    between atoms: C9_19  and  C10_20 
ROOT
HETATM    1  N2  UNL     1      22.090   9.705 -13.841  1.00  0.00    -0.306 N 
ATOM      2  H2  UNL     1      22.269   8.962 -14.517  1.00  0.00     0.171 HD
HETATM    3  C6  UNL     1      22.250  11.068 -14.186  1.00  0.00     0.233 C 
HETATM    4  O2  UNL     1      21.209  11.787 -14.221  1.00  0.00    -0.272 OA
ENDROOT
BRANCH   1   5
HETATM    5  C5  UNL     1      21.700   9.430 -12.609  1.00  0.00     0.153 A 
HETATM    6  S1  UNL     1      22.480   8.497 -11.430  1.00  0.00    -0.046 SA
HETATM    7  C4  UNL     1      21.286   8.657 -10.121  1.00  0.00     0.097 A 
HETATM    8  C16 UNL     1      20.384   9.438 -10.751  1.00  0.00     0.127 A 
HETATM    9  N4  UNL     1      20.603   9.816 -11.991  1.00  0.00    -0.326 N 
HETATM   10 CL1  UNL     1      18.867   9.985  -9.955  1.00  0.00    -0.063 Cl
ATOM     11  H4  UNL     1      19.925  10.406 -12.473  1.00  0.00     0.169 HD
BRANCH   7  12
HETATM   12  C3  UNL     1      21.471   8.025  -8.844  1.00  0.00     0.158 C 
HETATM   13  N1  UNL     1      20.797   7.929  -7.678  1.00  0.00    -0.369 N 
HETATM   14  C1  UNL     1      21.486   7.090  -6.608  1.00  0.00     0.151 C 
HETATM   15  C2  UNL     1      19.547   8.451  -7.206  1.00  0.00     0.151 C 
BRANCH  12  16
HETATM   16  O1  UNL     1      22.635   7.353  -8.820  1.00  0.00    -0.345 OA
ATOM     17  H1  UNL     1      23.167   7.523  -9.589  1.00  0.00     0.219 HD
ENDBRANCH  12  16
ENDBRANCH   7  12
ENDBRANCH   1   5
BRANCH   3  18
HETATM   18  C7  UNL     1      23.592  11.618 -14.492  1.00  0.00     0.184 C 
BRANCH  18  19
HETATM   19  S2  UNL     1      24.342  12.175 -12.956  1.00  0.00    -0.096 SA
BRANCH  19  20
HETATM   20  C8  UNL     1      23.545  13.707 -12.421  1.00  0.00     0.112 A 
HETATM   21  N3  UNL     1      22.262  13.896 -12.164  1.00  0.00    -0.348 N 
HETATM   22  C9  UNL     1      21.850  15.062 -11.789  1.00  0.00     0.021 A 
ATOM     23  H3  UNL     1      21.600  13.125 -12.261  1.00  0.00     0.167 HD
HETATM   24  C15 UNL     1      22.781  16.063 -11.673  1.00  0.00     0.077 A 
HETATM   25  S3  UNL     1      24.216  15.246 -12.120  1.00  0.00    -0.075 SA
BRANCH  22  26
HETATM   26  C10 UNL     1      20.395  15.354 -11.477  1.00  0.00     0.036 C 
HETATM   27  C11 UNL     1      20.234  15.752 -10.043  1.00  0.00     0.011 C 
HETATM   28  C12 UNL     1      19.578  14.619  -9.318  1.00  0.00     0.001 C 
HETATM   29  C13 UNL     1      19.269  13.548 -10.320  1.00  0.00     0.001 C 
HETATM   30  C14 UNL     1      19.570  14.103 -11.676  1.00  0.00     0.011 C 
ENDBRANCH  22  26
ENDBRANCH  19  20
ENDBRANCH  18  19
ENDBRANCH   3  18
TORSDOF 7
ENDMDL
MODEL 3
REMARK VINA RESULT: -6.596642142      3.262      5.352
REMARK  7 active torsions:
REMARK  status: ('A' for Active; 'I' for Inactive)
REMARK    1  A    between atoms: C3_4  and  O1_5 
REMARK    2  A    between atoms: C3_4  and  C4_7 
REMARK    3  A    between atoms: C5_9  and  N2_10 
REMARK       I    between atoms: N2_10  and  C6_12 
REMARK    4  A    between atoms: C6_12  and  C7_14 
REMARK    5  A    between atoms: C7_14  and  S2_15 
REMARK    6  A    between atoms: S2_15  and  C8_16 
REMARK    7  A    between atoms: C9_19  and  C10_20 
ROOT
HETATM    1  N2  UNL     1      14.288   7.849  -9.141  1.00  0.00    -0.306 N 
ATOM      2  H2  UNL     1      14.400   7.342  -8.262  1.00  0.00     0.171 HD
HETATM    3  C6  UNL     1      15.225   7.713 -10.193  1.00  0.00     0.233 C 
HETATM    4  O2  UNL     1      14.830   7.154 -11.257  1.00  0.00    -0.272 OA
ENDROOT
BRANCH   1   5
HETATM    5  C5  UNL     1      13.262   8.657  -9.340  1.00  0.00     0.153 A 
HETATM    6  S1  UNL     1      12.921   9.630 -10.683  1.00  0.00    -0.046 SA
HETATM    7  C4  UNL     1      11.398  10.355 -10.114  1.00  0.00     0.097 A 
HETATM    8  C16 UNL     1      11.311   9.750  -8.912  1.00  0.00     0.127 A 
HETATM    9  N4  UNL     1      12.247   8.906  -8.538  1.00  0.00    -0.326 N 
HETATM   10 CL1  UNL     1       9.951  10.061  -7.777  1.00  0.00    -0.063 Cl
ATOM     11  H4  UNL     1      12.188   8.445  -7.630  1.00  0.00     0.169 HD
BRANCH   7  12
HETATM   12  C3  UNL     1      10.664  11.299 -10.910  1.00  0.00     0.158 C 
HETATM   13  N1  UNL     1      10.432  12.629 -10.909  1.00  0.00    -0.369 N 
HETATM   14  C1  UNL     1       9.541  13.125 -12.042  1.00  0.00     0.151 C 
HETATM   15  C2  UNL     1      10.846  13.710 -10.061  1.00  0.00     0.151 C 
BRANCH  12  16
HETATM   16  O1  UNL     1      10.045  10.672 -11.926  1.00  0.00    -0.345 OA
ATOM     17  H1  UNL     1      10.558  10.686 -12.726  1.00  0.00     0.219 HD
ENDBRANCH  12  16
ENDBRANCH   7  12
ENDBRANCH   1   5
BRANCH   3  18
HETATM   18  C7  UNL     1      16.613   8.212 -10.039  1.00  0.00     0.184 C 
BRANCH  18  19
HETATM   19  S2  UNL     1      16.653   9.941 -10.531  1.00  0.00    -0.096 SA
BRANCH  19  20
HETATM   20  C8  UNL     1      18.356  10.420 -10.899  1.00  0.00     0.112 A 
HETATM   21  N3  UNL     1      19.461   9.774 -10.563  1.00  0.00    -0.348 N 
HETATM   22  C9  UNL     1      20.611  10.255 -10.906  1.00  0.00     0.021 A 
ATOM     23  H3  UNL     1      19.406   8.902 -10.037  1.00  0.00     0.167 HD
HETATM   24  C15 UNL     1      20.628  11.430 -11.613  1.00  0.00     0.077 A 
HETATM   25  S3  UNL     1      18.958  11.775 -11.742  1.00  0.00    -0.075 SA
BRANCH  22  26
HETATM   26  C10 UNL     1      21.919   9.573 -10.557  1.00  0.00     0.036 C 
HETATM   27  C11 UNL     1      22.298   8.587 -11.619  1.00  0.00     0.011 C 
HETATM   28  C12 UNL     1      22.083   7.211 -11.071  1.00  0.00     0.001 C 
HETATM   29  C13 UNL     1      21.639   7.345  -9.646  1.00  0.00     0.001 C 
HETATM   30  C14 UNL     1      21.759   8.790  -9.274  1.00  0.00     0.011 C 
ENDBRANCH  22  26
ENDBRANCH  19  20
ENDBRANCH  18  19
ENDBRANCH   3  18
TORSDOF 7
ENDMDL
MODEL 4
REMARK VINA RESULT: -6.592807023      5.863      9.827
REMARK  7 active torsions:
REMARK  status: ('A' for Active; 'I' for Inactive)
REMARK    1  A    between atoms: C3_4  and  O1_5 
REMARK    2  A    between atoms: C3_4  and  C4_7 
REMARK    3  A    between atoms: C5_9  and  N2_10 
REMARK       I    between atoms: N2_10  and  C6_12 
REMARK    4  A    between atoms: C6_12  and  C7_14 
REMARK    5  A    between atoms: C7_14  and  S2_15 
REMARK    6  A    between atoms: S2_15  and  C8_16 
REMARK    7  A    between atoms: C9_19  and  C10_20 
ROOT
HETATM    1  N2  UNL     1      25.798  11.097 -13.129  1.00  0.00    -0.306 N 
ATOM      2  H2  UNL     1      26.172  11.591 -12.319  1.00  0.00     0.171 HD
HETATM    3  C6  UNL     1      24.571  11.480 -13.721  1.00  0.00     0.233 C 
HETATM    4  O2  UNL     1      24.613  11.958 -14.893  1.00  0.00    -0.272 OA
ENDROOT
BRANCH   1   5
HETATM    5  C5  UNL     1      26.440  10.074 -13.665  1.00  0.00     0.153 A 
HETATM    6  S1  UNL     1      27.800   9.249 -13.083  1.00  0.00    -0.046 SA
HETATM    7  C4  UNL     1      27.978   8.059 -14.394  1.00  0.00     0.097 A 
HETATM    8  C16 UNL     1      26.938   8.435 -15.165  1.00  0.00     0.127 A 
HETATM    9  N4  UNL     1      26.179   9.441 -14.790  1.00  0.00    -0.326 N 
HETATM   10 CL1  UNL     1      26.544   7.609 -16.714  1.00  0.00    -0.063 Cl
ATOM     11  H4  UNL     1      25.390   9.731 -15.369  1.00  0.00     0.169 HD
BRANCH   7  12
HETATM   12  C3  UNL     1      29.029   7.079 -14.391  1.00  0.00     0.158 C 
HETATM   13  N1  UNL     1      30.338   7.030 -14.067  1.00  0.00    -0.369 N 
HETATM   14  C1  UNL     1      30.997   5.669 -14.264  1.00  0.00     0.151 C 
HETATM   15  C2  UNL     1      31.276   7.994 -13.566  1.00  0.00     0.151 C 
BRANCH  12  16
HETATM   16  O1  UNL     1      28.567   5.897 -14.834  1.00  0.00    -0.345 OA
ATOM     17  H1  UNL     1      29.099   5.539 -15.535  1.00  0.00     0.219 HD
ENDBRANCH  12  16
ENDBRANCH   7  12
ENDBRANCH   1   5
BRANCH   3  18
HETATM   18  C7  UNL     1      23.293  11.321 -12.986  1.00  0.00     0.184 C 
BRANCH  18  19
HETATM   19  S2  UNL     1      22.813   9.589 -13.050  1.00  0.00    -0.096 SA
BRANCH  19  20
HETATM   20  C8  UNL     1      21.555   9.269 -11.793  1.00  0.00     0.112 A 
HETATM   21  N3  UNL     1      20.580  10.077 -11.410  1.00  0.00    -0.348 N 
HETATM   22  C9  UNL     1      19.757   9.694 -10.490  1.00  0.00     0.021 A 
ATOM     23  H3  UNL     1      20.477  10.997 -11.839  1.00  0.00     0.167 HD
HETATM   24  C15 UNL     1      19.939   8.448  -9.946  1.00  0.00     0.077 A 
HETATM   25  S3  UNL     1      21.309   7.896 -10.810  1.00  0.00    -0.075 SA
BRANCH  22  26
HETATM   26  C10 UNL     1      18.616  10.564 -10.000  1.00  0.00     0.036 C 
HETATM   27  C11 UNL     1      17.298   9.928 -10.314  1.00  0.00     0.011 C 
HETATM   28  C12 UNL     1      16.665  10.701 -11.429  1.00  0.00     0.001 C 
HETATM   29  C13 UNL     1      17.560  11.857 -11.755  1.00  0.00     0.001 C 
HETATM   30  C14 UNL     1      18.641  11.892 -10.722  1.00  0.00     0.011 C 
ENDBRANCH  22  26
ENDBRANCH  19  20
ENDBRANCH  18  19
ENDBRANCH   3  18
TORSDOF 7
ENDMDL
MODEL 5
REMARK VINA RESULT: -6.585440728      5.904      9.602
REMARK  7 active torsions:
REMARK  status: ('A' for Active; 'I' for Inactive)
REMARK    1  A    between atoms: C3_4  and  O1_5 
REMARK    2  A    between atoms: C3_4  and  C4_7 
REMARK    3  A    between atoms: C5_9  and  N2_10 
REMARK       I    between atoms: N2_10  and  C6_12 
REMARK    4  A    between atoms: C6_12  and  C7_14 
REMARK    5  A    between atoms: C7_14  and  S2_15 
REMARK    6  A    between atoms: S2_15  and  C8_16 
REMARK    7  A    between atoms: C9_19  and  C10_20 
ROOT
HETATM    1  N2  UNL     1      25.999  11.126 -13.011  1.00  0.00    -0.306 N 
ATOM      2  H2  UNL     1      26.055  11.253 -12.001  1.00  0.00     0.171 HD
HETATM    3  C6  UNL     1      25.280  12.032 -13.827  1.00  0.00     0.233 C 
HETATM    4  O2  UNL     1      25.946  12.736 -14.643  1.00  0.00    -0.272 OA
ENDROOT
BRANCH   1   5
HETATM    5  C5  UNL     1      26.593  10.108 -13.608  1.00  0.00     0.153 A 
HETATM    6  S1  UNL     1      27.953   9.230 -13.111  1.00  0.00    -0.046 SA
HETATM    7  C4  UNL     1      28.050   8.084 -14.469  1.00  0.00     0.097 A 
HETATM    8  C16 UNL     1      26.990   8.513 -15.184  1.00  0.00     0.127 A 
HETATM    9  N4  UNL     1      26.272   9.523 -14.744  1.00  0.00    -0.326 N 
HETATM   10 CL1  UNL     1      26.514   7.754 -16.744  1.00  0.00    -0.063 Cl
ATOM     11  H4  UNL     1      25.469   9.852 -15.280  1.00  0.00     0.169 HD
BRANCH   7  12
HETATM   12  C3  UNL     1      29.075   7.080 -14.543  1.00  0.00     0.158 C 
HETATM   13  N1  UNL     1      30.402   6.999 -14.312  1.00  0.00    -0.369 N 
HETATM   14  C1  UNL     1      31.012   5.624 -14.558  1.00  0.00     0.151 C 
HETATM   15  C2  UNL     1      31.396   7.938 -13.875  1.00  0.00     0.151 C 
BRANCH  12  16
HETATM   16  O1  UNL     1      28.554   5.911 -14.955  1.00  0.00    -0.345 OA
ATOM     17  H1  UNL     1      29.180   5.388 -15.443  1.00  0.00     0.219 HD
ENDBRANCH  12  16
ENDBRANCH   7  12
ENDBRANCH   1   5
BRANCH   3  18
HETATM   18  C7  UNL     1      23.806  12.141 -13.720  1.00  0.00     0.184 C 
BRANCH  18  19
HETATM   19  S2  UNL     1      23.385  12.502 -12.010  1.00  0.00    -0.096 SA
BRANCH  19  20
HETATM   20  C8  UNL     1      21.855  11.644 -11.575  1.00  0.00     0.112 A 
HETATM   21  N3  UNL     1      21.724  10.389 -11.178  1.00  0.00    -0.348 N 
HETATM   22  C9  UNL     1      20.550   9.924 -10.904  1.00  0.00     0.021 A 
ATOM     23  H3  UNL     1      22.546   9.791 -11.088  1.00  0.00     0.167 HD
HETATM   24  C15 UNL     1      19.479  10.771 -11.041  1.00  0.00     0.077 A 
HETATM   25  S3  UNL     1      20.245  12.207 -11.566  1.00  0.00    -0.075 SA
BRANCH  22  26
HETATM   26  C10 UNL     1      20.321   8.498 -10.444  1.00  0.00     0.036 C 
HETATM   27  C11 UNL     1      20.263   8.431  -8.949  1.00  0.00     0.011 C 
HETATM   28  C12 UNL     1      21.526   7.790  -8.465  1.00  0.00     0.001 C 
HETATM   29  C13 UNL     1      22.333   7.397  -9.665  1.00  0.00     0.001 C 
HETATM   30  C14 UNL     1      21.483   7.632 -10.873  1.00  0.00     0.011 C 
ENDBRANCH  22  26
ENDBRANCH  19  20
ENDBRANCH  18  19
ENDBRANCH   3  18
TORSDOF 7
ENDMDL
