MODEL 1
REMARK VINA RESULT: -7.601235937      0.000      0.000
REMARK  6 active torsions:
REMARK  status: ('A' for Active; 'I' for Inactive)
REMARK    1  A    between atoms: C2_2  and  C3_3 
REMARK    2  A    between atoms: C16_20  and  C18_22 
REMARK    3  A    between atoms: C18_22  and  C19_23 
REMARK    4  A    between atoms: C19_23  and  C20_24 
REMARK    5  A    between atoms: C22_26  and  O5_27 
REMARK    6  A    between atoms: O5_27  and  C23_28 
ROOT
HETATM    1  C3  UNL     1     -12.494  -6.539   3.446  1.00  0.00     0.038 C 
HETATM    2  C4  UNL     1     -12.902  -7.104   2.081  1.00  0.00     0.024 C 
HETATM    3  C5  UNL     1     -11.878  -6.736   1.157  1.00  0.00     0.002 C 
HETATM    4  C6  UNL     1     -11.961  -5.330   1.217  1.00  0.00     0.123 C 
HETATM    5  C7  UNL     1     -13.198  -5.141   0.305  1.00  0.00     0.260 C 
HETATM    6  O1  UNL     1     -14.272  -4.587   0.511  1.00  0.00    -0.265 OA
HETATM    7  O2  UNL     1     -12.738  -5.784  -0.823  1.00  0.00    -0.312 OA
HETATM    8  C8  UNL     1     -11.789  -6.670  -0.329  1.00  0.00     0.171 C 
HETATM    9  C9  UNL     1     -10.328  -6.194  -0.482  1.00  0.00     0.167 C 
HETATM   10  O3  UNL     1      -9.727  -6.979  -1.522  1.00  0.00    -0.313 OA
HETATM   11  C10 UNL     1      -8.376  -6.712  -1.424  1.00  0.00     0.259 C 
HETATM   12  O4  UNL     1      -7.512  -6.537  -2.323  1.00  0.00    -0.265 OA
HETATM   13  C11 UNL     1      -8.102  -6.668   0.007  1.00  0.00     0.118 C 
HETATM   14  C12 UNL     1      -9.405  -6.241   0.708  1.00  0.00     0.032 C 
HETATM   15  C13 UNL     1      -9.723  -7.157   1.838  1.00  0.00     0.008 C 
HETATM   16  C14 UNL     1     -10.927  -7.827   1.331  1.00  0.00    -0.002 C 
HETATM   17  C15 UNL     1     -11.289  -9.094   1.958  1.00  0.00     0.011 C 
HETATM   18  C16 UNL     1      -9.836  -6.677   3.258  1.00  0.00    -0.012 C 
HETATM   19  C17 UNL     1      -8.811  -5.497   3.262  1.00  0.00     0.018 C 
HETATM   20  C22 UNL     1     -11.105  -6.343   3.851  1.00  0.00     0.148 C 
ENDROOT
BRANCH  18  21
HETATM   21  C18 UNL     1      -9.036  -7.683   4.041  1.00  0.00     0.012 C 
BRANCH  21  22
HETATM   22  C19 UNL     1      -7.624  -7.834   4.087  1.00  0.00     0.000 C 
BRANCH  22  23
HETATM   23  C20 UNL     1      -7.270  -9.245   3.487  1.00  0.00    -0.005 C 
HETATM   24  C21 UNL     1      -6.398  -9.061   2.269  1.00  0.00     0.005 C 
ENDBRANCH  22  23
ENDBRANCH  21  22
ENDBRANCH  18  21
BRANCH  20  25
HETATM   25  O5  UNL     1     -11.160  -6.465   5.272  1.00  0.00    -0.315 OA
BRANCH  25  26
HETATM   26  C23 UNL     1     -11.108  -5.426   6.187  1.00  0.00     0.255 C 
HETATM   27  C24 UNL     1     -12.127  -5.198   7.242  1.00  0.00     0.126 C 
HETATM   28  O6  UNL     1     -10.138  -4.635   6.113  1.00  0.00    -0.266 OA
ENDBRANCH  25  26
ENDBRANCH  20  25
BRANCH   1  29
HETATM   29  C2  UNL     1     -13.332  -7.313   4.414  1.00  0.00    -0.030 C 
HETATM   30  C1  UNL     1     -14.140  -8.294   4.097  1.00  0.00     0.007 C 
ENDBRANCH   1  29
TORSDOF 6
ENDMDL
MODEL 2
REMARK VINA RESULT: -6.858637290      1.229      1.550
REMARK  6 active torsions:
REMARK  status: ('A' for Active; 'I' for Inactive)
REMARK    1  A    between atoms: C2_2  and  C3_3 
REMARK    2  A    between atoms: C16_20  and  C18_22 
REMARK    3  A    between atoms: C18_22  and  C19_23 
REMARK    4  A    between atoms: C19_23  and  C20_24 
REMARK    5  A    between atoms: C22_26  and  O5_27 
REMARK    6  A    between atoms: O5_27  and  C23_28 
ROOT
HETATM    1  C3  UNL     1     -13.240  -7.102   3.670  1.00  0.00     0.038 C 
HETATM    2  C4  UNL     1     -13.347  -7.654   2.245  1.00  0.00     0.024 C 
HETATM    3  C5  UNL     1     -12.223  -7.153   1.521  1.00  0.00     0.002 C 
HETATM    4  C6  UNL     1     -12.462  -5.765   1.592  1.00  0.00     0.123 C 
HETATM    5  C7  UNL     1     -13.537  -5.667   0.482  1.00  0.00     0.260 C 
HETATM    6  O1  UNL     1     -14.682  -5.230   0.507  1.00  0.00    -0.265 OA
HETATM    7  O2  UNL     1     -12.825  -6.220  -0.561  1.00  0.00    -0.312 OA
HETATM    8  C8  UNL     1     -11.888  -7.024   0.074  1.00  0.00     0.171 C 
HETATM    9  C9  UNL     1     -10.481  -6.399   0.188  1.00  0.00     0.167 C 
HETATM   10  O3  UNL     1      -9.631  -7.082  -0.746  1.00  0.00    -0.313 OA
HETATM   11  C10 UNL     1      -8.352  -6.686  -0.409  1.00  0.00     0.259 C 
HETATM   12  O4  UNL     1      -7.370  -6.392  -1.139  1.00  0.00    -0.265 OA
HETATM   13  C11 UNL     1      -8.334  -6.667   1.049  1.00  0.00     0.118 C 
HETATM   14  C12 UNL     1      -9.775  -6.398   1.520  1.00  0.00     0.032 C 
HETATM   15  C13 UNL     1     -10.185  -7.382   2.560  1.00  0.00     0.008 C 
HETATM   16  C14 UNL     1     -11.207  -8.149   1.837  1.00  0.00    -0.002 C 
HETATM   17  C15 UNL     1     -11.537  -9.468   2.368  1.00  0.00     0.011 C 
HETATM   18  C16 UNL     1     -10.590  -6.967   3.947  1.00  0.00    -0.012 C 
HETATM   19  C17 UNL     1      -9.710  -5.692   4.152  1.00  0.00     0.018 C 
HETATM   20  C22 UNL     1     -11.970  -6.783   4.315  1.00  0.00     0.148 C 
ENDROOT
BRANCH  18  21
HETATM   21  C18 UNL     1      -9.835  -7.916   4.839  1.00  0.00     0.012 C 
BRANCH  21  22
HETATM   22  C19 UNL     1      -8.592  -8.555   4.585  1.00  0.00     0.000 C 
BRANCH  22  23
HETATM   23  C20 UNL     1      -7.912  -8.856   5.971  1.00  0.00    -0.005 C 
HETATM   24  C21 UNL     1      -8.347  -7.813   6.973  1.00  0.00     0.005 C 
ENDBRANCH  22  23
ENDBRANCH  21  22
ENDBRANCH  18  21
BRANCH  20  25
HETATM   25  O5  UNL     1     -12.255  -6.962   5.702  1.00  0.00    -0.315 OA
BRANCH  25  26
HETATM   26  C23 UNL     1     -12.392  -5.958   6.648  1.00  0.00     0.255 C 
HETATM   27  C24 UNL     1     -11.259  -5.379   7.412  1.00  0.00     0.126 C 
HETATM   28  O6  UNL     1     -13.546  -5.518   6.864  1.00  0.00    -0.266 OA
ENDBRANCH  25  26
ENDBRANCH  20  25
BRANCH   1  29
HETATM   29  C2  UNL     1     -14.146  -7.990   4.463  1.00  0.00    -0.030 C 
HETATM   30  C1  UNL     1     -15.003  -8.840   3.955  1.00  0.00     0.007 C 
ENDBRANCH   1  29
TORSDOF 6
ENDMDL
MODEL 3
REMARK VINA RESULT: -6.393569928      2.057      5.195
REMARK  6 active torsions:
REMARK  status: ('A' for Active; 'I' for Inactive)
REMARK    1  A    between atoms: C2_2  and  C3_3 
REMARK    2  A    between atoms: C16_20  and  C18_22 
REMARK    3  A    between atoms: C18_22  and  C19_23 
REMARK    4  A    between atoms: C19_23  and  C20_24 
REMARK    5  A    between atoms: C22_26  and  O5_27 
REMARK    6  A    between atoms: O5_27  and  C23_28 
ROOT
HETATM    1  C3  UNL     1      -8.503  -8.108   2.806  1.00  0.00     0.038 C 
HETATM    2  C4  UNL     1      -8.637  -6.656   2.335  1.00  0.00     0.024 C 
HETATM    3  C5  UNL     1      -9.885  -6.556   1.650  1.00  0.00     0.002 C 
HETATM    4  C6  UNL     1      -9.678  -7.462   0.589  1.00  0.00     0.123 C 
HETATM    5  C7  UNL     1      -8.821  -6.546  -0.320  1.00  0.00     0.260 C 
HETATM    6  O1  UNL     1      -7.703  -6.705  -0.796  1.00  0.00    -0.265 OA
HETATM    7  O2  UNL     1      -9.691  -5.485  -0.443  1.00  0.00    -0.312 OA
HETATM    8  C8  UNL     1     -10.477  -5.573   0.699  1.00  0.00     0.171 C 
HETATM    9  C9  UNL     1     -11.859  -6.225   0.476  1.00  0.00     0.167 C 
HETATM   10  O3  UNL     1     -12.841  -5.181   0.540  1.00  0.00    -0.313 OA
HETATM   11  C10 UNL     1     -14.051  -5.844   0.615  1.00  0.00     0.259 C 
HETATM   12  O4  UNL     1     -15.155  -5.590   0.068  1.00  0.00    -0.265 OA
HETATM   13  C11 UNL     1     -13.808  -6.972   1.507  1.00  0.00     0.118 C 
HETATM   14  C12 UNL     1     -12.315  -7.329   1.396  1.00  0.00     0.032 C 
HETATM   15  C13 UNL     1     -11.698  -7.450   2.746  1.00  0.00     0.008 C 
HETATM   16  C14 UNL     1     -10.800  -6.289   2.753  1.00  0.00    -0.002 C 
HETATM   17  C15 UNL     1     -10.343  -5.818   4.057  1.00  0.00     0.011 C 
HETATM   18  C16 UNL     1     -11.064  -8.724   3.231  1.00  0.00    -0.012 C 
HETATM   19  C17 UNL     1     -11.930  -9.795   2.491  1.00  0.00     0.018 C 
HETATM   20  C22 UNL     1      -9.646  -8.956   3.132  1.00  0.00     0.148 C 
ENDROOT
BRANCH  18  21
HETATM   21  C18 UNL     1     -11.620  -8.894   4.620  1.00  0.00     0.012 C 
BRANCH  21  22
HETATM   22  C19 UNL     1     -12.731  -9.679   5.027  1.00  0.00     0.000 C 
BRANCH  22  23
HETATM   23  C20 UNL     1     -13.911  -8.699   5.377  1.00  0.00    -0.005 C 
HETATM   24  C21 UNL     1     -15.043  -8.916   4.402  1.00  0.00     0.005 C 
ENDBRANCH  22  23
ENDBRANCH  21  22
ENDBRANCH  18  21
BRANCH  20  25
HETATM   25  O5  UNL     1      -9.113  -9.867   4.091  1.00  0.00    -0.315 OA
BRANCH  25  26
HETATM   26  C23 UNL     1      -8.846 -11.212   3.885  1.00  0.00     0.255 C 
HETATM   27  C24 UNL     1      -9.846 -12.293   4.068  1.00  0.00     0.126 C 
HETATM   28  O6  UNL     1      -7.687 -11.524   3.523  1.00  0.00    -0.266 OA
ENDBRANCH  25  26
ENDBRANCH  20  25
BRANCH   1  29
HETATM   29  C2  UNL     1      -7.445  -8.042   3.862  1.00  0.00    -0.030 C 
HETATM   30  C1  UNL     1      -7.328  -7.090   4.754  1.00  0.00     0.007 C 
ENDBRANCH   1  29
TORSDOF 6
ENDMDL
MODEL 4
REMARK VINA RESULT: -6.347062558      2.328      4.472
REMARK  6 active torsions:
REMARK  status: ('A' for Active; 'I' for Inactive)
REMARK    1  A    between atoms: C2_2  and  C3_3 
REMARK    2  A    between atoms: C16_20  and  C18_22 
REMARK    3  A    between atoms: C18_22  and  C19_23 
REMARK    4  A    between atoms: C19_23  and  C20_24 
REMARK    5  A    between atoms: C22_26  and  O5_27 
REMARK    6  A    between atoms: O5_27  and  C23_28 
ROOT
HETATM    1  C3  UNL     1      -9.996  -8.466   5.124  1.00  0.00     0.038 C 
HETATM    2  C4  UNL     1     -11.390  -9.067   4.916  1.00  0.00     0.024 C 
HETATM    3  C5  UNL     1     -12.122  -8.145   4.107  1.00  0.00     0.002 C 
HETATM    4  C6  UNL     1     -12.132  -7.011   4.945  1.00  0.00     0.123 C 
HETATM    5  C7  UNL     1     -13.263  -7.453   5.904  1.00  0.00     0.260 C 
HETATM    6  O1  UNL     1     -13.282  -7.576   7.124  1.00  0.00    -0.265 OA
HETATM    7  O2  UNL     1     -14.262  -7.671   4.980  1.00  0.00    -0.312 OA
HETATM    8  C8  UNL     1     -13.568  -7.941   3.808  1.00  0.00     0.171 C 
HETATM    9  C9  UNL     1     -13.465  -6.746   2.835  1.00  0.00     0.167 C 
HETATM   10  O3  UNL     1     -14.345  -7.014   1.733  1.00  0.00    -0.313 OA
HETATM   11  C10 UNL     1     -14.010  -6.071   0.781  1.00  0.00     0.259 C 
HETATM   12  O4  UNL     1     -14.739  -5.400   0.006  1.00  0.00    -0.265 OA
HETATM   13  C11 UNL     1     -12.555  -5.985   0.832  1.00  0.00     0.118 C 
HETATM   14  C12 UNL     1     -12.124  -6.372   2.258  1.00  0.00     0.032 C 
HETATM   15  C13 UNL     1     -11.038  -7.391   2.225  1.00  0.00     0.008 C 
HETATM   16  C14 UNL     1     -11.734  -8.565   2.767  1.00  0.00    -0.002 C 
HETATM   17  C15 UNL     1     -11.136  -9.868   2.493  1.00  0.00     0.011 C 
HETATM   18  C16 UNL     1      -9.683  -7.144   2.828  1.00  0.00    -0.012 C 
HETATM   19  C17 UNL     1      -9.534  -5.602   2.620  1.00  0.00     0.018 C 
HETATM   20  C22 UNL     1      -9.348  -7.584   4.158  1.00  0.00     0.148 C 
ENDROOT
BRANCH  18  21
HETATM   21  C18 UNL     1      -8.727  -7.615   1.764  1.00  0.00     0.012 C 
BRANCH  21  22
HETATM   22  C19 UNL     1      -7.909  -6.827   0.912  1.00  0.00     0.000 C 
BRANCH  22  23
HETATM   23  C20 UNL     1      -8.245  -7.217  -0.575  1.00  0.00    -0.005 C 
HETATM   24  C21 UNL     1      -9.391  -6.365  -1.065  1.00  0.00     0.005 C 
ENDBRANCH  22  23
ENDBRANCH  21  22
ENDBRANCH  18  21
BRANCH  20  25
HETATM   25  O5  UNL     1      -7.959  -7.813   4.387  1.00  0.00    -0.315 OA
BRANCH  25  26
HETATM   26  C23 UNL     1      -7.110  -7.019   5.143  1.00  0.00     0.255 C 
HETATM   27  C24 UNL     1      -7.472  -5.673   5.656  1.00  0.00     0.126 C 
HETATM   28  O6  UNL     1      -5.971  -7.473   5.405  1.00  0.00    -0.266 OA
ENDBRANCH  25  26
ENDBRANCH  20  25
BRANCH   1  29
HETATM   29  C2  UNL     1      -9.171  -9.632   5.568  1.00  0.00    -0.030 C 
HETATM   30  C1  UNL     1      -9.617 -10.852   5.736  1.00  0.00     0.007 C 
ENDBRANCH   1  29
TORSDOF 6
ENDMDL
MODEL 5
REMARK VINA RESULT: -6.338143053      2.420      4.375
REMARK  6 active torsions:
REMARK  status: ('A' for Active; 'I' for Inactive)
REMARK    1  A    between atoms: C2_2  and  C3_3 
REMARK    2  A    between atoms: C16_20  and  C18_22 
REMARK    3  A    between atoms: C18_22  and  C19_23 
REMARK    4  A    between atoms: C19_23  and  C20_24 
REMARK    5  A    between atoms: C22_26  and  O5_27 
REMARK    6  A    between atoms: O5_27  and  C23_28 
ROOT
HETATM    1  C3  UNL     1     -10.926  -8.997   5.448  1.00  0.00     0.038 C 
HETATM    2  C4  UNL     1     -12.193  -9.597   4.830  1.00  0.00     0.024 C 
HETATM    3  C5  UNL     1     -12.792  -8.572   4.036  1.00  0.00     0.002 C 
HETATM    4  C6  UNL     1     -13.067  -7.602   5.021  1.00  0.00     0.123 C 
HETATM    5  C7  UNL     1     -14.348  -8.240   5.610  1.00  0.00     0.260 C 
HETATM    6  O1  UNL     1     -14.627  -8.575   6.756  1.00  0.00    -0.265 OA
HETATM    7  O2  UNL     1     -15.099  -8.325   4.458  1.00  0.00    -0.312 OA
HETATM    8  C8  UNL     1     -14.146  -8.365   3.449  1.00  0.00     0.171 C 
HETATM    9  C9  UNL     1     -13.916  -7.016   2.733  1.00  0.00     0.167 C 
HETATM   10  O3  UNL     1     -14.509  -7.116   1.430  1.00  0.00    -0.313 OA
HETATM   11  C10 UNL     1     -14.038  -6.011   0.747  1.00  0.00     0.259 C 
HETATM   12  O4  UNL     1     -14.624  -5.239  -0.055  1.00  0.00    -0.265 OA
HETATM   13  C11 UNL     1     -12.641  -5.889   1.144  1.00  0.00     0.118 C 
HETATM   14  C12 UNL     1     -12.510  -6.505   2.549  1.00  0.00     0.032 C 
HETATM   15  C13 UNL     1     -11.374  -7.467   2.602  1.00  0.00     0.008 C 
HETATM   16  C14 UNL     1     -12.088  -8.739   2.770  1.00  0.00    -0.002 C 
HETATM   17  C15 UNL     1     -11.353  -9.954   2.433  1.00  0.00     0.011 C 
HETATM   18  C16 UNL     1     -10.207  -7.286   3.532  1.00  0.00    -0.012 C 
HETATM   19  C17 UNL     1     -10.126  -5.727   3.617  1.00  0.00     0.018 C 
HETATM   20  C22 UNL     1     -10.144  -7.940   4.813  1.00  0.00     0.148 C 
ENDROOT
BRANCH  18  21
HETATM   21  C18 UNL     1      -9.009  -7.533   2.654  1.00  0.00     0.012 C 
BRANCH  21  22
HETATM   22  C19 UNL     1      -8.341  -6.612   1.805  1.00  0.00     0.000 C 
BRANCH  22  23
HETATM   23  C20 UNL     1      -8.342  -7.210   0.350  1.00  0.00    -0.005 C 
HETATM   24  C21 UNL     1      -9.367  -6.481  -0.486  1.00  0.00     0.005 C 
ENDBRANCH  22  23
ENDBRANCH  21  22
ENDBRANCH  18  21
BRANCH  20  25
HETATM   25  O5  UNL     1      -8.828  -8.162   5.316  1.00  0.00    -0.315 OA
BRANCH  25  26
HETATM   26  C23 UNL     1      -8.118  -7.319   6.158  1.00  0.00     0.255 C 
HETATM   27  C24 UNL     1      -7.038  -6.408   5.701  1.00  0.00     0.126 C 
HETATM   28  O6  UNL     1      -8.414  -7.333   7.376  1.00  0.00    -0.266 OA
ENDBRANCH  25  26
ENDBRANCH  20  25
BRANCH   1  29
HETATM   29  C2  UNL     1     -10.139 -10.196   5.874  1.00  0.00    -0.030 C 
HETATM   30  C1  UNL     1     -10.466 -11.440   5.629  1.00  0.00     0.007 C 
ENDBRANCH   1  29
TORSDOF 6
ENDMDL
