MODEL 1
REMARK VINA RESULT: -4.033001138      0.000      0.000
REMARK  4 active torsions:
REMARK  status: ('A' for Active; 'I' for Inactive)
REMARK    1  A    between atoms: N1_1  and  N2_4 
REMARK    2  A    between atoms: N2_4  and  C1_5 
REMARK    3  A    between atoms: C1_5  and  C2_6 
REMARK    4  A    between atoms: C2_6  and  C3_7 
ROOT
HETATM    1  C3  UNL     1     -63.785  27.319  17.516  1.00  0.00     0.014 C 
HETATM    2  C4  UNL     1     -62.570  26.405  17.405  1.00  0.00     0.034 C 
HETATM    3  C5  UNL     1     -61.591  27.165  18.286  1.00  0.00     0.232 C 
HETATM    4  N3  UNL     1     -62.377  27.838  19.284  1.00  0.00    -0.075 N 
ATOM      5  H31 UNL     1     -62.180  28.838  19.330  1.00  0.00     0.277 HD
ATOM      6  H32 UNL     1     -62.095  27.596  20.234  1.00  0.00     0.277 HD
HETATM    7  C6  UNL     1     -63.760  27.561  19.033  1.00  0.00     0.237 C 
ENDROOT
BRANCH   1   8
HETATM    8  C2  UNL     1     -63.522  28.660  16.875  1.00  0.00     0.024 C 
BRANCH   8   9
HETATM    9  C1  UNL     1     -64.524  29.703  17.305  1.00  0.00     0.135 C 
BRANCH   9  10
HETATM   10  N2  UNL     1     -64.075  31.024  16.882  1.00  0.00    -0.148 NA
BRANCH  10  11
HETATM   11  N1  UNL     1     -63.676  31.033  15.558  1.00  0.00    -0.348 N 
ATOM     12  H12 UNL     1     -64.305  31.255  14.787  1.00  0.00     0.172 HD
ATOM     13  H11 UNL     1     -62.690  30.795  15.457  1.00  0.00     0.172 HD
ENDBRANCH  10  11
ENDBRANCH   9  10
ENDBRANCH   8   9
ENDBRANCH   1   8
TORSDOF 4
ENDMDL
MODEL 2
REMARK VINA RESULT: -3.909088319      2.025      4.431
REMARK  4 active torsions:
REMARK  status: ('A' for Active; 'I' for Inactive)
REMARK    1  A    between atoms: N1_1  and  N2_4 
REMARK    2  A    between atoms: N2_4  and  C1_5 
REMARK    3  A    between atoms: C1_5  and  C2_6 
REMARK    4  A    between atoms: C2_6  and  C3_7 
ROOT
HETATM    1  C3  UNL     1     -62.475  26.493  18.119  1.00  0.00     0.014 C 
HETATM    2  C4  UNL     1     -63.746  26.194  18.906  1.00  0.00     0.034 C 
HETATM    3  C5  UNL     1     -64.337  27.593  18.989  1.00  0.00     0.232 C 
HETATM    4  N3  UNL     1     -63.912  28.286  17.804  1.00  0.00    -0.075 N 
ATOM      5  H31 UNL     1     -63.458  29.175  18.012  1.00  0.00     0.277 HD
ATOM      6  H32 UNL     1     -64.695  28.652  17.262  1.00  0.00     0.277 HD
HETATM    7  C6  UNL     1     -63.076  27.408  17.041  1.00  0.00     0.237 C 
ENDROOT
BRANCH   1   8
HETATM    8  C2  UNL     1     -61.527  27.355  18.917  1.00  0.00     0.024 C 
BRANCH   8   9
HETATM    9  C1  UNL     1     -60.087  26.949  18.723  1.00  0.00     0.135 C 
BRANCH   9  10
HETATM   10  N2  UNL     1     -59.628  26.187  19.879  1.00  0.00    -0.148 NA
BRANCH  10  11
HETATM   11  N1  UNL     1     -60.250  26.597  21.044  1.00  0.00    -0.348 N 
ATOM     12  H12 UNL     1     -61.206  26.950  21.074  1.00  0.00     0.172 HD
ATOM     13  H11 UNL     1     -59.638  26.500  21.855  1.00  0.00     0.172 HD
ENDBRANCH  10  11
ENDBRANCH   9  10
ENDBRANCH   8   9
ENDBRANCH   1   8
TORSDOF 4
ENDMDL
MODEL 3
REMARK VINA RESULT: -3.905268910      1.141      1.279
REMARK  4 active torsions:
REMARK  status: ('A' for Active; 'I' for Inactive)
REMARK    1  A    between atoms: N1_1  and  N2_4 
REMARK    2  A    between atoms: N2_4  and  C1_5 
REMARK    3  A    between atoms: C1_5  and  C2_6 
REMARK    4  A    between atoms: C2_6  and  C3_7 
ROOT
HETATM    1  C3  UNL     1     -63.773  27.055  18.559  1.00  0.00     0.014 C 
HETATM    2  C4  UNL     1     -62.625  26.781  17.595  1.00  0.00     0.034 C 
HETATM    3  C5  UNL     1     -61.444  27.117  18.492  1.00  0.00     0.232 C 
HETATM    4  N3  UNL     1     -61.853  26.811  19.836  1.00  0.00    -0.075 N 
ATOM      5  H31 UNL     1     -61.720  27.595  20.474  1.00  0.00     0.277 HD
ATOM      6  H32 UNL     1     -61.226  26.149  20.294  1.00  0.00     0.277 HD
HETATM    7  C6  UNL     1     -63.209  26.352  19.803  1.00  0.00     0.237 C 
ENDROOT
BRANCH   1   8
HETATM    8  C2  UNL     1     -63.855  28.521  18.911  1.00  0.00     0.024 C 
BRANCH   8   9
HETATM    9  C1  UNL     1     -64.857  29.257  18.056  1.00  0.00     0.135 C 
BRANCH   9  10
HETATM   10  N2  UNL     1     -64.161  30.093  17.085  1.00  0.00    -0.148 NA
BRANCH  10  11
HETATM   11  N1  UNL     1     -64.731  31.348  16.984  1.00  0.00    -0.348 N 
ATOM     12  H12 UNL     1     -64.185  32.210  16.964  1.00  0.00     0.172 HD
ATOM     13  H11 UNL     1     -65.748  31.301  16.933  1.00  0.00     0.172 HD
ENDBRANCH  10  11
ENDBRANCH   9  10
ENDBRANCH   8   9
ENDBRANCH   1   8
TORSDOF 4
ENDMDL
MODEL 4
REMARK VINA RESULT: -3.869871416      2.222      2.571
REMARK  4 active torsions:
REMARK  status: ('A' for Active; 'I' for Inactive)
REMARK    1  A    between atoms: N1_1  and  N2_4 
REMARK    2  A    between atoms: N2_4  and  C1_5 
REMARK    3  A    between atoms: C1_5  and  C2_6 
REMARK    4  A    between atoms: C2_6  and  C3_7 
ROOT
HETATM    1  C3  UNL     1     -63.789  27.056  18.121  1.00  0.00     0.014 C 
HETATM    2  C4  UNL     1     -62.607  26.513  17.327  1.00  0.00     0.034 C 
HETATM    3  C5  UNL     1     -61.471  27.267  18.001  1.00  0.00     0.232 C 
HETATM    4  N3  UNL     1     -61.878  27.484  19.362  1.00  0.00    -0.075 N 
ATOM      5  H31 UNL     1     -61.817  28.464  19.638  1.00  0.00     0.277 HD
ATOM      6  H32 UNL     1     -61.209  27.108  20.035  1.00  0.00     0.277 HD
HETATM    7  C6  UNL     1     -63.193  26.946  19.534  1.00  0.00     0.237 C 
ENDROOT
BRANCH   1   8
HETATM    8  C2  UNL     1     -63.990  28.530  17.868  1.00  0.00     0.024 C 
BRANCH   8   9
HETATM    9  C1  UNL     1     -64.973  29.146  18.833  1.00  0.00     0.135 C 
BRANCH   9  10
HETATM   10  N2  UNL     1     -66.221  28.392  18.816  1.00  0.00    -0.148 NA
BRANCH  10  11
HETATM   11  N1  UNL     1     -66.602  27.999  20.086  1.00  0.00    -0.348 N 
ATOM     12  H12 UNL     1     -67.231  28.544  20.675  1.00  0.00     0.172 HD
ATOM     13  H11 UNL     1     -66.180  27.109  20.350  1.00  0.00     0.172 HD
ENDBRANCH  10  11
ENDBRANCH   9  10
ENDBRANCH   8   9
ENDBRANCH   1   8
TORSDOF 4
ENDMDL
MODEL 5
REMARK VINA RESULT: -3.826994759      1.666      4.081
REMARK  4 active torsions:
REMARK  status: ('A' for Active; 'I' for Inactive)
REMARK    1  A    between atoms: N1_1  and  N2_4 
REMARK    2  A    between atoms: N2_4  and  C1_5 
REMARK    3  A    between atoms: C1_5  and  C2_6 
REMARK    4  A    between atoms: C2_6  and  C3_7 
ROOT
HETATM    1  C3  UNL     1     -63.662  27.026  18.625  1.00  0.00     0.014 C 
HETATM    2  C4  UNL     1     -64.912  27.747  19.115  1.00  0.00     0.034 C 
HETATM    3  C5  UNL     1     -64.722  29.093  18.433  1.00  0.00     0.232 C 
HETATM    4  N3  UNL     1     -64.006  28.834  17.215  1.00  0.00    -0.075 N 
ATOM      5  H31 UNL     1     -63.167  29.408  17.124  1.00  0.00     0.277 HD
ATOM      6  H32 UNL     1     -64.499  29.176  16.390  1.00  0.00     0.277 HD
HETATM    7  C6  UNL     1     -63.722  27.432  17.144  1.00  0.00     0.237 C 
ENDROOT
BRANCH   1   8
HETATM    8  C2  UNL     1     -62.410  27.660  19.181  1.00  0.00     0.024 C 
BRANCH   8   9
HETATM    9  C1  UNL     1     -61.163  27.144  18.506  1.00  0.00     0.135 C 
BRANCH   9  10
HETATM   10  N2  UNL     1     -59.983  27.696  19.161  1.00  0.00    -0.148 NA
BRANCH  10  11
HETATM   11  N1  UNL     1     -59.824  27.197  20.441  1.00  0.00    -0.348 N 
ATOM     12  H12 UNL     1     -59.793  26.200  20.652  1.00  0.00     0.172 HD
ATOM     13  H11 UNL     1     -59.741  27.942  21.132  1.00  0.00     0.172 HD
ENDBRANCH  10  11
ENDBRANCH   9  10
ENDBRANCH   8   9
ENDBRANCH   1   8
TORSDOF 4
ENDMDL
