MODEL 1
REMARK VINA RESULT: -3.970410644      0.000      0.000
REMARK  4 active torsions:
REMARK  status: ('A' for Active; 'I' for Inactive)
REMARK    1  A    between atoms: N1_1  and  C1_5 
REMARK    2  A    between atoms: C1_5  and  C2_6 
REMARK    3  A    between atoms: C2_6  and  C3_7 
REMARK    4  A    between atoms: C3_7  and  C4_8 
ROOT
HETATM    1  C4  UNL     1     -63.858  28.141  17.489  1.00  0.00     0.096 A 
HETATM    2  N2  UNL     1     -64.599  28.040  18.599  1.00  0.00    -0.340 N 
ATOM      3  H2  UNL     1     -64.641  27.221  19.206  1.00  0.00     0.168 HD
HETATM    4  C5  UNL     1     -65.281  29.187  18.794  1.00  0.00     0.198 A 
HETATM    5  N3  UNL     1     -64.964  30.008  17.801  1.00  0.00    -0.295 N 
ATOM      6  H3  UNL     1     -65.322  30.955  17.672  1.00  0.00     0.187 HD
HETATM    7  N4  UNL     1     -64.110  29.394  17.008  1.00  0.00    -0.288 N 
ATOM      8  H4  UNL     1     -63.699  29.793  16.164  1.00  0.00     0.188 HD
ENDROOT
BRANCH   1   9
HETATM    9  C3  UNL     1     -62.943  27.212  16.820  1.00  0.00     0.079 C 
BRANCH   9  10
HETATM   10  C2  UNL     1     -62.084  26.405  17.722  1.00  0.00     0.034 C 
BRANCH  10  11
HETATM   11  C1  UNL     1     -61.056  27.143  18.503  1.00  0.00     0.230 C 
BRANCH  11  12
HETATM   12  N1  UNL     1     -61.401  26.969  19.922  1.00  0.00    -0.079 N 
ATOM     13  H13 UNL     1     -60.734  27.408  20.557  1.00  0.00     0.274 HD
ATOM     14  H12 UNL     1     -62.220  27.507  20.207  1.00  0.00     0.274 HD
ATOM     15  H11 UNL     1     -61.504  25.966  20.078  1.00  0.00     0.274 HD
ENDBRANCH  11  12
ENDBRANCH  10  11
ENDBRANCH   9  10
ENDBRANCH   1   9
TORSDOF 4
ENDMDL
MODEL 2
REMARK VINA RESULT: -3.885350489      0.807      1.285
REMARK  4 active torsions:
REMARK  status: ('A' for Active; 'I' for Inactive)
REMARK    1  A    between atoms: N1_1  and  C1_5 
REMARK    2  A    between atoms: C1_5  and  C2_6 
REMARK    3  A    between atoms: C2_6  and  C3_7 
REMARK    4  A    between atoms: C3_7  and  C4_8 
ROOT
HETATM    1  C4  UNL     1     -63.776  28.404  17.090  1.00  0.00     0.096 A 
HETATM    2  N2  UNL     1     -63.990  29.562  16.455  1.00  0.00    -0.340 N 
ATOM      3  H2  UNL     1     -63.672  29.783  15.511  1.00  0.00     0.168 HD
HETATM    4  C5  UNL     1     -64.691  30.393  17.252  1.00  0.00     0.198 A 
HETATM    5  N3  UNL     1     -64.916  29.750  18.391  1.00  0.00    -0.295 N 
ATOM      6  H3  UNL     1     -65.424  30.121  19.195  1.00  0.00     0.187 HD
HETATM    7  N4  UNL     1     -64.372  28.553  18.309  1.00  0.00    -0.288 N 
ATOM      8  H4  UNL     1     -64.393  27.846  19.044  1.00  0.00     0.188 HD
ENDROOT
BRANCH   1   9
HETATM    9  C3  UNL     1     -63.083  27.173  16.701  1.00  0.00     0.079 C 
BRANCH   9  10
HETATM   10  C2  UNL     1     -62.418  26.440  17.807  1.00  0.00     0.034 C 
BRANCH  10  11
HETATM   11  C1  UNL     1     -61.159  27.028  18.336  1.00  0.00     0.230 C 
BRANCH  11  12
HETATM   12  N1  UNL     1     -61.346  27.188  19.787  1.00  0.00    -0.079 N 
ATOM     13  H13 UNL     1     -61.887  28.017  20.035  1.00  0.00     0.274 HD
ATOM     14  H12 UNL     1     -61.980  26.498  20.190  1.00  0.00     0.274 HD
ATOM     15  H11 UNL     1     -60.416  27.174  20.205  1.00  0.00     0.274 HD
ENDBRANCH  11  12
ENDBRANCH  10  11
ENDBRANCH   9  10
ENDBRANCH   1   9
TORSDOF 4
ENDMDL
MODEL 3
REMARK VINA RESULT: -3.846016152      1.266      4.102
REMARK  4 active torsions:
REMARK  status: ('A' for Active; 'I' for Inactive)
REMARK    1  A    between atoms: N1_1  and  C1_5 
REMARK    2  A    between atoms: C1_5  and  C2_6 
REMARK    3  A    between atoms: C2_6  and  C3_7 
REMARK    4  A    between atoms: C3_7  and  C4_8 
ROOT
HETATM    1  C4  UNL     1     -62.258  27.083  18.266  1.00  0.00     0.096 A 
HETATM    2  N2  UNL     1     -60.954  27.088  17.966  1.00  0.00    -0.340 N 
ATOM      3  H2  UNL     1     -60.567  27.133  17.023  1.00  0.00     0.168 HD
HETATM    4  C5  UNL     1     -60.229  27.026  19.101  1.00  0.00     0.198 A 
HETATM    5  N3  UNL     1     -61.084  26.981  20.114  1.00  0.00    -0.295 N 
ATOM      6  H3  UNL     1     -60.837  26.928  21.103  1.00  0.00     0.187 HD
HETATM    7  N4  UNL     1     -62.308  27.014  19.628  1.00  0.00    -0.288 N 
ATOM      8  H4  UNL     1     -63.163  26.993  20.185  1.00  0.00     0.188 HD
ENDROOT
BRANCH   1   9
HETATM    9  C3  UNL     1     -63.466  27.134  17.438  1.00  0.00     0.079 C 
BRANCH   9  10
HETATM   10  C2  UNL     1     -63.872  28.489  16.987  1.00  0.00     0.034 C 
BRANCH  10  11
HETATM   11  C1  UNL     1     -64.572  29.342  17.983  1.00  0.00     0.230 C 
BRANCH  11  12
HETATM   12  N1  UNL     1     -64.642  30.693  17.404  1.00  0.00    -0.079 N 
ATOM     13  H13 UNL     1     -63.898  30.884  16.733  1.00  0.00     0.274 HD
ATOM     14  H12 UNL     1     -65.426  30.816  16.763  1.00  0.00     0.274 HD
ATOM     15  H11 UNL     1     -64.655  31.346  18.187  1.00  0.00     0.274 HD
ENDBRANCH  11  12
ENDBRANCH  10  11
ENDBRANCH   9  10
ENDBRANCH   1   9
TORSDOF 4
ENDMDL
MODEL 4
REMARK VINA RESULT: -3.843546502      1.875      2.744
REMARK  4 active torsions:
REMARK  status: ('A' for Active; 'I' for Inactive)
REMARK    1  A    between atoms: N1_1  and  C1_5 
REMARK    2  A    between atoms: C1_5  and  C2_6 
REMARK    3  A    between atoms: C2_6  and  C3_7 
REMARK    4  A    between atoms: C3_7  and  C4_8 
ROOT
HETATM    1  C4  UNL     1     -64.115  27.648  19.352  1.00  0.00     0.096 A 
HETATM    2  N2  UNL     1     -64.755  26.712  20.061  1.00  0.00    -0.340 N 
ATOM      3  H2  UNL     1     -64.372  25.800  20.313  1.00  0.00     0.168 HD
HETATM    4  C5  UNL     1     -65.984  27.156  20.394  1.00  0.00     0.198 A 
HETATM    5  N3  UNL     1     -66.112  28.377  19.889  1.00  0.00    -0.295 N 
ATOM      6  H3  UNL     1     -66.935  28.975  19.973  1.00  0.00     0.187 HD
HETATM    7  N4  UNL     1     -64.997  28.687  19.260  1.00  0.00    -0.288 N 
ATOM      8  H4  UNL     1     -64.819  29.569  18.777  1.00  0.00     0.188 HD
ENDROOT
BRANCH   1   9
HETATM    9  C3  UNL     1     -62.781  27.695  18.747  1.00  0.00     0.079 C 
BRANCH   9  10
HETATM   10  C2  UNL     1     -62.644  26.985  17.451  1.00  0.00     0.034 C 
BRANCH  10  11
HETATM   11  C1  UNL     1     -63.505  27.460  16.336  1.00  0.00     0.230 C 
BRANCH  11  12
HETATM   12  N1  UNL     1     -62.715  28.450  15.587  1.00  0.00    -0.079 N 
ATOM     13  H13 UNL     1     -61.772  28.130  15.364  1.00  0.00     0.274 HD
ATOM     14  H12 UNL     1     -63.036  28.579  14.627  1.00  0.00     0.274 HD
ATOM     15  H11 UNL     1     -62.729  29.310  16.136  1.00  0.00     0.274 HD
ENDBRANCH  11  12
ENDBRANCH  10  11
ENDBRANCH   9  10
ENDBRANCH   1   9
TORSDOF 4
ENDMDL
MODEL 5
REMARK VINA RESULT: -3.798680081      1.356      1.928
REMARK  4 active torsions:
REMARK  status: ('A' for Active; 'I' for Inactive)
REMARK    1  A    between atoms: N1_1  and  C1_5 
REMARK    2  A    between atoms: C1_5  and  C2_6 
REMARK    3  A    between atoms: C2_6  and  C3_7 
REMARK    4  A    between atoms: C3_7  and  C4_8 
ROOT
HETATM    1  C4  UNL     1     -63.810  27.685  19.208  1.00  0.00     0.096 A 
HETATM    2  N2  UNL     1     -64.038  28.771  18.459  1.00  0.00    -0.340 N 
ATOM      3  H2  UNL     1     -63.364  29.199  17.824  1.00  0.00     0.168 HD
HETATM    4  C5  UNL     1     -65.293  29.213  18.673  1.00  0.00     0.198 A 
HETATM    5  N3  UNL     1     -65.852  28.399  19.559  1.00  0.00    -0.295 N 
ATOM      6  H3  UNL     1     -66.802  28.475  19.924  1.00  0.00     0.187 HD
HETATM    7  N4  UNL     1     -64.973  27.475  19.890  1.00  0.00    -0.288 N 
ATOM      8  H4  UNL     1     -65.137  26.718  20.555  1.00  0.00     0.188 HD
ENDROOT
BRANCH   1   9
HETATM    9  C3  UNL     1     -62.640  26.817  19.366  1.00  0.00     0.079 C 
BRANCH   9  10
HETATM   10  C2  UNL     1     -61.561  27.015  18.365  1.00  0.00     0.034 C 
BRANCH  10  11
HETATM   11  C1  UNL     1     -60.170  27.074  18.887  1.00  0.00     0.230 C 
BRANCH  11  12
HETATM   12  N1  UNL     1     -60.257  26.872  20.342  1.00  0.00    -0.079 N 
ATOM     13  H13 UNL     1     -61.216  26.855  20.690  1.00  0.00     0.274 HD
ATOM     14  H12 UNL     1     -59.998  25.931  20.634  1.00  0.00     0.274 HD
ATOM     15  H11 UNL     1     -59.687  27.600  20.772  1.00  0.00     0.274 HD
ENDBRANCH  11  12
ENDBRANCH  10  11
ENDBRANCH   9  10
ENDBRANCH   1   9
TORSDOF 4
ENDMDL
