MODEL 1
REMARK VINA RESULT: -4.456316614      0.000      0.000
REMARK  3 active torsions:
REMARK  status: ('A' for Active; 'I' for Inactive)
REMARK    1  A    between atoms: N1_2  and  N2_3 
REMARK    2  A    between atoms: N2_3  and  C2_4 
REMARK    3  A    between atoms: N3_7  and  O1_8 
ROOT
HETATM    1  C2  UNL     1     -62.688  27.089  18.346  1.00  0.00     0.246 A 
HETATM    2  C3  UNL     1     -62.348  27.228  16.947  1.00  0.00     0.038 A 
HETATM    3  C4  UNL     1     -63.560  27.609  16.641  1.00  0.00     0.119 A 
HETATM    4  N3  UNL     1     -63.984  27.506  17.960  1.00  0.00    -0.245 N 
ENDROOT
BRANCH   1   5
HETATM    5  N2  UNL     1     -61.940  28.025  19.171  1.00  0.00    -0.117 NA
BRANCH   5   6
HETATM    6  N1  UNL     1     -60.588  27.885  19.000  1.00  0.00    -0.151 NA
HETATM    7  C1  UNL     1     -60.005  26.781  19.713  1.00  0.00     0.154 C 
ENDBRANCH   5   6
ENDBRANCH   1   5
BRANCH   4   8
HETATM    8  O1  UNL     1     -65.156  27.719  18.604  1.00  0.00    -0.282 OA
HETATM    9  C5  UNL     1     -65.376  29.075  18.839  1.00  0.00     0.238 C 
ENDBRANCH   4   8
TORSDOF 3
ENDMDL
MODEL 2
REMARK VINA RESULT: -4.177857007      1.090      1.187
REMARK  3 active torsions:
REMARK  status: ('A' for Active; 'I' for Inactive)
REMARK    1  A    between atoms: N1_2  and  N2_3 
REMARK    2  A    between atoms: N2_3  and  C2_4 
REMARK    3  A    between atoms: N3_7  and  O1_8 
ROOT
HETATM    1  C2  UNL     1     -62.008  27.221  18.825  1.00  0.00     0.246 A 
HETATM    2  C3  UNL     1     -62.031  26.377  17.651  1.00  0.00     0.038 A 
HETATM    3  C4  UNL     1     -62.942  27.119  17.078  1.00  0.00     0.119 A 
HETATM    4  N3  UNL     1     -62.993  27.989  18.159  1.00  0.00    -0.245 N 
ENDROOT
BRANCH   1   5
HETATM    5  N2  UNL     1     -60.713  27.861  18.995  1.00  0.00    -0.117 NA
BRANCH   5   6
HETATM    6  N1  UNL     1     -59.735  26.953  19.302  1.00  0.00    -0.151 NA
HETATM    7  C1  UNL     1     -59.780  26.456  20.650  1.00  0.00     0.154 C 
ENDBRANCH   5   6
ENDBRANCH   1   5
BRANCH   4   8
HETATM    8  O1  UNL     1     -63.697  29.109  18.449  1.00  0.00    -0.282 OA
HETATM    9  C5  UNL     1     -64.998  28.811  18.848  1.00  0.00     0.238 C 
ENDBRANCH   4   8
TORSDOF 3
ENDMDL
MODEL 3
REMARK VINA RESULT: -4.166842513      1.947      3.666
REMARK  3 active torsions:
REMARK  status: ('A' for Active; 'I' for Inactive)
REMARK    1  A    between atoms: N1_2  and  N2_3 
REMARK    2  A    between atoms: N2_3  and  C2_4 
REMARK    3  A    between atoms: N3_7  and  O1_8 
ROOT
HETATM    1  C2  UNL     1     -63.523  26.763  18.217  1.00  0.00     0.246 A 
HETATM    2  C3  UNL     1     -64.087  25.899  19.231  1.00  0.00     0.038 A 
HETATM    3  C4  UNL     1     -63.179  26.249  20.102  1.00  0.00     0.119 A 
HETATM    4  N3  UNL     1     -62.563  27.106  19.199  1.00  0.00    -0.245 N 
ENDROOT
BRANCH   1   5
HETATM    5  N2  UNL     1     -64.449  27.818  17.841  1.00  0.00    -0.117 NA
BRANCH   5   6
HETATM    6  N1  UNL     1     -63.902  28.670  16.919  1.00  0.00    -0.151 NA
HETATM    7  C1  UNL     1     -63.096  28.030  15.915  1.00  0.00     0.154 C 
ENDBRANCH   5   6
ENDBRANCH   1   5
BRANCH   4   8
HETATM    8  O1  UNL     1     -61.488  27.929  19.247  1.00  0.00    -0.282 OA
HETATM    9  C5  UNL     1     -60.309  27.256  18.933  1.00  0.00     0.238 C 
ENDBRANCH   4   8
TORSDOF 3
ENDMDL
MODEL 4
REMARK VINA RESULT: -4.006455267      1.220      1.503
REMARK  3 active torsions:
REMARK  status: ('A' for Active; 'I' for Inactive)
REMARK    1  A    between atoms: N1_2  and  N2_3 
REMARK    2  A    between atoms: N2_3  and  C2_4 
REMARK    3  A    between atoms: N3_7  and  O1_8 
ROOT
HETATM    1  C2  UNL     1     -62.298  26.984  18.306  1.00  0.00     0.246 A 
HETATM    2  C3  UNL     1     -62.437  27.351  16.914  1.00  0.00     0.038 A 
HETATM    3  C4  UNL     1     -63.732  27.183  16.950  1.00  0.00     0.119 A 
HETATM    4  N3  UNL     1     -63.703  26.816  18.289  1.00  0.00    -0.245 N 
ENDROOT
BRANCH   1   5
HETATM    5  N2  UNL     1     -61.801  28.094  19.103  1.00  0.00    -0.117 NA
BRANCH   5   6
HETATM    6  N1  UNL     1     -60.440  28.047  19.248  1.00  0.00    -0.151 NA
HETATM    7  C1  UNL     1     -59.927  26.774  19.675  1.00  0.00     0.154 C 
ENDBRANCH   5   6
ENDBRANCH   1   5
BRANCH   4   8
HETATM    8  O1  UNL     1     -64.638  26.450  19.199  1.00  0.00    -0.282 OA
HETATM    9  C5  UNL     1     -64.329  25.229  19.793  1.00  0.00     0.238 C 
ENDBRANCH   4   8
TORSDOF 3
ENDMDL
MODEL 5
REMARK VINA RESULT: -3.987048474      1.724      3.737
REMARK  3 active torsions:
REMARK  status: ('A' for Active; 'I' for Inactive)
REMARK    1  A    between atoms: N1_2  and  N2_3 
REMARK    2  A    between atoms: N2_3  and  C2_4 
REMARK    3  A    between atoms: N3_7  and  O1_8 
ROOT
HETATM    1  C2  UNL     1     -63.550  27.982  17.647  1.00  0.00     0.246 A 
HETATM    2  C3  UNL     1     -63.449  26.840  16.765  1.00  0.00     0.038 A 
HETATM    3  C4  UNL     1     -62.376  26.406  17.373  1.00  0.00     0.119 A 
HETATM    4  N3  UNL     1     -62.387  27.468  18.268  1.00  0.00    -0.245 N 
ENDROOT
BRANCH   1   5
HETATM    5  N2  UNL     1     -64.767  27.934  18.442  1.00  0.00    -0.117 NA
BRANCH   5   6
HETATM    6  N1  UNL     1     -65.522  29.066  18.282  1.00  0.00    -0.151 NA
HETATM    7  C1  UNL     1     -64.878  30.117  17.544  1.00  0.00     0.154 C 
ENDBRANCH   5   6
ENDBRANCH   1   5
BRANCH   4   8
HETATM    8  O1  UNL     1     -61.604  27.847  19.306  1.00  0.00    -0.282 OA
HETATM    9  C5  UNL     1     -60.305  27.361  19.178  1.00  0.00     0.238 C 
ENDBRANCH   4   8
TORSDOF 3
ENDMDL
