MODEL 1
REMARK VINA RESULT: -3.927943101      0.000      0.000
REMARK  5 active torsions:
REMARK  status: ('A' for Active; 'I' for Inactive)
REMARK    1  A    between atoms: O1_2  and  C2_3 
REMARK    2  A    between atoms: C2_3  and  C3_4 
REMARK    3  A    between atoms: C2_3  and  C4_13 
REMARK    4  A    between atoms: C3_4  and  N1_5 
REMARK    5  A    between atoms: C3_4  and  N2_9 
ROOT
HETATM    1  C3  UNL     1     -65.079  28.534  18.654  1.00  0.00     0.406 C 
ENDROOT
BRANCH   1   2
HETATM    2  C2  UNL     1     -63.908  27.659  19.129  1.00  0.00     0.182 C 
BRANCH   2   3
HETATM    3  O1  UNL     1     -64.455  26.811  20.091  1.00  0.00    -0.386 OA
HETATM    4  C1  UNL     1     -64.196  25.474  19.810  1.00  0.00     0.202 C 
ENDBRANCH   2   3
BRANCH   2   5
HETATM    5  C4  UNL     1     -63.491  26.770  17.965  1.00  0.00     0.018 A 
HETATM    6  C5  UNL     1     -62.092  27.041  17.380  1.00  0.00     0.008 A 
HETATM    7  C6  UNL     1     -63.347  27.308  16.606  1.00  0.00     0.008 A 
ENDBRANCH   2   5
ENDBRANCH   1   2
BRANCH   1   8
HETATM    8  N1  UNL     1     -64.655  29.899  18.475  1.00  0.00    -0.048 N 
ATOM      9  H13 UNL     1     -63.806  29.961  17.913  1.00  0.00     0.276 HD
ATOM     10  H12 UNL     1     -65.284  30.413  17.858  1.00  0.00     0.276 HD
ATOM     11  H11 UNL     1     -64.546  30.363  19.378  1.00  0.00     0.276 HD
ENDBRANCH   1   8
BRANCH   1  12
HETATM   12  N2  UNL     1     -66.158  28.498  19.605  1.00  0.00    -0.048 N 
ATOM     13  H23 UNL     1     -66.448  27.542  19.814  1.00  0.00     0.276 HD
ATOM     14  H22 UNL     1     -65.849  28.771  20.538  1.00  0.00     0.276 HD
ATOM     15  H21 UNL     1     -66.941  29.069  19.284  1.00  0.00     0.276 HD
ENDBRANCH   1  12
TORSDOF 5
ENDMDL
MODEL 2
REMARK VINA RESULT: -3.728753997      1.755      2.345
REMARK  5 active torsions:
REMARK  status: ('A' for Active; 'I' for Inactive)
REMARK    1  A    between atoms: O1_2  and  C2_3 
REMARK    2  A    between atoms: C2_3  and  C3_4 
REMARK    3  A    between atoms: C2_3  and  C4_13 
REMARK    4  A    between atoms: C3_4  and  N1_5 
REMARK    5  A    between atoms: C3_4  and  N2_9 
ROOT
HETATM    1  C3  UNL     1     -64.191  27.062  19.253  1.00  0.00     0.406 C 
ENDROOT
BRANCH   1   2
HETATM    2  C2  UNL     1     -62.907  27.762  18.781  1.00  0.00     0.182 C 
BRANCH   2   3
HETATM    3  O1  UNL     1     -61.901  27.284  19.621  1.00  0.00    -0.386 OA
HETATM    4  C1  UNL     1     -60.687  27.159  18.955  1.00  0.00     0.202 C 
ENDBRANCH   2   3
BRANCH   2   5
HETATM    5  C4  UNL     1     -62.580  27.242  17.387  1.00  0.00     0.018 A 
HETATM    6  C5  UNL     1     -62.892  28.201  16.222  1.00  0.00     0.008 A 
HETATM    7  C6  UNL     1     -63.642  26.919  16.424  1.00  0.00     0.008 A 
ENDBRANCH   2   5
ENDBRANCH   1   2
BRANCH   1   8
HETATM    8  N1  UNL     1     -65.102  28.011  19.841  1.00  0.00    -0.048 N 
ATOM      9  H13 UNL     1     -64.838  28.972  19.625  1.00  0.00     0.276 HD
ATOM     10  H12 UNL     1     -66.012  27.997  19.380  1.00  0.00     0.276 HD
ATOM     11  H11 UNL     1     -65.183  27.857  20.846  1.00  0.00     0.276 HD
ENDBRANCH   1   8
BRANCH   1  12
HETATM   12  N2  UNL     1     -63.886  26.042  20.222  1.00  0.00    -0.048 N 
ATOM     13  H23 UNL     1     -63.050  25.515  19.967  1.00  0.00     0.276 HD
ATOM     14  H22 UNL     1     -63.553  26.442  21.100  1.00  0.00     0.276 HD
ATOM     15  H21 UNL     1     -64.690  25.430  20.366  1.00  0.00     0.276 HD
ENDBRANCH   1  12
TORSDOF 5
ENDMDL
MODEL 3
REMARK VINA RESULT: -3.581626919      1.786      2.695
REMARK  5 active torsions:
REMARK  status: ('A' for Active; 'I' for Inactive)
REMARK    1  A    between atoms: O1_2  and  C2_3 
REMARK    2  A    between atoms: C2_3  and  C3_4 
REMARK    3  A    between atoms: C2_3  and  C4_13 
REMARK    4  A    between atoms: C3_4  and  N1_5 
REMARK    5  A    between atoms: C3_4  and  N2_9 
ROOT
HETATM    1  C3  UNL     1     -64.299  28.644  18.940  1.00  0.00     0.406 C 
ENDROOT
BRANCH   1   2
HETATM    2  C2  UNL     1     -63.865  27.651  17.851  1.00  0.00     0.182 C 
BRANCH   2   3
HETATM    3  O1  UNL     1     -64.143  28.290  16.643  1.00  0.00    -0.386 OA
HETATM    4  C1  UNL     1     -63.055  28.260  15.779  1.00  0.00     0.202 C 
ENDBRANCH   2   3
BRANCH   2   5
HETATM    5  C4  UNL     1     -62.350  27.517  17.922  1.00  0.00     0.018 A 
HETATM    6  C5  UNL     1     -61.808  26.082  18.069  1.00  0.00     0.008 A 
HETATM    7  C6  UNL     1     -61.677  27.102  19.160  1.00  0.00     0.008 A 
ENDBRANCH   2   5
ENDBRANCH   1   2
BRANCH   1   8
HETATM    8  N1  UNL     1     -65.376  28.098  19.727  1.00  0.00    -0.048 N 
ATOM      9  H13 UNL     1     -65.031  27.482  20.464  1.00  0.00     0.276 HD
ATOM     10  H12 UNL     1     -65.813  28.808  20.315  1.00  0.00     0.276 HD
ATOM     11  H11 UNL     1     -66.057  27.629  19.129  1.00  0.00     0.276 HD
ENDBRANCH   1   8
BRANCH   1  12
HETATM   12  N2  UNL     1     -64.731  29.886  18.353  1.00  0.00    -0.048 N 
ATOM     13  H23 UNL     1     -63.996  30.593  18.381  1.00  0.00     0.276 HD
ATOM     14  H22 UNL     1     -64.832  29.809  17.340  1.00  0.00     0.276 HD
ATOM     15  H21 UNL     1     -65.589  30.214  18.795  1.00  0.00     0.276 HD
ENDBRANCH   1  12
TORSDOF 5
ENDMDL
MODEL 4
REMARK VINA RESULT: -3.420806065      2.049      2.854
REMARK  5 active torsions:
REMARK  status: ('A' for Active; 'I' for Inactive)
REMARK    1  A    between atoms: O1_2  and  C2_3 
REMARK    2  A    between atoms: C2_3  and  C3_4 
REMARK    3  A    between atoms: C2_3  and  C4_13 
REMARK    4  A    between atoms: C3_4  and  N1_5 
REMARK    5  A    between atoms: C3_4  and  N2_9 
ROOT
HETATM    1  C3  UNL     1     -64.813  28.436  19.295  1.00  0.00     0.406 C 
ENDROOT
BRANCH   1   2
HETATM    2  C2  UNL     1     -64.503  28.810  17.837  1.00  0.00     0.182 C 
BRANCH   2   3
HETATM    3  O1  UNL     1     -64.071  30.136  17.885  1.00  0.00    -0.386 OA
HETATM    4  C1  UNL     1     -64.742  30.933  16.965  1.00  0.00     0.202 C 
ENDBRANCH   2   3
BRANCH   2   5
HETATM    5  C4  UNL     1     -63.301  27.988  17.392  1.00  0.00     0.018 A 
HETATM    6  C5  UNL     1     -62.965  28.048  15.890  1.00  0.00     0.008 A 
HETATM    7  C6  UNL     1     -63.462  26.796  16.548  1.00  0.00     0.008 A 
ENDBRANCH   2   5
ENDBRANCH   1   2
BRANCH   1   8
HETATM    8  N1  UNL     1     -64.256  27.147  19.619  1.00  0.00    -0.048 N 
ATOM      9  H13 UNL     1     -64.633  26.781  20.492  1.00  0.00     0.276 HD
ATOM     10  H12 UNL     1     -64.594  26.420  18.989  1.00  0.00     0.276 HD
ATOM     11  H11 UNL     1     -63.236  27.190  19.635  1.00  0.00     0.276 HD
ENDBRANCH   1   8
BRANCH   1  12
HETATM   12  N2  UNL     1     -66.235  28.403  19.519  1.00  0.00    -0.048 N 
ATOM     13  H23 UNL     1     -66.503  27.635  20.135  1.00  0.00     0.276 HD
ATOM     14  H22 UNL     1     -66.544  29.182  20.101  1.00  0.00     0.276 HD
ATOM     15  H21 UNL     1     -66.739  28.369  18.632  1.00  0.00     0.276 HD
ENDBRANCH   1  12
TORSDOF 5
ENDMDL
MODEL 5
REMARK VINA RESULT: -3.264215444      1.804      2.719
REMARK  5 active torsions:
REMARK  status: ('A' for Active; 'I' for Inactive)
REMARK    1  A    between atoms: O1_2  and  C2_3 
REMARK    2  A    between atoms: C2_3  and  C3_4 
REMARK    3  A    between atoms: C2_3  and  C4_13 
REMARK    4  A    between atoms: C3_4  and  N1_5 
REMARK    5  A    between atoms: C3_4  and  N2_9 
ROOT
HETATM    1  C3  UNL     1     -64.852  26.953  20.181  1.00  0.00     0.406 C 
ENDROOT
BRANCH   1   2
HETATM    2  C2  UNL     1     -64.523  27.272  18.714  1.00  0.00     0.182 C 
BRANCH   2   3
HETATM    3  O1  UNL     1     -65.329  28.362  18.389  1.00  0.00    -0.386 OA
HETATM    4  C1  UNL     1     -64.581  29.440  17.928  1.00  0.00     0.202 C 
ENDBRANCH   2   3
BRANCH   2   5
HETATM    5  C4  UNL     1     -63.086  27.774  18.659  1.00  0.00     0.018 A 
HETATM    6  C5  UNL     1     -62.114  26.938  17.804  1.00  0.00     0.008 A 
HETATM    7  C6  UNL     1     -61.992  27.028  19.296  1.00  0.00     0.008 A 
ENDBRANCH   2   5
ENDBRANCH   1   2
BRANCH   1   8
HETATM    8  N1  UNL     1     -65.047  25.537  20.363  1.00  0.00    -0.048 N 
ATOM      9  H13 UNL     1     -65.458  25.103  19.537  1.00  0.00     0.276 HD
ATOM     10  H12 UNL     1     -64.160  25.032  20.375  1.00  0.00     0.276 HD
ATOM     11  H11 UNL     1     -65.599  25.354  21.201  1.00  0.00     0.276 HD
ENDBRANCH   1   8
BRANCH   1  12
HETATM   12  N2  UNL     1     -66.042  27.648  20.597  1.00  0.00    -0.048 N 
ATOM     13  H23 UNL     1     -66.727  27.710  19.843  1.00  0.00     0.276 HD
ATOM     14  H22 UNL     1     -66.591  27.096  21.257  1.00  0.00     0.276 HD
ATOM     15  H21 UNL     1     -65.810  28.568  20.973  1.00  0.00     0.276 HD
ENDBRANCH   1  12
TORSDOF 5
ENDMDL
