MODEL 1
REMARK VINA RESULT: -7.756987386      0.000      0.000
REMARK  8 active torsions:
REMARK  status: ('A' for Active; 'I' for Inactive)
REMARK    1  A    between atoms: C2_2  and  C3_3 
REMARK    2  A    between atoms: C2_2  and  C6_6 
REMARK    3  A    between atoms: C3_3  and  C4_4 
REMARK    4  A    between atoms: C9_9  and  O1_10 
REMARK    5  A    between atoms: C13_15  and  C14_16 
REMARK    6  A    between atoms: C14_16  and  O2_17 
REMARK    7  A    between atoms: C14_16  and  C15_19 
REMARK    8  A    between atoms: C15_19  and  C16_20 
ROOT
HETATM    1  C6  UNL     1      17.130  20.688  48.074  1.00  0.00     0.025 C 
HETATM    2  C7  UNL     1      18.387  21.240  47.342  1.00  0.00     0.001 C 
HETATM    3  C8  UNL     1      19.680  20.948  48.012  1.00  0.00     0.037 C 
HETATM    4  C9  UNL     1      20.587  22.144  47.838  1.00  0.00     0.118 C 
HETATM    5  C10 UNL     1      20.019  23.276  48.625  1.00  0.00     0.032 C 
HETATM    6  C11 UNL     1      18.545  23.018  48.997  1.00  0.00     0.008 C 
HETATM    7  C12 UNL     1      17.840  22.625  47.766  1.00  0.00    -0.002 C 
HETATM    8  C13 UNL     1      16.524  21.975  47.747  1.00  0.00     0.031 C 
ENDROOT
BRANCH   8   9
HETATM    9  C14 UNL     1      15.354  22.484  48.532  1.00  0.00     0.146 C 
BRANCH   9  10
HETATM   10  O2  UNL     1      14.258  22.265  47.727  1.00  0.00    -0.391 OA
ATOM     11  H2  UNL     1      13.557  22.773  48.118  1.00  0.00     0.210 HD
ENDBRANCH   9  10
BRANCH   9  12
HETATM   12  C15 UNL     1      15.482  23.755  49.199  1.00  0.00     0.007 C 
BRANCH  12  13
HETATM   13  C16 UNL     1      14.515  24.279  50.177  1.00  0.00     0.030 C 
HETATM   14  C17 UNL     1      14.564  25.551  50.859  1.00  0.00     0.046 C 
HETATM   15  C18 UNL     1      14.516  26.841  50.125  1.00  0.00     0.065 C 
HETATM   16  O3  UNL     1      15.523  25.613  51.903  1.00  0.00    -0.355 OA
HETATM   17  C19 UNL     1      13.873  27.892  51.066  1.00  0.00     0.009 C 
HETATM   18  C20 UNL     1      14.714  27.874  52.318  1.00  0.00     0.027 C 
HETATM   19  C21 UNL     1      15.068  26.523  52.825  1.00  0.00     0.175 C 
ENDBRANCH  12  13
ENDBRANCH   9  12
ENDBRANCH   8   9
BRANCH   1  20
HETATM   20  C2  UNL     1      16.673  19.412  47.536  1.00  0.00    -0.084 C 
HETATM   21  C1  UNL     1      17.061  19.112  46.258  1.00  0.00     0.014 C 
BRANCH  20  22
HETATM   22  C3  UNL     1      15.787  18.426  48.167  1.00  0.00     0.033 C 
BRANCH  22  23
HETATM   23  C4  UNL     1      14.334  18.759  48.238  1.00  0.00    -0.000 C 
HETATM   24  C5  UNL     1      14.001  19.336  49.644  1.00  0.00     0.005 C 
ENDBRANCH  22  23
ENDBRANCH  20  22
ENDBRANCH   1  20
BRANCH   4  25
HETATM   25  O1  UNL     1      21.912  21.860  48.144  1.00  0.00    -0.396 OA
ATOM     26  H1  UNL     1      22.399  21.537  47.395  1.00  0.00     0.210 HD
ENDBRANCH   4  25
TORSDOF 8
ENDMDL
MODEL 2
REMARK VINA RESULT: -7.576667220      1.928      2.911
REMARK  8 active torsions:
REMARK  status: ('A' for Active; 'I' for Inactive)
REMARK    1  A    between atoms: C2_2  and  C3_3 
REMARK    2  A    between atoms: C2_2  and  C6_6 
REMARK    3  A    between atoms: C3_3  and  C4_4 
REMARK    4  A    between atoms: C9_9  and  O1_10 
REMARK    5  A    between atoms: C13_15  and  C14_16 
REMARK    6  A    between atoms: C14_16  and  O2_17 
REMARK    7  A    between atoms: C14_16  and  C15_19 
REMARK    8  A    between atoms: C15_19  and  C16_20 
ROOT
HETATM    1  C6  UNL     1      16.564  21.455  48.506  1.00  0.00     0.025 C 
HETATM    2  C7  UNL     1      17.170  20.404  47.530  1.00  0.00     0.001 C 
HETATM    3  C8  UNL     1      17.557  19.116  48.158  1.00  0.00     0.037 C 
HETATM    4  C9  UNL     1      18.824  18.625  47.497  1.00  0.00     0.118 C 
HETATM    5  C10 UNL     1      19.930  19.555  47.865  1.00  0.00     0.032 C 
HETATM    6  C11 UNL     1      19.384  20.888  48.417  1.00  0.00     0.008 C 
HETATM    7  C12 UNL     1      18.372  21.378  47.467  1.00  0.00    -0.002 C 
HETATM    8  C13 UNL     1      17.388  22.420  47.784  1.00  0.00     0.031 C 
ENDROOT
BRANCH   8   9
HETATM    9  C14 UNL     1      17.760  23.724  48.421  1.00  0.00     0.146 C 
BRANCH   9  10
HETATM   10  O2  UNL     1      18.831  24.188  47.690  1.00  0.00    -0.391 OA
ATOM     11  H2  UNL     1      18.448  24.640  46.948  1.00  0.00     0.210 HD
ENDBRANCH   9  10
BRANCH   9  12
HETATM   12  C15 UNL     1      17.823  23.787  49.860  1.00  0.00     0.007 C 
BRANCH  12  13
HETATM   13  C16 UNL     1      17.540  24.996  50.649  1.00  0.00     0.030 C 
HETATM   14  C17 UNL     1      16.298  25.730  50.707  1.00  0.00     0.046 C 
HETATM   15  C18 UNL     1      15.041  25.114  51.206  1.00  0.00     0.065 C 
HETATM   16  O3  UNL     1      16.036  26.522  49.559  1.00  0.00    -0.355 OA
HETATM   17  C19 UNL     1      14.171  26.247  51.808  1.00  0.00     0.009 C 
HETATM   18  C20 UNL     1      14.017  27.262  50.705  1.00  0.00     0.027 C 
HETATM   19  C21 UNL     1      15.262  27.583  49.959  1.00  0.00     0.175 C 
ENDBRANCH  12  13
ENDBRANCH   9  12
ENDBRANCH   8   9
BRANCH   1  20
HETATM   20  C2  UNL     1      15.106  21.462  48.499  1.00  0.00    -0.084 C 
HETATM   21  C1  UNL     1      14.492  22.136  49.518  1.00  0.00     0.014 C 
BRANCH  20  22
HETATM   22  C3  UNL     1      14.200  20.774  47.570  1.00  0.00     0.033 C 
BRANCH  22  23
HETATM   23  C4  UNL     1      13.122  19.931  48.163  1.00  0.00    -0.000 C 
HETATM   24  C5  UNL     1      13.732  18.602  48.693  1.00  0.00     0.005 C 
ENDBRANCH  22  23
ENDBRANCH  20  22
ENDBRANCH   1  20
BRANCH   4  25
HETATM   25  O1  UNL     1      19.095  17.293  47.783  1.00  0.00    -0.396 OA
ATOM     26  H1  UNL     1      19.346  16.797  47.013  1.00  0.00     0.210 HD
ENDBRANCH   4  25
TORSDOF 8
ENDMDL
MODEL 3
REMARK VINA RESULT: -7.560993715      0.600      1.658
REMARK  8 active torsions:
REMARK  status: ('A' for Active; 'I' for Inactive)
REMARK    1  A    between atoms: C2_2  and  C3_3 
REMARK    2  A    between atoms: C2_2  and  C6_6 
REMARK    3  A    between atoms: C3_3  and  C4_4 
REMARK    4  A    between atoms: C9_9  and  O1_10 
REMARK    5  A    between atoms: C13_15  and  C14_16 
REMARK    6  A    between atoms: C14_16  and  O2_17 
REMARK    7  A    between atoms: C14_16  and  C15_19 
REMARK    8  A    between atoms: C15_19  and  C16_20 
ROOT
HETATM    1  C6  UNL     1      17.025  20.465  48.167  1.00  0.00     0.025 C 
HETATM    2  C7  UNL     1      18.274  20.973  47.391  1.00  0.00     0.001 C 
HETATM    3  C8  UNL     1      19.571  20.752  48.078  1.00  0.00     0.037 C 
HETATM    4  C9  UNL     1      20.462  21.943  47.808  1.00  0.00     0.118 C 
HETATM    5  C10 UNL     1      19.881  23.126  48.504  1.00  0.00     0.032 C 
HETATM    6  C11 UNL     1      18.410  22.878  48.899  1.00  0.00     0.008 C 
HETATM    7  C12 UNL     1      17.709  22.380  47.704  1.00  0.00    -0.002 C 
HETATM    8  C13 UNL     1      16.402  21.713  47.740  1.00  0.00     0.031 C 
ENDROOT
BRANCH   8   9
HETATM    9  C14 UNL     1      15.226  22.268  48.485  1.00  0.00     0.146 C 
BRANCH   9  10
HETATM   10  O2  UNL     1      14.130  21.956  47.711  1.00  0.00    -0.391 OA
ATOM     11  H2  UNL     1      13.790  22.791  47.414  1.00  0.00     0.210 HD
ENDBRANCH   9  10
BRANCH   9  12
HETATM   12  C15 UNL     1      15.331  23.596  49.034  1.00  0.00     0.007 C 
BRANCH  12  13
HETATM   13  C16 UNL     1      14.510  24.101  50.145  1.00  0.00     0.030 C 
HETATM   14  C17 UNL     1      14.669  25.350  50.853  1.00  0.00     0.046 C 
HETATM   15  C18 UNL     1      14.547  26.663  50.169  1.00  0.00     0.065 C 
HETATM   16  O3  UNL     1      15.757  25.367  51.763  1.00  0.00    -0.355 OA
HETATM   17  C19 UNL     1      14.051  27.692  51.218  1.00  0.00     0.009 C 
HETATM   18  C20 UNL     1      15.048  27.624  52.347  1.00  0.00     0.027 C 
HETATM   19  C21 UNL     1      15.442  26.253  52.763  1.00  0.00     0.175 C 
ENDBRANCH  12  13
ENDBRANCH   9  12
ENDBRANCH   8   9
BRANCH   1  20
HETATM   20  C2  UNL     1      16.585  19.144  47.732  1.00  0.00    -0.084 C 
HETATM   21  C1  UNL     1      15.437  18.663  48.299  1.00  0.00     0.014 C 
BRANCH  20  22
HETATM   22  C3  UNL     1      17.257  18.224  46.806  1.00  0.00     0.033 C 
BRANCH  22  23
HETATM   23  C4  UNL     1      16.646  18.041  45.458  1.00  0.00    -0.000 C 
HETATM   24  C5  UNL     1      17.460  18.845  44.404  1.00  0.00     0.005 C 
ENDBRANCH  22  23
ENDBRANCH  20  22
ENDBRANCH   1  20
BRANCH   4  25
HETATM   25  O1  UNL     1      21.791  21.701  48.133  1.00  0.00    -0.396 OA
ATOM     26  H1  UNL     1      22.203  22.441  48.562  1.00  0.00     0.210 HD
ENDBRANCH   4  25
TORSDOF 8
ENDMDL
MODEL 4
REMARK VINA RESULT: -7.525520437      3.334      8.448
REMARK  8 active torsions:
REMARK  status: ('A' for Active; 'I' for Inactive)
REMARK    1  A    between atoms: C2_2  and  C3_3 
REMARK    2  A    between atoms: C2_2  and  C6_6 
REMARK    3  A    between atoms: C3_3  and  C4_4 
REMARK    4  A    between atoms: C9_9  and  O1_10 
REMARK    5  A    between atoms: C13_15  and  C14_16 
REMARK    6  A    between atoms: C14_16  and  O2_17 
REMARK    7  A    between atoms: C14_16  and  C15_19 
REMARK    8  A    between atoms: C15_19  and  C16_20 
ROOT
HETATM    1  C6  UNL     1      18.470  20.508  47.930  1.00  0.00     0.025 C 
HETATM    2  C7  UNL     1      18.095  22.019  47.969  1.00  0.00     0.001 C 
HETATM    3  C8  UNL     1      17.679  22.527  49.300  1.00  0.00     0.037 C 
HETATM    4  C9  UNL     1      16.570  23.533  49.101  1.00  0.00     0.118 C 
HETATM    5  C10 UNL     1      15.368  22.807  48.599  1.00  0.00     0.032 C 
HETATM    6  C11 UNL     1      15.741  21.410  48.060  1.00  0.00     0.008 C 
HETATM    7  C12 UNL     1      16.869  21.581  47.131  1.00  0.00    -0.002 C 
HETATM    8  C13 UNL     1      17.728  20.481  46.674  1.00  0.00     0.031 C 
ENDROOT
BRANCH   8   9
HETATM    9  C14 UNL     1      17.183  19.190  46.143  1.00  0.00     0.146 C 
BRANCH   9  10
HETATM   10  O2  UNL     1      17.413  18.266  47.139  1.00  0.00    -0.391 OA
ATOM     11  H2  UNL     1      17.873  18.744  47.819  1.00  0.00     0.210 HD
ENDBRANCH   9  10
BRANCH   9  12
HETATM   12  C15 UNL     1      17.486  18.831  44.781  1.00  0.00     0.007 C 
BRANCH  12  13
HETATM   13  C16 UNL     1      17.836  17.472  44.340  1.00  0.00     0.030 C 
HETATM   14  C17 UNL     1      19.158  16.950  44.083  1.00  0.00     0.046 C 
HETATM   15  C18 UNL     1      20.194  16.871  45.145  1.00  0.00     0.065 C 
HETATM   16  O3  UNL     1      19.733  17.401  42.866  1.00  0.00    -0.355 OA
HETATM   17  C19 UNL     1      21.133  15.688  44.796  1.00  0.00     0.009 C 
HETATM   18  C20 UNL     1      21.634  15.973  43.403  1.00  0.00     0.027 C 
HETATM   19  C21 UNL     1      20.600  16.427  42.437  1.00  0.00     0.175 C 
ENDBRANCH  12  13
ENDBRANCH   9  12
ENDBRANCH   8   9
BRANCH   1  20
HETATM   20  C2  UNL     1      19.907  20.277  48.033  1.00  0.00    -0.084 C 
HETATM   21  C1  UNL     1      20.708  21.386  48.014  1.00  0.00     0.014 C 
BRANCH  20  22
HETATM   22  C3  UNL     1      20.617  18.993  48.087  1.00  0.00     0.033 C 
BRANCH  22  23
HETATM   23  C4  UNL     1      21.901  18.953  48.843  1.00  0.00    -0.000 C 
HETATM   24  C5  UNL     1      23.050  18.507  47.894  1.00  0.00     0.005 C 
ENDBRANCH  22  23
ENDBRANCH  20  22
ENDBRANCH   1  20
BRANCH   4  25
HETATM   25  O1  UNL     1      16.328  24.294  50.237  1.00  0.00    -0.396 OA
ATOM     26  H1  UNL     1      16.768  25.136  50.214  1.00  0.00     0.210 HD
ENDBRANCH   4  25
TORSDOF 8
ENDMDL
MODEL 5
REMARK VINA RESULT: -7.518712513      1.659      2.369
REMARK  8 active torsions:
REMARK  status: ('A' for Active; 'I' for Inactive)
REMARK    1  A    between atoms: C2_2  and  C3_3 
REMARK    2  A    between atoms: C2_2  and  C6_6 
REMARK    3  A    between atoms: C3_3  and  C4_4 
REMARK    4  A    between atoms: C9_9  and  O1_10 
REMARK    5  A    between atoms: C13_15  and  C14_16 
REMARK    6  A    between atoms: C14_16  and  O2_17 
REMARK    7  A    between atoms: C14_16  and  C15_19 
REMARK    8  A    between atoms: C15_19  and  C16_20 
ROOT
HETATM    1  C6  UNL     1      16.200  21.973  48.858  1.00  0.00     0.025 C 
HETATM    2  C7  UNL     1      17.412  22.161  47.899  1.00  0.00     0.001 C 
HETATM    3  C8  UNL     1      18.661  21.484  48.328  1.00  0.00     0.037 C 
HETATM    4  C9  UNL     1      19.831  22.370  47.970  1.00  0.00     0.118 C 
HETATM    5  C10 UNL     1      19.769  23.590  48.825  1.00  0.00     0.032 C 
HETATM    6  C11 UNL     1      18.375  23.757  49.463  1.00  0.00     0.008 C 
HETATM    7  C12 UNL     1      17.378  23.630  48.389  1.00  0.00    -0.002 C 
HETATM    8  C13 UNL     1      15.948  23.391  48.621  1.00  0.00     0.031 C 
ENDROOT
BRANCH   8   9
HETATM    9  C14 UNL     1      15.138  24.190  49.596  1.00  0.00     0.146 C 
BRANCH   9  10
HETATM   10  O2  UNL     1      14.850  25.368  48.944  1.00  0.00    -0.391 OA
ATOM     11  H2  UNL     1      15.567  25.953  49.159  1.00  0.00     0.210 HD
ENDBRANCH   9  10
BRANCH   9  12
HETATM   12  C15 UNL     1      15.582  24.246  50.967  1.00  0.00     0.007 C 
BRANCH  12  13
HETATM   13  C16 UNL     1      15.254  25.336  51.899  1.00  0.00     0.030 C 
HETATM   14  C17 UNL     1      16.175  26.243  52.542  1.00  0.00     0.046 C 
HETATM   15  C18 UNL     1      17.038  27.171  51.766  1.00  0.00     0.065 C 
HETATM   16  O3  UNL     1      16.909  25.665  53.610  1.00  0.00    -0.355 OA
HETATM   17  C19 UNL     1      17.309  28.411  52.656  1.00  0.00     0.009 C 
HETATM   18  C20 UNL     1      17.903  27.867  53.930  1.00  0.00     0.027 C 
HETATM   19  C21 UNL     1      17.217  26.673  54.490  1.00  0.00     0.175 C 
ENDBRANCH  12  13
ENDBRANCH   9  12
ENDBRANCH   8   9
BRANCH   1  20
HETATM   20  C2  UNL     1      15.303  20.904  48.435  1.00  0.00    -0.084 C 
HETATM   21  C1  UNL     1      14.158  20.740  49.166  1.00  0.00     0.014 C 
BRANCH  20  22
HETATM   22  C3  UNL     1      15.501  19.926  47.358  1.00  0.00     0.033 C 
BRANCH  22  23
HETATM   23  C4  UNL     1      15.581  18.488  47.745  1.00  0.00    -0.000 C 
HETATM   24  C5  UNL     1      17.058  18.115  48.060  1.00  0.00     0.005 C 
ENDBRANCH  22  23
ENDBRANCH  20  22
ENDBRANCH   1  20
BRANCH   4  25
HETATM   25  O1  UNL     1      21.048  21.702  48.036  1.00  0.00    -0.396 OA
ATOM     26  H1  UNL     1      21.234  21.367  48.906  1.00  0.00     0.210 HD
ENDBRANCH   4  25
TORSDOF 8
ENDMDL
