MODEL 1
REMARK VINA RESULT: -6.537576381      0.000      0.000
REMARK  10 active torsions:
REMARK  status: ('A' for Active; 'I' for Inactive)
REMARK    1  A    between atoms: C2_2  and  O1_3 
REMARK    2  A    between atoms: C2_2  and  C6_7 
REMARK    3  A    between atoms: O1_3  and  C3_4 
REMARK    4  A    between atoms: C8_9  and  C9_10 
REMARK    5  A    between atoms: C8_9  and  C15_20 
REMARK    6  A    between atoms: C9_10  and  C10_11 
REMARK    7  A    between atoms: C10_11  and  O2_12 
REMARK    8  A    between atoms: C10_11  and  C11_14 
REMARK    9  A    between atoms: C11_14  and  C14_17 
REMARK   10  A    between atoms: C14_17  and  O3_18 
ROOT
HETATM    1  C6  UNL     1      19.102  25.440  51.062  1.00  0.00     0.046 C 
HETATM    2  C7  UNL     1      18.159  25.641  52.198  1.00  0.00     0.021 C 
HETATM    3  C8  UNL     1      17.361  26.871  52.305  1.00  0.00    -0.034 C 
HETATM    4  C18 UNL     1      17.753  28.009  51.429  1.00  0.00     0.010 C 
HETATM    5  C19 UNL     1      18.645  27.770  50.291  1.00  0.00     0.006 C 
HETATM    6  C20 UNL     1      19.629  26.641  50.407  1.00  0.00    -0.008 C 
HETATM    7  C21 UNL     1      20.925  27.131  51.105  1.00  0.00     0.011 C 
ENDROOT
BRANCH   3   8
HETATM    8  C9  UNL     1      15.870  26.594  52.242  1.00  0.00     0.042 C 
BRANCH   8   9
HETATM    9  C10 UNL     1      14.935  27.680  52.500  1.00  0.00     0.128 C 
BRANCH   9  10
HETATM   10  O2  UNL     1      14.016  27.458  53.516  1.00  0.00    -0.395 OA
ATOM     11  H2  UNL     1      14.295  27.712  54.388  1.00  0.00     0.210 HD
ENDBRANCH   9  10
BRANCH   9  12
HETATM   12  C11 UNL     1      14.087  27.820  51.221  1.00  0.00    -0.000 C 
HETATM   13  C12 UNL     1      14.414  29.111  50.510  1.00  0.00     0.019 C 
HETATM   14  C13 UNL     1      14.438  26.678  50.294  1.00  0.00     0.019 C 
BRANCH  12  15
HETATM   15  C14 UNL     1      12.631  27.824  51.566  1.00  0.00     0.175 C 
BRANCH  15  16
HETATM   16  O3  UNL     1      12.298  29.039  52.156  1.00  0.00    -0.400 OA
ATOM     17  H3  UNL     1      11.815  29.571  51.534  1.00  0.00     0.209 HD
ENDBRANCH  15  16
ENDBRANCH  12  15
ENDBRANCH   9  12
ENDBRANCH   8   9
ENDBRANCH   3   8
BRANCH   3  18
HETATM   18  C15 UNL     1      17.424  27.433  53.747  1.00  0.00    -0.014 C 
HETATM   19  C16 UNL     1      18.566  28.432  53.872  1.00  0.00     0.010 C 
HETATM   20  C17 UNL     1      17.579  26.434  54.806  1.00  0.00     0.010 C 
ENDBRANCH   3  18
BRANCH   1  21
HETATM   21  C2  UNL     1      18.580  24.449  50.096  1.00  0.00     0.042 C 
HETATM   22  C1  UNL     1      19.300  23.702  49.301  1.00  0.00     0.046 C 
BRANCH  21  23
HETATM   23  O1  UNL     1      17.175  24.263  49.992  1.00  0.00    -0.351 OA
BRANCH  23  24
HETATM   24  C3  UNL     1      16.737  23.011  49.515  1.00  0.00     0.128 A 
HETATM   25  C4  UNL     1      15.358  22.622  49.924  1.00  0.00     0.035 A 
HETATM   26  C5  UNL     1      15.679  22.916  48.482  1.00  0.00     0.035 A 
ENDBRANCH  23  24
ENDBRANCH  21  23
ENDBRANCH   1  21
TORSDOF 10
ENDMDL
MODEL 2
REMARK VINA RESULT: -6.525584531      0.997      1.876
REMARK  10 active torsions:
REMARK  status: ('A' for Active; 'I' for Inactive)
REMARK    1  A    between atoms: C2_2  and  O1_3 
REMARK    2  A    between atoms: C2_2  and  C6_7 
REMARK    3  A    between atoms: O1_3  and  C3_4 
REMARK    4  A    between atoms: C8_9  and  C9_10 
REMARK    5  A    between atoms: C8_9  and  C15_20 
REMARK    6  A    between atoms: C9_10  and  C10_11 
REMARK    7  A    between atoms: C10_11  and  O2_12 
REMARK    8  A    between atoms: C10_11  and  C11_14 
REMARK    9  A    between atoms: C11_14  and  C14_17 
REMARK   10  A    between atoms: C14_17  and  O3_18 
ROOT
HETATM    1  C6  UNL     1      19.197  25.421  51.118  1.00  0.00     0.046 C 
HETATM    2  C7  UNL     1      18.232  25.677  52.223  1.00  0.00     0.021 C 
HETATM    3  C8  UNL     1      17.414  26.898  52.240  1.00  0.00    -0.034 C 
HETATM    4  C18 UNL     1      17.805  27.986  51.302  1.00  0.00     0.010 C 
HETATM    5  C19 UNL     1      18.720  27.692  50.197  1.00  0.00     0.006 C 
HETATM    6  C20 UNL     1      19.718  26.588  50.398  1.00  0.00    -0.008 C 
HETATM    7  C21 UNL     1      20.994  27.141  51.087  1.00  0.00     0.011 C 
ENDROOT
BRANCH   3   8
HETATM    8  C9  UNL     1      15.928  26.594  52.169  1.00  0.00     0.042 C 
BRANCH   8   9
HETATM    9  C10 UNL     1      14.973  27.648  52.481  1.00  0.00     0.128 C 
BRANCH   9  10
HETATM   10  O2  UNL     1      14.068  27.362  53.493  1.00  0.00    -0.395 OA
ATOM     11  H2  UNL     1      14.026  27.996  54.201  1.00  0.00     0.210 HD
ENDBRANCH   9  10
BRANCH   9  12
HETATM   12  C11 UNL     1      14.112  27.823  51.216  1.00  0.00    -0.000 C 
HETATM   13  C12 UNL     1      14.427  29.137  50.541  1.00  0.00     0.019 C 
HETATM   14  C13 UNL     1      14.457  26.712  50.250  1.00  0.00     0.019 C 
BRANCH  12  15
HETATM   15  C14 UNL     1      12.659  27.812  51.575  1.00  0.00     0.175 C 
BRANCH  15  16
HETATM   16  O3  UNL     1      12.321  29.018  52.179  1.00  0.00    -0.400 OA
ATOM     17  H3  UNL     1      11.555  29.383  51.751  1.00  0.00     0.209 HD
ENDBRANCH  15  16
ENDBRANCH  12  15
ENDBRANCH   9  12
ENDBRANCH   8   9
ENDBRANCH   3   8
BRANCH   3  18
HETATM   18  C15 UNL     1      17.444  27.549  53.646  1.00  0.00    -0.014 C 
HETATM   19  C16 UNL     1      18.572  28.566  53.730  1.00  0.00     0.010 C 
HETATM   20  C17 UNL     1      17.588  26.619  54.768  1.00  0.00     0.010 C 
ENDBRANCH   3  18
BRANCH   1  21
HETATM   21  C2  UNL     1      18.708  24.365  50.206  1.00  0.00     0.042 C 
HETATM   22  C1  UNL     1      17.459  24.136  49.899  1.00  0.00     0.046 C 
BRANCH  21  23
HETATM   23  O1  UNL     1      19.650  23.500  49.586  1.00  0.00    -0.351 OA
BRANCH  23  24
HETATM   24  C3  UNL     1      19.663  23.485  48.176  1.00  0.00     0.128 A 
HETATM   25  C4  UNL     1      20.246  24.697  47.534  1.00  0.00     0.035 A 
HETATM   26  C5  UNL     1      20.936  23.362  47.427  1.00  0.00     0.035 A 
ENDBRANCH  23  24
ENDBRANCH  21  23
ENDBRANCH   1  21
TORSDOF 10
ENDMDL
MODEL 3
REMARK VINA RESULT: -6.216080086      2.189      5.659
REMARK  10 active torsions:
REMARK  status: ('A' for Active; 'I' for Inactive)
REMARK    1  A    between atoms: C2_2  and  O1_3 
REMARK    2  A    between atoms: C2_2  and  C6_7 
REMARK    3  A    between atoms: O1_3  and  C3_4 
REMARK    4  A    between atoms: C8_9  and  C9_10 
REMARK    5  A    between atoms: C8_9  and  C15_20 
REMARK    6  A    between atoms: C9_10  and  C10_11 
REMARK    7  A    between atoms: C10_11  and  O2_12 
REMARK    8  A    between atoms: C10_11  and  C11_14 
REMARK    9  A    between atoms: C11_14  and  C14_17 
REMARK   10  A    between atoms: C14_17  and  O3_18 
ROOT
HETATM    1  C6  UNL     1      14.972  28.944  51.282  1.00  0.00     0.046 C 
HETATM    2  C7  UNL     1      15.966  28.340  52.213  1.00  0.00     0.021 C 
HETATM    3  C8  UNL     1      16.204  26.889  52.223  1.00  0.00    -0.034 C 
HETATM    4  C18 UNL     1      15.214  26.038  51.506  1.00  0.00     0.010 C 
HETATM    5  C19 UNL     1      14.281  26.656  50.562  1.00  0.00     0.006 C 
HETATM    6  C20 UNL     1      13.882  28.082  50.813  1.00  0.00    -0.008 C 
HETATM    7  C21 UNL     1      12.674  28.137  51.785  1.00  0.00     0.011 C 
ENDROOT
BRANCH   3   8
HETATM    8  C9  UNL     1      17.632  26.540  51.844  1.00  0.00     0.042 C 
BRANCH   8   9
HETATM    9  C10 UNL     1      17.868  25.617  50.742  1.00  0.00     0.128 C 
BRANCH   9  10
HETATM   10  O2  UNL     1      18.685  24.532  51.029  1.00  0.00    -0.395 OA
ATOM     11  H2  UNL     1      19.465  24.449  50.492  1.00  0.00     0.210 HD
ENDBRANCH   9  10
BRANCH   9  12
HETATM   12  C11 UNL     1      18.635  26.421  49.675  1.00  0.00    -0.000 C 
HETATM   13  C12 UNL     1      17.670  27.136  48.760  1.00  0.00     0.019 C 
HETATM   14  C13 UNL     1      19.467  27.468  50.379  1.00  0.00     0.019 C 
BRANCH  12  15
HETATM   15  C14 UNL     1      19.481  25.505  48.849  1.00  0.00     0.175 C 
BRANCH  15  16
HETATM   16  O3  UNL     1      18.671  24.781  47.981  1.00  0.00    -0.400 OA
ATOM     17  H3  UNL     1      19.153  24.588  47.185  1.00  0.00     0.209 HD
ENDBRANCH  15  16
ENDBRANCH  12  15
ENDBRANCH   9  12
ENDBRANCH   8   9
ENDBRANCH   3   8
BRANCH   3  18
HETATM   18  C15 UNL     1      16.219  26.353  53.676  1.00  0.00    -0.014 C 
HETATM   19  C16 UNL     1      14.924  26.723  54.386  1.00  0.00     0.010 C 
HETATM   20  C17 UNL     1      17.336  26.810  54.504  1.00  0.00     0.010 C 
ENDBRANCH   3  18
BRANCH   1  21
HETATM   21  C2  UNL     1      15.637  29.670  50.179  1.00  0.00     0.042 C 
HETATM   22  C1  UNL     1      16.747  30.352  50.270  1.00  0.00     0.046 C 
BRANCH  21  23
HETATM   23  O1  UNL     1      15.046  29.647  48.886  1.00  0.00    -0.351 OA
BRANCH  23  24
HETATM   24  C3  UNL     1      15.635  30.473  47.907  1.00  0.00     0.128 A 
HETATM   25  C4  UNL     1      15.997  29.789  46.633  1.00  0.00     0.035 A 
HETATM   26  C5  UNL     1      14.905  30.826  46.667  1.00  0.00     0.035 A 
ENDBRANCH  23  24
ENDBRANCH  21  23
ENDBRANCH   1  21
TORSDOF 10
ENDMDL
MODEL 4
REMARK VINA RESULT: -6.140472190      1.928      5.618
REMARK  10 active torsions:
REMARK  status: ('A' for Active; 'I' for Inactive)
REMARK    1  A    between atoms: C2_2  and  O1_3 
REMARK    2  A    between atoms: C2_2  and  C6_7 
REMARK    3  A    between atoms: O1_3  and  C3_4 
REMARK    4  A    between atoms: C8_9  and  C9_10 
REMARK    5  A    between atoms: C8_9  and  C15_20 
REMARK    6  A    between atoms: C9_10  and  C10_11 
REMARK    7  A    between atoms: C10_11  and  O2_12 
REMARK    8  A    between atoms: C10_11  and  C11_14 
REMARK    9  A    between atoms: C11_14  and  C14_17 
REMARK   10  A    between atoms: C14_17  and  O3_18 
ROOT
HETATM    1  C6  UNL     1      14.689  28.649  50.252  1.00  0.00     0.046 C 
HETATM    2  C7  UNL     1      15.613  27.830  49.419  1.00  0.00     0.021 C 
HETATM    3  C8  UNL     1      17.029  27.686  49.785  1.00  0.00    -0.034 C 
HETATM    4  C18 UNL     1      17.559  28.620  50.817  1.00  0.00     0.010 C 
HETATM    5  C19 UNL     1      16.624  29.376  51.653  1.00  0.00     0.006 C 
HETATM    6  C20 UNL     1      15.284  29.716  51.063  1.00  0.00    -0.008 C 
HETATM    7  C21 UNL     1      15.375  31.039  50.259  1.00  0.00     0.011 C 
ENDROOT
BRANCH   3   8
HETATM    8  C9  UNL     1      17.401  26.244  50.080  1.00  0.00     0.042 C 
BRANCH   8   9
HETATM    9  C10 UNL     1      16.940  25.194  49.181  1.00  0.00     0.128 C 
BRANCH   9  10
HETATM   10  O2  UNL     1      15.794  24.521  49.577  1.00  0.00    -0.395 OA
ATOM     11  H2  UNL     1      15.064  25.068  49.843  1.00  0.00     0.210 HD
ENDBRANCH   9  10
BRANCH   9  12
HETATM   12  C11 UNL     1      18.049  24.125  49.180  1.00  0.00    -0.000 C 
HETATM   13  C12 UNL     1      19.071  24.427  48.110  1.00  0.00     0.019 C 
HETATM   14  C13 UNL     1      18.752  24.169  50.517  1.00  0.00     0.019 C 
BRANCH  12  15
HETATM   15  C14 UNL     1      17.463  22.775  48.907  1.00  0.00     0.175 C 
BRANCH  15  16
HETATM   16  O3  UNL     1      17.047  22.709  47.581  1.00  0.00    -0.400 OA
ATOM     17  H3  UNL     1      17.080  23.576  47.195  1.00  0.00     0.209 HD
ENDBRANCH  15  16
ENDBRANCH  12  15
ENDBRANCH   9  12
ENDBRANCH   8   9
ENDBRANCH   3   8
BRANCH   3  18
HETATM   18  C15 UNL     1      17.933  27.902  48.545  1.00  0.00    -0.014 C 
HETATM   19  C16 UNL     1      19.380  28.091  48.977  1.00  0.00     0.010 C 
HETATM   20  C17 UNL     1      17.565  29.029  47.686  1.00  0.00     0.010 C 
ENDBRANCH   3  18
BRANCH   1  21
HETATM   21  C2  UNL     1      13.763  27.797  51.029  1.00  0.00     0.042 C 
HETATM   22  C1  UNL     1      12.634  28.182  51.563  1.00  0.00     0.046 C 
BRANCH  21  23
HETATM   23  O1  UNL     1      14.092  26.430  51.234  1.00  0.00    -0.351 OA
BRANCH  23  24
HETATM   24  C3  UNL     1      14.226  26.005  52.571  1.00  0.00     0.128 A 
HETATM   25  C4  UNL     1      15.572  25.483  52.940  1.00  0.00     0.035 A 
HETATM   26  C5  UNL     1      15.056  26.768  53.534  1.00  0.00     0.035 A 
ENDBRANCH  23  24
ENDBRANCH  21  23
ENDBRANCH   1  21
TORSDOF 10
ENDMDL
MODEL 5
REMARK VINA RESULT: -6.113557205      7.534     11.573
REMARK  10 active torsions:
REMARK  status: ('A' for Active; 'I' for Inactive)
REMARK    1  A    between atoms: C2_2  and  O1_3 
REMARK    2  A    between atoms: C2_2  and  C6_7 
REMARK    3  A    between atoms: O1_3  and  C3_4 
REMARK    4  A    between atoms: C8_9  and  C9_10 
REMARK    5  A    between atoms: C8_9  and  C15_20 
REMARK    6  A    between atoms: C9_10  and  C10_11 
REMARK    7  A    between atoms: C10_11  and  O2_12 
REMARK    8  A    between atoms: C10_11  and  C11_14 
REMARK    9  A    between atoms: C11_14  and  C14_17 
REMARK   10  A    between atoms: C14_17  and  O3_18 
ROOT
HETATM    1  C6  UNL     1      18.423  19.655  47.835  1.00  0.00     0.046 C 
HETATM    2  C7  UNL     1      18.289  18.411  47.027  1.00  0.00     0.021 C 
HETATM    3  C8  UNL     1      17.798  18.463  45.642  1.00  0.00    -0.034 C 
HETATM    4  C18 UNL     1      17.161  19.733  45.198  1.00  0.00     0.010 C 
HETATM    5  C19 UNL     1      17.351  20.951  45.990  1.00  0.00     0.006 C 
HETATM    6  C20 UNL     1      17.569  20.789  47.468  1.00  0.00    -0.008 C 
HETATM    7  C21 UNL     1      16.206  20.721  48.206  1.00  0.00     0.011 C 
ENDROOT
BRANCH   3   8
HETATM    8  C9  UNL     1      18.835  17.970  44.648  1.00  0.00     0.042 C 
BRANCH   8   9
HETATM    9  C10 UNL     1      19.734  16.891  45.036  1.00  0.00     0.128 C 
BRANCH   9  10
HETATM   10  O2  UNL     1      20.910  17.281  45.662  1.00  0.00    -0.395 OA
ATOM     11  H2  UNL     1      21.172  16.758  46.411  1.00  0.00     0.210 HD
ENDBRANCH   9  10
BRANCH   9  12
HETATM   12  C11 UNL     1      20.184  16.225  43.722  1.00  0.00    -0.000 C 
HETATM   13  C12 UNL     1      19.079  15.359  43.166  1.00  0.00     0.019 C 
HETATM   14  C13 UNL     1      20.472  17.313  42.713  1.00  0.00     0.019 C 
BRANCH  12  15
HETATM   15  C14 UNL     1      21.384  15.364  43.966  1.00  0.00     0.175 C 
BRANCH  15  16
HETATM   16  O3  UNL     1      22.533  16.055  43.598  1.00  0.00    -0.400 OA
ATOM     17  H3  UNL     1      22.975  16.373  44.376  1.00  0.00     0.209 HD
ENDBRANCH  15  16
ENDBRANCH  12  15
ENDBRANCH   9  12
ENDBRANCH   8   9
ENDBRANCH   3   8
BRANCH   3  18
HETATM   18  C15 UNL     1      16.725  17.371  45.407  1.00  0.00    -0.014 C 
HETATM   19  C16 UNL     1      16.234  17.418  43.967  1.00  0.00     0.010 C 
HETATM   20  C17 UNL     1      15.556  17.438  46.286  1.00  0.00     0.010 C 
ENDBRANCH   3  18
BRANCH   1  21
HETATM   21  C2  UNL     1      19.840  20.042  48.002  1.00  0.00     0.042 C 
HETATM   22  C1  UNL     1      20.284  21.252  48.214  1.00  0.00     0.046 C 
BRANCH  21  23
HETATM   23  O1  UNL     1      20.841  19.036  47.932  1.00  0.00    -0.351 OA
BRANCH  23  24
HETATM   24  C3  UNL     1      22.093  19.349  48.499  1.00  0.00     0.128 A 
HETATM   25  C4  UNL     1      22.606  18.362  49.491  1.00  0.00     0.035 A 
HETATM   26  C5  UNL     1      23.300  18.555  48.168  1.00  0.00     0.035 A 
ENDBRANCH  23  24
ENDBRANCH  21  23
ENDBRANCH   1  21
TORSDOF 10
ENDMDL
