MODEL 1
REMARK VINA RESULT: -8.120744837      0.000      0.000
REMARK  7 active torsions:
REMARK  status: ('A' for Active; 'I' for Inactive)
REMARK    1  A    between atoms: C2_2  and  C4_4 
REMARK    2  A    between atoms: C4_4  and  C5_5 
REMARK    3  A    between atoms: C5_5  and  N1_7 
REMARK    4  A    between atoms: N1_7  and  C7_10 
REMARK    5  A    between atoms: C7_10  and  C8_11 
REMARK    6  A    between atoms: C11_14  and  C12_15 
REMARK    7  A    between atoms: N2_19  and  C16_20 
ROOT
HETATM    1  C8  UNL     1      19.176  17.139  44.320  1.00  0.00     0.079 A 
HETATM    2  C9  UNL     1      17.936  17.541  43.871  1.00  0.00     0.037 A 
HETATM    3  C10 UNL     1      17.306  18.104  44.955  1.00  0.00     0.036 A 
HETATM    4  C11 UNL     1      18.157  18.032  46.012  1.00  0.00     0.059 A 
HETATM    5  O1  UNL     1      19.251  17.446  45.565  1.00  0.00    -0.317 OA
ENDROOT
BRANCH   4   6
HETATM    6  C12 UNL     1      17.970  18.495  47.423  1.00  0.00     0.071 C 
HETATM    7  C13 UNL     1      18.966  19.578  47.683  1.00  0.00     0.015 C 
HETATM    8  C14 UNL     1      18.441  20.950  47.853  1.00  0.00     0.031 C 
HETATM    9  C15 UNL     1      16.982  21.131  47.494  1.00  0.00     0.273 C 
HETATM   10  N2  UNL     1      16.269  20.112  48.232  1.00  0.00     0.098 N 
HETATM   11  C21 UNL     1      16.558  18.790  47.745  1.00  0.00     0.284 C 
BRANCH  10  12
HETATM   12  C16 UNL     1      14.845  20.327  48.243  1.00  0.00     0.156 C 
HETATM   13  C17 UNL     1      14.045  19.512  47.285  1.00  0.00     0.049 C 
HETATM   14  C18 UNL     1      14.421  21.783  48.171  1.00  0.00     0.041 C 
HETATM   15  C19 UNL     1      14.721  21.847  49.653  1.00  0.00     0.005 C 
HETATM   16  C20 UNL     1      14.335  20.354  49.657  1.00  0.00     0.041 C 
ENDBRANCH  10  12
ENDBRANCH   4   6
BRANCH   1  17
HETATM   17  C7  UNL     1      20.255  16.463  43.515  1.00  0.00     0.297 C 
BRANCH  17  18
HETATM   18  N1  UNL     1      21.446  16.368  44.289  1.00  0.00    -0.066 N 
ATOM     19  H12 UNL     1      21.241  16.190  45.272  1.00  0.00     0.278 HD
ATOM     20  H11 UNL     1      21.903  17.273  44.387  1.00  0.00     0.278 HD
BRANCH  18  21
HETATM   21  C5  UNL     1      22.340  15.378  43.746  1.00  0.00     0.182 C 
HETATM   22  C6  UNL     1      21.613  14.721  42.580  1.00  0.00     0.040 C 
BRANCH  21  23
HETATM   23  C4  UNL     1      22.713  14.387  44.795  1.00  0.00     0.036 C 
BRANCH  23  24
HETATM   24  C2  UNL     1      24.202  14.392  45.091  1.00  0.00    -0.021 C 
HETATM   25  C1  UNL     1      24.532  12.964  45.539  1.00  0.00     0.009 C 
HETATM   26  C3  UNL     1      24.578  15.334  46.185  1.00  0.00     0.009 C 
ENDBRANCH  23  24
ENDBRANCH  21  23
ENDBRANCH  18  21
ENDBRANCH  17  18
ENDBRANCH   1  17
TORSDOF 7
ENDMDL
MODEL 2
REMARK VINA RESULT: -7.895023738      3.615      9.945
REMARK  7 active torsions:
REMARK  status: ('A' for Active; 'I' for Inactive)
REMARK    1  A    between atoms: C2_2  and  C4_4 
REMARK    2  A    between atoms: C4_4  and  C5_5 
REMARK    3  A    between atoms: C5_5  and  N1_7 
REMARK    4  A    between atoms: N1_7  and  C7_10 
REMARK    5  A    between atoms: C7_10  and  C8_11 
REMARK    6  A    between atoms: C11_14  and  C12_15 
REMARK    7  A    between atoms: N2_19  and  C16_20 
ROOT
HETATM    1  C8  UNL     1      15.237  22.669  49.030  1.00  0.00     0.079 A 
HETATM    2  C9  UNL     1      14.635  21.428  49.050  1.00  0.00     0.037 A 
HETATM    3  C10 UNL     1      15.441  20.606  48.299  1.00  0.00     0.036 A 
HETATM    4  C11 UNL     1      16.487  21.348  47.851  1.00  0.00     0.059 A 
HETATM    5  O1  UNL     1      16.304  22.566  48.322  1.00  0.00    -0.317 OA
ENDROOT
BRANCH   4   6
HETATM    6  C12 UNL     1      17.648  20.944  46.997  1.00  0.00     0.071 C 
HETATM    7  C13 UNL     1      18.716  20.417  47.899  1.00  0.00     0.015 C 
HETATM    8  C14 UNL     1      19.001  18.967  47.830  1.00  0.00     0.031 C 
HETATM    9  C15 UNL     1      18.004  18.152  47.036  1.00  0.00     0.273 C 
HETATM   10  N2  UNL     1      17.894  18.810  45.753  1.00  0.00     0.098 N 
HETATM   11  C21 UNL     1      17.250  20.092  45.857  1.00  0.00     0.284 C 
BRANCH  10  12
HETATM   12  C16 UNL     1      17.219  18.004  44.769  1.00  0.00     0.156 C 
HETATM   13  C17 UNL     1      15.888  17.459  45.160  1.00  0.00     0.049 C 
HETATM   14  C18 UNL     1      18.070  16.910  44.151  1.00  0.00     0.041 C 
HETATM   15  C19 UNL     1      18.653  17.991  43.267  1.00  0.00     0.005 C 
HETATM   16  C20 UNL     1      17.278  18.670  43.423  1.00  0.00     0.041 C 
ENDBRANCH  10  12
ENDBRANCH   4   6
BRANCH   1  17
HETATM   17  C7  UNL     1      14.747  23.923  49.706  1.00  0.00     0.297 C 
BRANCH  17  18
HETATM   18  N1  UNL     1      15.050  25.055  48.898  1.00  0.00    -0.066 N 
ATOM     19  H12 UNL     1      14.417  25.128  48.101  1.00  0.00     0.278 HD
ATOM     20  H11 UNL     1      15.925  24.931  48.390  1.00  0.00     0.278 HD
BRANCH  18  21
HETATM   21  C5  UNL     1      15.058  26.264  49.680  1.00  0.00     0.182 C 
HETATM   22  C6  UNL     1      16.519  26.630  49.908  1.00  0.00     0.040 C 
BRANCH  21  23
HETATM   23  C4  UNL     1      14.333  26.054  50.965  1.00  0.00     0.036 C 
BRANCH  23  24
HETATM   24  C2  UNL     1      14.275  27.315  51.809  1.00  0.00    -0.021 C 
HETATM   25  C1  UNL     1      14.519  26.852  53.249  1.00  0.00     0.009 C 
HETATM   26  C3  UNL     1      12.952  28.001  51.745  1.00  0.00     0.009 C 
ENDBRANCH  23  24
ENDBRANCH  21  23
ENDBRANCH  18  21
ENDBRANCH  17  18
ENDBRANCH   1  17
TORSDOF 7
ENDMDL
MODEL 3
REMARK VINA RESULT: -7.725614239      3.609      9.744
REMARK  7 active torsions:
REMARK  status: ('A' for Active; 'I' for Inactive)
REMARK    1  A    between atoms: C2_2  and  C4_4 
REMARK    2  A    between atoms: C4_4  and  C5_5 
REMARK    3  A    between atoms: C5_5  and  N1_7 
REMARK    4  A    between atoms: N1_7  and  C7_10 
REMARK    5  A    between atoms: C7_10  and  C8_11 
REMARK    6  A    between atoms: C11_14  and  C12_15 
REMARK    7  A    between atoms: N2_19  and  C16_20 
ROOT
HETATM    1  C8  UNL     1      15.312  22.784  48.919  1.00  0.00     0.079 A 
HETATM    2  C9  UNL     1      14.661  21.569  48.921  1.00  0.00     0.037 A 
HETATM    3  C10 UNL     1      15.454  20.715  48.191  1.00  0.00     0.036 A 
HETATM    4  C11 UNL     1      16.542  21.415  47.774  1.00  0.00     0.059 A 
HETATM    5  O1  UNL     1      16.394  22.639  48.242  1.00  0.00    -0.317 OA
ENDROOT
BRANCH   4   6
HETATM    6  C12 UNL     1      17.709  20.966  46.953  1.00  0.00     0.071 C 
HETATM    7  C13 UNL     1      18.740  20.419  47.885  1.00  0.00     0.015 C 
HETATM    8  C14 UNL     1      18.984  18.961  47.842  1.00  0.00     0.031 C 
HETATM    9  C15 UNL     1      17.981  18.165  47.035  1.00  0.00     0.273 C 
HETATM   10  N2  UNL     1      17.920  18.809  45.742  1.00  0.00     0.098 N 
HETATM   11  C21 UNL     1      17.312  20.110  45.815  1.00  0.00     0.284 C 
BRANCH  10  12
HETATM   12  C16 UNL     1      17.244  18.010  44.753  1.00  0.00     0.156 C 
HETATM   13  C17 UNL     1      15.905  17.476  45.136  1.00  0.00     0.049 C 
HETATM   14  C18 UNL     1      18.089  16.908  44.139  1.00  0.00     0.041 C 
HETATM   15  C19 UNL     1      18.687  17.985  43.260  1.00  0.00     0.005 C 
HETATM   16  C20 UNL     1      17.317  18.676  43.408  1.00  0.00     0.041 C 
ENDBRANCH  10  12
ENDBRANCH   4   6
BRANCH   1  17
HETATM   17  C7  UNL     1      14.854  24.057  49.583  1.00  0.00     0.297 C 
BRANCH  17  18
HETATM   18  N1  UNL     1      15.705  24.359  50.683  1.00  0.00    -0.066 N 
ATOM     19  H12 UNL     1      16.672  24.491  50.385  1.00  0.00     0.278 HD
ATOM     20  H11 UNL     1      15.838  23.550  51.288  1.00  0.00     0.278 HD
BRANCH  18  21
HETATM   21  C5  UNL     1      15.218  25.497  51.418  1.00  0.00     0.182 C 
HETATM   22  C6  UNL     1      14.521  26.405  50.413  1.00  0.00     0.040 C 
BRANCH  21  23
HETATM   23  C4  UNL     1      16.345  26.192  52.103  1.00  0.00     0.036 C 
BRANCH  23  24
HETATM   24  C2  UNL     1      16.267  26.070  53.615  1.00  0.00    -0.021 C 
HETATM   25  C1  UNL     1      14.955  26.755  54.011  1.00  0.00     0.009 C 
HETATM   26  C3  UNL     1      17.393  26.753  54.315  1.00  0.00     0.009 C 
ENDBRANCH  23  24
ENDBRANCH  21  23
ENDBRANCH  18  21
ENDBRANCH  17  18
ENDBRANCH   1  17
TORSDOF 7
ENDMDL
MODEL 4
REMARK VINA RESULT: -7.657395210      1.685      2.567
REMARK  7 active torsions:
REMARK  status: ('A' for Active; 'I' for Inactive)
REMARK    1  A    between atoms: C2_2  and  C4_4 
REMARK    2  A    between atoms: C4_4  and  C5_5 
REMARK    3  A    between atoms: C5_5  and  N1_7 
REMARK    4  A    between atoms: N1_7  and  C7_10 
REMARK    5  A    between atoms: C7_10  and  C8_11 
REMARK    6  A    between atoms: C11_14  and  C12_15 
REMARK    7  A    between atoms: N2_19  and  C16_20 
ROOT
HETATM    1  C8  UNL     1      18.945  17.023  43.771  1.00  0.00     0.079 A 
HETATM    2  C9  UNL     1      18.476  17.845  42.769  1.00  0.00     0.037 A 
HETATM    3  C10 UNL     1      17.631  18.741  43.380  1.00  0.00     0.036 A 
HETATM    4  C11 UNL     1      17.607  18.449  44.707  1.00  0.00     0.059 A 
HETATM    5  O1  UNL     1      18.411  17.416  44.871  1.00  0.00    -0.317 OA
ENDROOT
BRANCH   4   6
HETATM    6  C12 UNL     1      16.854  19.112  45.817  1.00  0.00     0.071 C 
HETATM    7  C13 UNL     1      16.490  18.060  46.813  1.00  0.00     0.015 C 
HETATM    8  C14 UNL     1      17.172  18.107  48.124  1.00  0.00     0.031 C 
HETATM    9  C15 UNL     1      18.339  19.066  48.208  1.00  0.00     0.273 C 
HETATM   10  N2  UNL     1      17.835  20.338  47.740  1.00  0.00     0.098 N 
HETATM   11  C21 UNL     1      17.539  20.316  46.332  1.00  0.00     0.284 C 
BRANCH  10  12
HETATM   12  C16 UNL     1      18.724  21.432  48.034  1.00  0.00     0.156 C 
HETATM   13  C17 UNL     1      20.179  21.108  48.086  1.00  0.00     0.049 C 
HETATM   14  C18 UNL     1      18.331  22.265  49.241  1.00  0.00     0.041 C 
HETATM   15  C19 UNL     1      17.341  22.953  48.327  1.00  0.00     0.005 C 
HETATM   16  C20 UNL     1      18.357  22.636  47.212  1.00  0.00     0.041 C 
ENDBRANCH  10  12
ENDBRANCH   4   6
BRANCH   1  17
HETATM   17  C7  UNL     1      19.905  15.871  43.622  1.00  0.00     0.297 C 
BRANCH  17  18
HETATM   18  N1  UNL     1      20.998  16.037  44.518  1.00  0.00    -0.066 N 
ATOM     19  H12 UNL     1      20.782  15.671  45.446  1.00  0.00     0.278 HD
ATOM     20  H11 UNL     1      21.136  17.017  44.766  1.00  0.00     0.278 HD
BRANCH  18  21
HETATM   21  C5  UNL     1      22.200  15.452  43.984  1.00  0.00     0.182 C 
HETATM   22  C6  UNL     1      21.862  14.952  42.586  1.00  0.00     0.040 C 
BRANCH  21  23
HETATM   23  C4  UNL     1      22.675  14.349  44.867  1.00  0.00     0.036 C 
BRANCH  23  24
HETATM   24  C2  UNL     1      24.176  14.396  45.094  1.00  0.00    -0.021 C 
HETATM   25  C1  UNL     1      24.569  12.974  45.509  1.00  0.00     0.009 C 
HETATM   26  C3  UNL     1      24.574  15.338  46.180  1.00  0.00     0.009 C 
ENDBRANCH  23  24
ENDBRANCH  21  23
ENDBRANCH  18  21
ENDBRANCH  17  18
ENDBRANCH   1  17
TORSDOF 7
ENDMDL
MODEL 5
REMARK VINA RESULT: -7.583224202      3.558      8.706
REMARK  7 active torsions:
REMARK  status: ('A' for Active; 'I' for Inactive)
REMARK    1  A    between atoms: C2_2  and  C4_4 
REMARK    2  A    between atoms: C4_4  and  C5_5 
REMARK    3  A    between atoms: C5_5  and  N1_7 
REMARK    4  A    between atoms: N1_7  and  C7_10 
REMARK    5  A    between atoms: C7_10  and  C8_11 
REMARK    6  A    between atoms: C11_14  and  C12_15 
REMARK    7  A    between atoms: N2_19  and  C16_20 
ROOT
HETATM    1  C8  UNL     1      15.153  22.399  48.991  1.00  0.00     0.079 A 
HETATM    2  C9  UNL     1      14.611  21.131  48.999  1.00  0.00     0.037 A 
HETATM    3  C10 UNL     1      15.450  20.358  48.232  1.00  0.00     0.036 A 
HETATM    4  C11 UNL     1      16.457  21.155  47.787  1.00  0.00     0.059 A 
HETATM    5  O1  UNL     1      16.218  22.357  48.275  1.00  0.00    -0.317 OA
ENDROOT
BRANCH   4   6
HETATM    6  C12 UNL     1      17.629  20.818  46.920  1.00  0.00     0.071 C 
HETATM    7  C13 UNL     1      18.717  20.302  47.805  1.00  0.00     0.015 C 
HETATM    8  C14 UNL     1      19.053  18.866  47.693  1.00  0.00     0.031 C 
HETATM    9  C15 UNL     1      18.084  18.040  46.875  1.00  0.00     0.273 C 
HETATM   10  N2  UNL     1      17.948  18.733  45.613  1.00  0.00     0.098 N 
HETATM   11  C21 UNL     1      17.259  19.987  45.756  1.00  0.00     0.284 C 
BRANCH  10  12
HETATM   12  C16 UNL     1      17.300  17.932  44.606  1.00  0.00     0.156 C 
HETATM   13  C17 UNL     1      15.965  17.372  44.963  1.00  0.00     0.049 C 
HETATM   14  C18 UNL     1      18.173  16.852  43.992  1.00  0.00     0.041 C 
HETATM   15  C19 UNL     1      18.764  17.949  43.134  1.00  0.00     0.005 C 
HETATM   16  C20 UNL     1      17.380  18.615  43.269  1.00  0.00     0.041 C 
ENDBRANCH  10  12
ENDBRANCH   4   6
BRANCH   1  17
HETATM   17  C7  UNL     1      14.609  23.620  49.687  1.00  0.00     0.297 C 
BRANCH  17  18
HETATM   18  N1  UNL     1      15.040  24.794  49.006  1.00  0.00    -0.066 N 
ATOM     19  H12 UNL     1      14.253  25.306  48.605  1.00  0.00     0.278 HD
ATOM     20  H11 UNL     1      15.534  24.568  48.144  1.00  0.00     0.278 HD
BRANCH  18  21
HETATM   21  C5  UNL     1      15.832  25.632  49.868  1.00  0.00     0.182 C 
HETATM   22  C6  UNL     1      15.329  27.057  49.680  1.00  0.00     0.040 C 
BRANCH  21  23
HETATM   23  C4  UNL     1      17.277  25.506  49.526  1.00  0.00     0.036 C 
BRANCH  23  24
HETATM   24  C2  UNL     1      18.006  24.536  50.440  1.00  0.00    -0.021 C 
HETATM   25  C1  UNL     1      18.699  25.411  51.490  1.00  0.00     0.009 C 
HETATM   26  C3  UNL     1      19.042  23.730  49.731  1.00  0.00     0.009 C 
ENDBRANCH  23  24
ENDBRANCH  21  23
ENDBRANCH  18  21
ENDBRANCH  17  18
ENDBRANCH   1  17
TORSDOF 7
ENDMDL
