MODEL 1
REMARK VINA RESULT: -6.899467410      0.000      0.000
REMARK  9 active torsions:
REMARK  status: ('A' for Active; 'I' for Inactive)
REMARK    1  A    between atoms: C2_2  and  C3_3 
REMARK    2  A    between atoms: C3_3  and  C5_5 
REMARK    3  A    between atoms: C6_6  and  C7_7 
REMARK    4  A    between atoms: C12_13  and  O2_14 
REMARK    5  A    between atoms: C17_20  and  C18_21 
REMARK    6  A    between atoms: C18_21  and  C19_22 
REMARK    7  A    between atoms: C19_22  and  C20_23 
REMARK    8  A    between atoms: C20_23  and  C21_24 
REMARK    9  A    between atoms: C21_24  and  O3_25 
ROOT
HETATM    1  C7  UNL     1      15.297  25.043  51.303  1.00  0.00     0.154 C 
HETATM    2  O1  UNL     1      14.235  25.883  51.294  1.00  0.00    -0.371 OA
HETATM    3  C8  UNL     1      14.563  27.176  51.592  1.00  0.00     0.061 C 
HETATM    4  C9  UNL     1      13.841  28.179  50.672  1.00  0.00     0.046 C 
HETATM    5  C10 UNL     1      14.108  27.500  52.967  1.00  0.00     0.046 C 
HETATM    6  C11 UNL     1      16.007  27.269  51.298  1.00  0.00     0.060 C 
HETATM    7  C12 UNL     1      16.780  28.302  51.970  1.00  0.00     0.129 C 
HETATM    8  C13 UNL     1      17.374  28.055  53.294  1.00  0.00     0.011 C 
HETATM    9  C14 UNL     1      18.586  28.955  53.462  1.00  0.00     0.012 C 
HETATM   10  C15 UNL     1      17.796  26.642  53.571  1.00  0.00     0.007 C 
HETATM   11  C16 UNL     1      17.031  25.597  52.884  1.00  0.00     0.013 C 
HETATM   12  C17 UNL     1      16.531  25.893  51.483  1.00  0.00    -0.002 C 
ENDROOT
BRANCH   1  13
HETATM   13  C6  UNL     1      15.250  24.273  50.045  1.00  0.00     0.002 C 
HETATM   14  C5  UNL     1      15.004  22.999  49.906  1.00  0.00    -0.024 C 
BRANCH  14  15
HETATM   15  C3  UNL     1      14.945  22.182  48.691  1.00  0.00     0.003 C 
HETATM   16  C4  UNL     1      14.261  20.857  49.083  1.00  0.00     0.014 C 
BRANCH  15  17
HETATM   17  C2  UNL     1      16.224  21.911  47.985  1.00  0.00     0.003 C 
HETATM   18  C1  UNL     1      16.407  20.537  47.445  1.00  0.00     0.006 C 
ENDBRANCH  15  17
ENDBRANCH  14  15
ENDBRANCH   1  13
BRANCH  12  19
HETATM   19  C18 UNL     1      17.546  25.462  50.439  1.00  0.00     0.013 C 
BRANCH  19  20
HETATM   20  C19 UNL     1      18.624  24.552  50.823  1.00  0.00     0.003 C 
BRANCH  20  21
HETATM   21  C20 UNL     1      18.985  23.673  49.592  1.00  0.00     0.026 C 
BRANCH  21  22
HETATM   22  C21 UNL     1      18.720  24.572  48.388  1.00  0.00     0.164 C 
BRANCH  22  23
HETATM   23  O3  UNL     1      19.346  24.094  47.259  1.00  0.00    -0.401 OA
ATOM     24  H3  UNL     1      18.725  23.952  46.555  1.00  0.00     0.209 HD
ENDBRANCH  22  23
ENDBRANCH  21  22
ENDBRANCH  20  21
ENDBRANCH  19  20
ENDBRANCH  12  19
BRANCH   7  25
HETATM   25  O2  UNL     1      15.988  29.497  52.091  1.00  0.00    -0.395 OA
ATOM     26  H2  UNL     1      16.327  30.034  52.797  1.00  0.00     0.210 HD
ENDBRANCH   7  25
TORSDOF 9
ENDMDL
MODEL 2
REMARK VINA RESULT: -6.801166055      1.796      4.029
REMARK  9 active torsions:
REMARK  status: ('A' for Active; 'I' for Inactive)
REMARK    1  A    between atoms: C2_2  and  C3_3 
REMARK    2  A    between atoms: C3_3  and  C5_5 
REMARK    3  A    between atoms: C6_6  and  C7_7 
REMARK    4  A    between atoms: C12_13  and  O2_14 
REMARK    5  A    between atoms: C17_20  and  C18_21 
REMARK    6  A    between atoms: C18_21  and  C19_22 
REMARK    7  A    between atoms: C19_22  and  C20_23 
REMARK    8  A    between atoms: C20_23  and  C21_24 
REMARK    9  A    between atoms: C21_24  and  O3_25 
ROOT
HETATM    1  C7  UNL     1      17.653  26.441  50.322  1.00  0.00     0.154 C 
HETATM    2  O1  UNL     1      18.104  26.510  51.596  1.00  0.00    -0.371 OA
HETATM    3  C8  UNL     1      17.114  26.733  52.512  1.00  0.00     0.061 C 
HETATM    4  C9  UNL     1      17.284  25.858  53.767  1.00  0.00     0.046 C 
HETATM    5  C10 UNL     1      17.188  28.135  52.991  1.00  0.00     0.046 C 
HETATM    6  C11 UNL     1      15.877  26.295  51.833  1.00  0.00     0.060 C 
HETATM    7  C12 UNL     1      14.612  26.855  52.283  1.00  0.00     0.129 C 
HETATM    8  C13 UNL     1      14.110  28.121  51.726  1.00  0.00     0.011 C 
HETATM    9  C14 UNL     1      12.595  28.140  51.843  1.00  0.00     0.012 C 
HETATM   10  C15 UNL     1      14.473  28.400  50.297  1.00  0.00     0.007 C 
HETATM   11  C16 UNL     1      15.740  27.825  49.833  1.00  0.00     0.013 C 
HETATM   12  C17 UNL     1      16.145  26.472  50.385  1.00  0.00    -0.002 C 
ENDROOT
BRANCH   1  13
HETATM   13  C6  UNL     1      18.226  25.218  49.725  1.00  0.00     0.002 C 
HETATM   14  C5  UNL     1      19.066  25.143  48.729  1.00  0.00    -0.024 C 
BRANCH  14  15
HETATM   15  C3  UNL     1      19.666  23.966  48.096  1.00  0.00     0.003 C 
HETATM   16  C4  UNL     1      20.472  24.480  46.886  1.00  0.00     0.014 C 
BRANCH  15  17
HETATM   17  C2  UNL     1      18.751  22.872  47.676  1.00  0.00     0.003 C 
HETATM   18  C1  UNL     1      18.951  21.552  48.331  1.00  0.00     0.006 C 
ENDBRANCH  15  17
ENDBRANCH  14  15
ENDBRANCH   1  13
BRANCH  12  19
HETATM   19  C18 UNL     1      15.623  25.346  49.508  1.00  0.00     0.013 C 
BRANCH  19  20
HETATM   20  C19 UNL     1      14.781  24.309  50.104  1.00  0.00     0.003 C 
BRANCH  20  21
HETATM   21  C20 UNL     1      15.573  22.970  50.095  1.00  0.00     0.026 C 
BRANCH  21  22
HETATM   22  C21 UNL     1      14.791  22.068  49.144  1.00  0.00     0.164 C 
BRANCH  22  23
HETATM   23  O3  UNL     1      14.858  22.530  47.849  1.00  0.00    -0.401 OA
ATOM     24  H3  UNL     1      14.961  21.815  47.233  1.00  0.00     0.209 HD
ENDBRANCH  22  23
ENDBRANCH  21  22
ENDBRANCH  20  21
ENDBRANCH  19  20
ENDBRANCH  12  19
BRANCH   7  25
HETATM   25  O2  UNL     1      14.636  27.016  53.712  1.00  0.00    -0.395 OA
ATOM     26  H2  UNL     1      14.041  26.392  54.113  1.00  0.00     0.210 HD
ENDBRANCH   7  25
TORSDOF 9
ENDMDL
MODEL 3
REMARK VINA RESULT: -6.720145944      0.584      1.053
REMARK  9 active torsions:
REMARK  status: ('A' for Active; 'I' for Inactive)
REMARK    1  A    between atoms: C2_2  and  C3_3 
REMARK    2  A    between atoms: C3_3  and  C5_5 
REMARK    3  A    between atoms: C6_6  and  C7_7 
REMARK    4  A    between atoms: C12_13  and  O2_14 
REMARK    5  A    between atoms: C17_20  and  C18_21 
REMARK    6  A    between atoms: C18_21  and  C19_22 
REMARK    7  A    between atoms: C19_22  and  C20_23 
REMARK    8  A    between atoms: C20_23  and  C21_24 
REMARK    9  A    between atoms: C21_24  and  O3_25 
ROOT
HETATM    1  C7  UNL     1      15.547  24.892  51.487  1.00  0.00     0.154 C 
HETATM    2  O1  UNL     1      14.392  25.596  51.455  1.00  0.00    -0.371 OA
HETATM    3  C8  UNL     1      14.569  26.940  51.639  1.00  0.00     0.061 C 
HETATM    4  C9  UNL     1      13.704  27.771  50.674  1.00  0.00     0.046 C 
HETATM    5  C10 UNL     1      14.121  27.318  53.002  1.00  0.00     0.046 C 
HETATM    6  C11 UNL     1      15.982  27.178  51.281  1.00  0.00     0.060 C 
HETATM    7  C12 UNL     1      16.644  28.346  51.841  1.00  0.00     0.129 C 
HETATM    8  C13 UNL     1      17.303  28.280  53.155  1.00  0.00     0.011 C 
HETATM    9  C14 UNL     1      18.403  29.328  53.204  1.00  0.00     0.012 C 
HETATM   10  C15 UNL     1      17.902  26.955  53.524  1.00  0.00     0.007 C 
HETATM   11  C16 UNL     1      17.248  25.774  52.950  1.00  0.00     0.013 C 
HETATM   12  C17 UNL     1      16.674  25.894  51.552  1.00  0.00    -0.002 C 
ENDROOT
BRANCH   1  13
HETATM   13  C6  UNL     1      15.555  24.021  50.295  1.00  0.00     0.002 C 
HETATM   14  C5  UNL     1      15.509  22.717  50.267  1.00  0.00    -0.024 C 
BRANCH  14  15
HETATM   15  C3  UNL     1      15.515  21.803  49.123  1.00  0.00     0.003 C 
HETATM   16  C4  UNL     1      16.329  22.494  48.010  1.00  0.00     0.014 C 
BRANCH  15  17
HETATM   17  C2  UNL     1      14.199  21.356  48.595  1.00  0.00     0.003 C 
HETATM   18  C1  UNL     1      13.668  20.076  49.132  1.00  0.00     0.006 C 
ENDBRANCH  15  17
ENDBRANCH  14  15
ENDBRANCH   1  13
BRANCH  12  19
HETATM   19  C18 UNL     1      17.702  25.502  50.504  1.00  0.00     0.013 C 
BRANCH  19  20
HETATM   20  C19 UNL     1      18.798  24.608  50.877  1.00  0.00     0.003 C 
BRANCH  20  21
HETATM   21  C20 UNL     1      19.324  23.913  49.589  1.00  0.00     0.026 C 
BRANCH  21  22
HETATM   22  C21 UNL     1      19.104  24.941  48.482  1.00  0.00     0.164 C 
BRANCH  22  23
HETATM   23  O3  UNL     1      19.312  24.388  47.239  1.00  0.00    -0.401 OA
ATOM     24  H3  UNL     1      19.059  23.473  47.222  1.00  0.00     0.209 HD
ENDBRANCH  22  23
ENDBRANCH  21  22
ENDBRANCH  20  21
ENDBRANCH  19  20
ENDBRANCH  12  19
BRANCH   7  25
HETATM   25  O2  UNL     1      15.718  29.445  51.900  1.00  0.00    -0.395 OA
ATOM     26  H2  UNL     1      14.842  29.135  51.699  1.00  0.00     0.210 HD
ENDBRANCH   7  25
TORSDOF 9
ENDMDL
MODEL 4
REMARK VINA RESULT: -6.609971963      2.388      5.173
REMARK  9 active torsions:
REMARK  status: ('A' for Active; 'I' for Inactive)
REMARK    1  A    between atoms: C2_2  and  C3_3 
REMARK    2  A    between atoms: C3_3  and  C5_5 
REMARK    3  A    between atoms: C6_6  and  C7_7 
REMARK    4  A    between atoms: C12_13  and  O2_14 
REMARK    5  A    between atoms: C17_20  and  C18_21 
REMARK    6  A    between atoms: C18_21  and  C19_22 
REMARK    7  A    between atoms: C19_22  and  C20_23 
REMARK    8  A    between atoms: C20_23  and  C21_24 
REMARK    9  A    between atoms: C21_24  and  O3_25 
ROOT
HETATM    1  C7  UNL     1      16.672  22.662  47.970  1.00  0.00     0.154 C 
HETATM    2  O1  UNL     1      17.892  23.249  47.961  1.00  0.00    -0.371 OA
HETATM    3  C8  UNL     1      18.114  24.057  49.042  1.00  0.00     0.061 C 
HETATM    4  C9  UNL     1      19.532  23.873  49.615  1.00  0.00     0.046 C 
HETATM    5  C10 UNL     1      18.036  25.478  48.624  1.00  0.00     0.046 C 
HETATM    6  C11 UNL     1      17.161  23.579  50.063  1.00  0.00     0.060 C 
HETATM    7  C12 UNL     1      16.757  24.503  51.112  1.00  0.00     0.129 C 
HETATM    8  C13 UNL     1      15.621  25.416  50.913  1.00  0.00     0.011 C 
HETATM    9  C14 UNL     1      15.028  25.761  52.269  1.00  0.00     0.012 C 
HETATM   10  C15 UNL     1      14.516  24.909  50.034  1.00  0.00     0.007 C 
HETATM   11  C16 UNL     1      14.914  23.964  48.985  1.00  0.00     0.013 C 
HETATM   12  C17 UNL     1      16.034  22.991  49.298  1.00  0.00    -0.002 C 
ENDROOT
BRANCH   1  13
HETATM   13  C6  UNL     1      16.882  21.223  47.719  1.00  0.00     0.002 C 
HETATM   14  C5  UNL     1      18.018  20.613  47.519  1.00  0.00    -0.024 C 
BRANCH  14  15
HETATM   15  C3  UNL     1      18.289  19.195  47.265  1.00  0.00     0.003 C 
HETATM   16  C4  UNL     1      17.133  18.404  47.909  1.00  0.00     0.014 C 
BRANCH  15  17
HETATM   17  C2  UNL     1      19.598  18.655  47.719  1.00  0.00     0.003 C 
HETATM   18  C1  UNL     1      20.608  19.651  48.164  1.00  0.00     0.006 C 
ENDBRANCH  15  17
ENDBRANCH  14  15
ENDBRANCH   1  13
BRANCH  12  19
HETATM   19  C18 UNL     1      15.487  21.699  49.880  1.00  0.00     0.013 C 
BRANCH  19  20
HETATM   20  C19 UNL     1      14.173  21.221  49.449  1.00  0.00     0.003 C 
BRANCH  20  21
HETATM   21  C20 UNL     1      14.121  19.680  49.654  1.00  0.00     0.026 C 
BRANCH  21  22
HETATM   22  C21 UNL     1      13.331  19.160  48.457  1.00  0.00     0.164 C 
BRANCH  22  23
HETATM   23  O3  UNL     1      13.433  20.015  47.382  1.00  0.00    -0.401 OA
ATOM     24  H3  UNL     1      14.338  20.133  47.120  1.00  0.00     0.209 HD
ENDBRANCH  22  23
ENDBRANCH  21  22
ENDBRANCH  20  21
ENDBRANCH  19  20
ENDBRANCH  12  19
BRANCH   7  25
HETATM   25  O2  UNL     1      17.879  25.319  51.494  1.00  0.00    -0.395 OA
ATOM     26  H2  UNL     1      17.725  25.689  52.356  1.00  0.00     0.210 HD
ENDBRANCH   7  25
TORSDOF 9
ENDMDL
MODEL 5
REMARK VINA RESULT: -6.608314346      1.281      1.385
REMARK  9 active torsions:
REMARK  status: ('A' for Active; 'I' for Inactive)
REMARK    1  A    between atoms: C2_2  and  C3_3 
REMARK    2  A    between atoms: C3_3  and  C5_5 
REMARK    3  A    between atoms: C6_6  and  C7_7 
REMARK    4  A    between atoms: C12_13  and  O2_14 
REMARK    5  A    between atoms: C17_20  and  C18_21 
REMARK    6  A    between atoms: C18_21  and  C19_22 
REMARK    7  A    between atoms: C19_22  and  C20_23 
REMARK    8  A    between atoms: C20_23  and  C21_24 
REMARK    9  A    between atoms: C21_24  and  O3_25 
ROOT
HETATM    1  C7  UNL     1      15.319  24.967  51.326  1.00  0.00     0.154 C 
HETATM    2  O1  UNL     1      14.249  25.794  51.353  1.00  0.00    -0.371 OA
HETATM    3  C8  UNL     1      14.573  27.095  51.623  1.00  0.00     0.061 C 
HETATM    4  C9  UNL     1      13.802  28.079  50.723  1.00  0.00     0.046 C 
HETATM    5  C10 UNL     1      14.174  27.428  53.012  1.00  0.00     0.046 C 
HETATM    6  C11 UNL     1      16.003  27.201  51.266  1.00  0.00     0.060 C 
HETATM    7  C12 UNL     1      16.791  28.250  51.894  1.00  0.00     0.129 C 
HETATM    8  C13 UNL     1      17.443  28.025  53.194  1.00  0.00     0.011 C 
HETATM    9  C14 UNL     1      18.651  28.940  53.301  1.00  0.00     0.012 C 
HETATM   10  C15 UNL     1      17.893  26.620  53.469  1.00  0.00     0.007 C 
HETATM   11  C16 UNL     1      17.112  25.559  52.826  1.00  0.00     0.013 C 
HETATM   12  C17 UNL     1      16.550  25.833  51.444  1.00  0.00    -0.002 C 
ENDROOT
BRANCH   1  13
HETATM   13  C6  UNL     1      15.228  24.182  50.080  1.00  0.00     0.002 C 
HETATM   14  C5  UNL     1      15.335  22.888  49.950  1.00  0.00    -0.024 C 
BRANCH  14  15
HETATM   15  C3  UNL     1      15.255  22.056  48.747  1.00  0.00     0.003 C 
HETATM   16  C4  UNL     1      14.268  20.915  49.064  1.00  0.00     0.014 C 
BRANCH  15  17
HETATM   17  C2  UNL     1      16.527  21.501  48.211  1.00  0.00     0.003 C 
HETATM   18  C1  UNL     1      17.621  22.474  47.959  1.00  0.00     0.006 C 
ENDBRANCH  15  17
ENDBRANCH  14  15
ENDBRANCH   1  13
BRANCH  12  19
HETATM   19  C18 UNL     1      17.525  25.402  50.363  1.00  0.00     0.013 C 
BRANCH  19  20
HETATM   20  C19 UNL     1      18.739  24.678  50.742  1.00  0.00     0.003 C 
BRANCH  20  21
HETATM   21  C20 UNL     1      19.918  25.216  49.882  1.00  0.00     0.026 C 
BRANCH  21  22
HETATM   22  C21 UNL     1      20.076  26.671  50.315  1.00  0.00     0.164 C 
BRANCH  22  23
HETATM   23  O3  UNL     1      21.022  26.797  51.307  1.00  0.00    -0.401 OA
ATOM     24  H3  UNL     1      20.848  27.552  51.855  1.00  0.00     0.209 HD
ENDBRANCH  22  23
ENDBRANCH  21  22
ENDBRANCH  20  21
ENDBRANCH  19  20
ENDBRANCH  12  19
BRANCH   7  25
HETATM   25  O2  UNL     1      15.991  29.437  52.035  1.00  0.00    -0.395 OA
ATOM     26  H2  UNL     1      16.176  29.849  52.871  1.00  0.00     0.210 HD
ENDBRANCH   7  25
TORSDOF 9
ENDMDL
