MODEL 1
REMARK VINA RESULT: -8.731519155      0.000      0.000
REMARK  8 active torsions:
REMARK  status: ('A' for Active; 'I' for Inactive)
REMARK    1  A    between atoms: N1_1  and  C1_4 
REMARK    2  A    between atoms: C2_7  and  C3_8 
REMARK    3  A    between atoms: C3_8  and  N3_9 
REMARK    4  A    between atoms: N3_9  and  C4_10 
REMARK       I    between atoms: N3_9  and  C11_17 
REMARK    5  A    between atoms: C4_10  and  C5_11 
REMARK    6  A    between atoms: C5_11  and  C6_12 
REMARK    7  A    between atoms: C11_17  and  C12_19 
REMARK    8  A    between atoms: C12_19  and  C13_20 
ROOT
HETATM    1  N3  UNL     1      17.197  17.673  43.937  1.00  0.00    -0.347 N 
HETATM    2  C11 UNL     1      16.580  17.978  45.172  1.00  0.00     0.220 C 
HETATM    3  O1  UNL     1      15.578  17.318  45.533  1.00  0.00    -0.273 OA
ENDROOT
BRANCH   1   4
HETATM    4  C3  UNL     1      16.640  16.603  43.140  1.00  0.00     0.183 C 
BRANCH   4   5
HETATM    5  C2  UNL     1      15.526  17.025  42.270  1.00  0.00     0.045 A 
HETATM    6  N2  UNL     1      15.712  17.608  41.094  1.00  0.00    -0.194 N 
HETATM    7  C1  UNL     1      14.662  17.967  40.352  1.00  0.00     0.675 A 
ATOM      8  H2  UNL     1      16.658  17.782  40.755  1.00  0.00     0.184 HD
HETATM    9  N4  UNL     1      13.408  17.745  40.782  1.00  0.00    -0.202 N 
HETATM   10  C20 UNL     1      13.169  17.154  41.975  1.00  0.00     0.108 A 
ATOM     11  H4  UNL     1      12.621  18.028  40.197  1.00  0.00     0.183 HD
HETATM   12  C19 UNL     1      14.255  16.789  42.728  1.00  0.00     0.045 A 
BRANCH   7  13
HETATM   13  N1  UNL     1      14.873  18.531  39.216  1.00  0.00    -0.234 N 
ATOM     14  H12 UNL     1      14.981  17.969  38.371  1.00  0.00     0.174 HD
ATOM     15  H11 UNL     1      14.928  19.549  39.178  1.00  0.00     0.174 HD
ENDBRANCH   7  13
ENDBRANCH   4   5
ENDBRANCH   1   4
BRANCH   1  16
HETATM   16  C4  UNL     1      18.356  18.347  43.425  1.00  0.00     0.126 C 
BRANCH  16  17
HETATM   17  C5  UNL     1      19.118  17.662  42.362  1.00  0.00     0.024 C 
BRANCH  17  18
HETATM   18  C6  UNL     1      20.390  17.121  43.002  1.00  0.00    -0.013 C 
HETATM   19  C7  UNL     1      20.779  15.787  42.410  1.00  0.00     0.005 C 
HETATM   20  C8  UNL     1      21.734  15.251  43.447  1.00  0.00     0.000 C 
HETATM   21  C9  UNL     1      21.418  15.931  44.741  1.00  0.00     0.000 C 
HETATM   22  C10 UNL     1      20.164  16.757  44.455  1.00  0.00     0.005 C 
ENDBRANCH  17  18
ENDBRANCH  16  17
ENDBRANCH   1  16
BRANCH   2  23
HETATM   23  C12 UNL     1      17.062  19.051  46.073  1.00  0.00     0.107 C 
BRANCH  23  24
HETATM   24  C13 UNL     1      16.080  19.548  47.057  1.00  0.00    -0.006 C 
HETATM   25  C14 UNL     1      15.829  18.687  48.250  1.00  0.00     0.005 C 
HETATM   26  C15 UNL     1      14.469  19.148  48.804  1.00  0.00     0.000 C 
HETATM   27  C16 UNL     1      14.546  20.612  49.188  1.00  0.00     0.000 C 
HETATM   28  C17 UNL     1      14.996  21.486  48.040  1.00  0.00     0.000 C 
HETATM   29  C18 UNL     1      16.342  20.950  47.557  1.00  0.00     0.005 C 
ENDBRANCH  23  24
ENDBRANCH   2  23
TORSDOF 8
ENDMDL
MODEL 2
REMARK VINA RESULT: -8.570018906      1.577      2.413
REMARK  8 active torsions:
REMARK  status: ('A' for Active; 'I' for Inactive)
REMARK    1  A    between atoms: N1_1  and  C1_4 
REMARK    2  A    between atoms: C2_7  and  C3_8 
REMARK    3  A    between atoms: C3_8  and  N3_9 
REMARK    4  A    between atoms: N3_9  and  C4_10 
REMARK       I    between atoms: N3_9  and  C11_17 
REMARK    5  A    between atoms: C4_10  and  C5_11 
REMARK    6  A    between atoms: C5_11  and  C6_12 
REMARK    7  A    between atoms: C11_17  and  C12_19 
REMARK    8  A    between atoms: C12_19  and  C13_20 
ROOT
HETATM    1  N3  UNL     1      17.165  17.946  44.050  1.00  0.00    -0.347 N 
HETATM    2  C11 UNL     1      16.584  18.426  45.247  1.00  0.00     0.220 C 
HETATM    3  O1  UNL     1      15.603  17.817  45.735  1.00  0.00    -0.273 OA
ENDROOT
BRANCH   1   4
HETATM    4  C3  UNL     1      16.597  16.766  43.439  1.00  0.00     0.183 C 
BRANCH   4   5
HETATM    5  C2  UNL     1      15.511  17.054  42.482  1.00  0.00     0.045 A 
HETATM    6  N2  UNL     1      15.734  17.512  41.258  1.00  0.00    -0.194 N 
HETATM    7  C1  UNL     1      14.709  17.753  40.438  1.00  0.00     0.675 A 
ATOM      8  H2  UNL     1      16.689  17.682  40.942  1.00  0.00     0.184 HD
HETATM    9  N4  UNL     1      13.443  17.536  40.835  1.00  0.00    -0.202 N 
HETATM   10  C20 UNL     1      13.168  17.068  42.074  1.00  0.00     0.108 A 
ATOM     11  H4  UNL     1      12.677  17.727  40.190  1.00  0.00     0.183 HD
HETATM   12  C19 UNL     1      14.228  16.824  42.908  1.00  0.00     0.045 A 
BRANCH   7  13
HETATM   13  N1  UNL     1      14.955  18.198  39.257  1.00  0.00    -0.234 N 
ATOM     14  H12 UNL     1      14.751  17.629  38.435  1.00  0.00     0.174 HD
ATOM     15  H11 UNL     1      15.357  19.131  39.160  1.00  0.00     0.174 HD
ENDBRANCH   7  13
ENDBRANCH   4   5
ENDBRANCH   1   4
BRANCH   1  16
HETATM   16  C4  UNL     1      18.297  18.548  43.406  1.00  0.00     0.126 C 
BRANCH  16  17
HETATM   17  C5  UNL     1      19.031  17.722  42.427  1.00  0.00     0.024 C 
BRANCH  17  18
HETATM   18  C6  UNL     1      20.279  17.201  43.130  1.00  0.00    -0.013 C 
HETATM   19  C7  UNL     1      21.056  16.257  42.243  1.00  0.00     0.005 C 
HETATM   20  C8  UNL     1      21.937  15.545  43.239  1.00  0.00     0.000 C 
HETATM   21  C9  UNL     1      21.272  15.645  44.576  1.00  0.00     0.000 C 
HETATM   22  C10 UNL     1      19.920  16.301  44.295  1.00  0.00     0.005 C 
ENDBRANCH  17  18
ENDBRANCH  16  17
ENDBRANCH   1  16
BRANCH   2  23
HETATM   23  C12 UNL     1      17.080  19.624  45.964  1.00  0.00     0.107 C 
BRANCH  23  24
HETATM   24  C13 UNL     1      18.354  19.454  46.688  1.00  0.00    -0.006 C 
HETATM   25  C14 UNL     1      18.634  20.420  47.790  1.00  0.00     0.005 C 
HETATM   26  C15 UNL     1      20.157  20.356  48.008  1.00  0.00     0.000 C 
HETATM   27  C16 UNL     1      20.557  18.947  48.396  1.00  0.00     0.000 C 
HETATM   28  C17 UNL     1      20.103  17.919  47.385  1.00  0.00     0.000 C 
HETATM   29  C18 UNL     1      18.591  18.064  47.233  1.00  0.00     0.005 C 
ENDBRANCH  23  24
ENDBRANCH   2  23
TORSDOF 8
ENDMDL
MODEL 3
REMARK VINA RESULT: -8.347474034      5.801      9.309
REMARK  8 active torsions:
REMARK  status: ('A' for Active; 'I' for Inactive)
REMARK    1  A    between atoms: N1_1  and  C1_4 
REMARK    2  A    between atoms: C2_7  and  C3_8 
REMARK    3  A    between atoms: C3_8  and  N3_9 
REMARK    4  A    between atoms: N3_9  and  C4_10 
REMARK       I    between atoms: N3_9  and  C11_17 
REMARK    5  A    between atoms: C4_10  and  C5_11 
REMARK    6  A    between atoms: C5_11  and  C6_12 
REMARK    7  A    between atoms: C11_17  and  C12_19 
REMARK    8  A    between atoms: C12_19  and  C13_20 
ROOT
HETATM    1  N3  UNL     1      16.821  23.422  49.397  1.00  0.00    -0.347 N 
HETATM    2  C11 UNL     1      18.079  23.100  48.836  1.00  0.00     0.220 C 
HETATM    3  O1  UNL     1      19.122  23.453  49.436  1.00  0.00    -0.273 OA
ENDROOT
BRANCH   1   4
HETATM    4  C3  UNL     1      16.794  24.148  50.647  1.00  0.00     0.183 C 
BRANCH   4   5
HETATM    5  C2  UNL     1      15.948  25.355  50.616  1.00  0.00     0.045 A 
HETATM    6  N2  UNL     1      16.103  26.320  49.720  1.00  0.00    -0.194 N 
HETATM    7  C1  UNL     1      15.303  27.389  49.744  1.00  0.00     0.675 A 
ATOM      8  H2  UNL     1      16.832  26.246  49.011  1.00  0.00     0.184 HD
HETATM    9  N4  UNL     1      14.336  27.505  50.670  1.00  0.00    -0.202 N 
HETATM   10  C20 UNL     1      14.141  26.546  51.604  1.00  0.00     0.108 A 
ATOM     11  H4  UNL     1      13.738  28.331  50.668  1.00  0.00     0.183 HD
HETATM   12  C19 UNL     1      14.966  25.452  51.570  1.00  0.00     0.045 A 
BRANCH   7  13
HETATM   13  N1  UNL     1      15.478  28.310  48.863  1.00  0.00    -0.234 N 
ATOM     14  H12 UNL     1      16.407  28.495  48.485  1.00  0.00     0.174 HD
ATOM     15  H11 UNL     1      14.669  28.848  48.551  1.00  0.00     0.174 HD
ENDBRANCH   7  13
ENDBRANCH   4   5
ENDBRANCH   1   4
BRANCH   1  16
HETATM   16  C4  UNL     1      15.561  23.060  48.812  1.00  0.00     0.126 C 
BRANCH  16  17
HETATM   17  C5  UNL     1      14.701  22.142  49.584  1.00  0.00     0.024 C 
BRANCH  17  18
HETATM   18  C6  UNL     1      14.630  20.835  48.804  1.00  0.00    -0.013 C 
HETATM   19  C7  UNL     1      13.579  20.898  47.720  1.00  0.00     0.005 C 
HETATM   20  C8  UNL     1      13.369  19.438  47.404  1.00  0.00     0.000 C 
HETATM   21  C9  UNL     1      13.792  18.654  48.606  1.00  0.00     0.000 C 
HETATM   22  C10 UNL     1      14.110  19.706  49.670  1.00  0.00     0.005 C 
ENDBRANCH  17  18
ENDBRANCH  16  17
ENDBRANCH   1  16
BRANCH   2  23
HETATM   23  C12 UNL     1      18.232  22.360  47.562  1.00  0.00     0.107 C 
BRANCH  23  24
HETATM   24  C13 UNL     1      18.268  20.889  47.678  1.00  0.00    -0.006 C 
HETATM   25  C14 UNL     1      17.485  20.117  46.669  1.00  0.00     0.005 C 
HETATM   26  C15 UNL     1      17.275  18.727  47.296  1.00  0.00     0.000 C 
HETATM   27  C16 UNL     1      18.620  18.080  47.563  1.00  0.00     0.000 C 
HETATM   28  C17 UNL     1      19.513  18.943  48.425  1.00  0.00     0.000 C 
HETATM   29  C18 UNL     1      19.656  20.293  47.728  1.00  0.00     0.005 C 
ENDBRANCH  23  24
ENDBRANCH   2  23
TORSDOF 8
ENDMDL
MODEL 4
REMARK VINA RESULT: -8.307955728      5.380      9.102
REMARK  8 active torsions:
REMARK  status: ('A' for Active; 'I' for Inactive)
REMARK    1  A    between atoms: N1_1  and  C1_4 
REMARK    2  A    between atoms: C2_7  and  C3_8 
REMARK    3  A    between atoms: C3_8  and  N3_9 
REMARK    4  A    between atoms: N3_9  and  C4_10 
REMARK       I    between atoms: N3_9  and  C11_17 
REMARK    5  A    between atoms: C4_10  and  C5_11 
REMARK    6  A    between atoms: C5_11  and  C6_12 
REMARK    7  A    between atoms: C11_17  and  C12_19 
REMARK    8  A    between atoms: C12_19  and  C13_20 
ROOT
HETATM    1  N3  UNL     1      17.238  22.932  48.931  1.00  0.00    -0.347 N 
HETATM    2  C11 UNL     1      18.298  22.300  48.240  1.00  0.00     0.220 C 
HETATM    3  O1  UNL     1      19.449  22.327  48.734  1.00  0.00    -0.273 OA
ENDROOT
BRANCH   1   4
HETATM    4  C3  UNL     1      17.532  23.584  50.187  1.00  0.00     0.183 C 
BRANCH   4   5
HETATM    5  C2  UNL     1      17.264  25.034  50.184  1.00  0.00     0.045 A 
HETATM    6  N2  UNL     1      17.786  25.860  49.287  1.00  0.00    -0.194 N 
HETATM    7  C1  UNL     1      17.504  27.164  49.336  1.00  0.00     0.675 A 
ATOM      8  H2  UNL     1      18.403  25.500  48.559  1.00  0.00     0.184 HD
HETATM    9  N4  UNL     1      16.693  27.658  50.287  1.00  0.00    -0.202 N 
HETATM   10  C20 UNL     1      16.137  26.854  51.222  1.00  0.00     0.108 A 
ATOM     11  H4  UNL     1      16.492  28.658  50.304  1.00  0.00     0.183 HD
HETATM   12  C19 UNL     1      16.433  25.516  51.162  1.00  0.00     0.045 A 
BRANCH   7  13
HETATM   13  N1  UNL     1      18.025  27.942  48.454  1.00  0.00    -0.234 N 
ATOM     14  H12 UNL     1      18.801  28.557  48.700  1.00  0.00     0.174 HD
ATOM     15  H11 UNL     1      17.648  27.928  47.506  1.00  0.00     0.174 HD
ENDBRANCH   7  13
ENDBRANCH   4   5
ENDBRANCH   1   4
BRANCH   1  16
HETATM   16  C4  UNL     1      15.878  22.956  48.474  1.00  0.00     0.126 C 
BRANCH  16  17
HETATM   17  C5  UNL     1      14.872  22.283  49.319  1.00  0.00     0.024 C 
BRANCH  17  18
HETATM   18  C6  UNL     1      14.619  20.911  48.705  1.00  0.00    -0.013 C 
HETATM   19  C7  UNL     1      13.432  20.937  47.771  1.00  0.00     0.005 C 
HETATM   20  C8  UNL     1      13.098  19.472  47.648  1.00  0.00     0.000 C 
HETATM   21  C9  UNL     1      13.641  18.786  48.862  1.00  0.00     0.000 C 
HETATM   22  C10 UNL     1      14.164  19.915  49.751  1.00  0.00     0.005 C 
ENDBRANCH  17  18
ENDBRANCH  16  17
ENDBRANCH   1  16
BRANCH   2  23
HETATM   23  C12 UNL     1      18.117  21.601  46.947  1.00  0.00     0.107 C 
BRANCH  23  24
HETATM   24  C13 UNL     1      17.504  20.261  47.024  1.00  0.00    -0.006 C 
HETATM   25  C14 UNL     1      17.186  19.591  45.729  1.00  0.00     0.005 C 
HETATM   26  C15 UNL     1      16.140  18.516  46.074  1.00  0.00     0.000 C 
HETATM   27  C16 UNL     1      16.727  17.537  47.072  1.00  0.00     0.000 C 
HETATM   28  C17 UNL     1      17.242  18.221  48.317  1.00  0.00     0.000 C 
HETATM   29  C18 UNL     1      18.263  19.268  47.874  1.00  0.00     0.005 C 
ENDBRANCH  23  24
ENDBRANCH   2  23
TORSDOF 8
ENDMDL
MODEL 5
REMARK VINA RESULT: -8.226698109      3.905      7.229
REMARK  8 active torsions:
REMARK  status: ('A' for Active; 'I' for Inactive)
REMARK    1  A    between atoms: N1_1  and  C1_4 
REMARK    2  A    between atoms: C2_7  and  C3_8 
REMARK    3  A    between atoms: C3_8  and  N3_9 
REMARK    4  A    between atoms: N3_9  and  C4_10 
REMARK       I    between atoms: N3_9  and  C11_17 
REMARK    5  A    between atoms: C4_10  and  C5_11 
REMARK    6  A    between atoms: C5_11  and  C6_12 
REMARK    7  A    between atoms: C11_17  and  C12_19 
REMARK    8  A    between atoms: C12_19  and  C13_20 
ROOT
HETATM    1  N3  UNL     1      17.769  21.119  48.064  1.00  0.00    -0.347 N 
HETATM    2  C11 UNL     1      18.980  21.838  48.191  1.00  0.00     0.220 C 
HETATM    3  O1  UNL     1      20.056  21.205  48.299  1.00  0.00    -0.273 OA
ENDROOT
BRANCH   1   4
HETATM    4  C3  UNL     1      17.827  19.674  48.064  1.00  0.00     0.183 C 
BRANCH   4   5
HETATM    5  C2  UNL     1      17.320  19.057  46.824  1.00  0.00     0.045 A 
HETATM    6  N2  UNL     1      17.730  19.425  45.617  1.00  0.00    -0.194 N 
HETATM    7  C1  UNL     1      17.233  18.826  44.532  1.00  0.00     0.675 A 
ATOM      8  H2  UNL     1      18.425  20.165  45.518  1.00  0.00     0.184 HD
HETATM    9  N4  UNL     1      16.318  17.849  44.643  1.00  0.00    -0.202 N 
HETATM   10  C20 UNL     1      15.870  17.441  45.853  1.00  0.00     0.108 A 
ATOM     11  H4  UNL     1      15.953  17.407  43.799  1.00  0.00     0.183 HD
HETATM   12  C19 UNL     1      16.387  18.061  46.961  1.00  0.00     0.045 A 
BRANCH   7  13
HETATM   13  N1  UNL     1      17.648  19.204  43.375  1.00  0.00    -0.234 N 
ATOM     14  H12 UNL     1      18.548  19.675  43.276  1.00  0.00     0.174 HD
ATOM     15  H11 UNL     1      17.060  19.023  42.561  1.00  0.00     0.174 HD
ENDBRANCH   7  13
ENDBRANCH   4   5
ENDBRANCH   1   4
BRANCH   1  16
HETATM   16  C4  UNL     1      16.479  21.730  47.918  1.00  0.00     0.126 C 
BRANCH  16  17
HETATM   17  C5  UNL     1      15.706  21.972  49.152  1.00  0.00     0.024 C 
BRANCH  17  18
HETATM   18  C6  UNL     1      14.410  21.180  49.030  1.00  0.00    -0.013 C 
HETATM   19  C7  UNL     1      14.539  19.813  49.660  1.00  0.00     0.005 C 
HETATM   20  C8  UNL     1      13.374  19.076  49.050  1.00  0.00     0.000 C 
HETATM   21  C9  UNL     1      13.028  19.766  47.769  1.00  0.00     0.000 C 
HETATM   22  C10 UNL     1      14.117  20.824  47.586  1.00  0.00     0.005 C 
ENDBRANCH  17  18
ENDBRANCH  16  17
ENDBRANCH   1  16
BRANCH   2  23
HETATM   23  C12 UNL     1      19.044  23.318  48.202  1.00  0.00     0.107 C 
BRANCH  23  24
HETATM   24  C13 UNL     1      20.387  23.901  48.012  1.00  0.00    -0.006 C 
HETATM   25  C14 UNL     1      20.804  24.184  46.608  1.00  0.00     0.005 C 
HETATM   26  C15 UNL     1      22.340  24.281  46.652  1.00  0.00     0.000 C 
HETATM   27  C16 UNL     1      22.752  25.401  47.587  1.00  0.00     0.000 C 
HETATM   28  C17 UNL     1      22.172  25.239  48.972  1.00  0.00     0.000 C 
HETATM   29  C18 UNL     1      20.655  25.147  48.825  1.00  0.00     0.005 C 
ENDBRANCH  23  24
ENDBRANCH   2  23
TORSDOF 8
ENDMDL
