MODEL 1
REMARK VINA RESULT: -7.083969204      0.000      0.000
REMARK  7 active torsions:
REMARK  status: ('A' for Active; 'I' for Inactive)
REMARK    1  A    between atoms: C2_2  and  C5_5 
REMARK    2  A    between atoms: C8_8  and  C9_9 
REMARK    3  A    between atoms: N1_14  and  C12_15 
REMARK    4  A    between atoms: C12_15  and  C13_16 
REMARK    5  A    between atoms: C12_15  and  C14_19 
REMARK    6  A    between atoms: C14_19  and  C15_22 
REMARK    7  A    between atoms: C15_22  and  O4_25 
ROOT
HETATM    1  C9  UNL     1      30.058  45.939   7.651  1.00  0.00     0.036 C 
HETATM    2  C10 UNL     1      31.359  46.057   7.632  1.00  0.00     0.079 C 
HETATM    3  S1  UNL     1      32.354  47.518   7.228  1.00  0.00    -0.023 SA
HETATM    4  C11 UNL     1      33.753  46.973   8.249  1.00  0.00     0.295 C 
HETATM    5  O1  UNL     1      34.581  47.727   8.789  1.00  0.00    -0.259 OA
HETATM    6  N1  UNL     1      33.639  45.550   8.255  1.00  0.00    -0.253 N 
HETATM    7  C18 UNL     1      32.394  45.045   7.936  1.00  0.00     0.269 C 
HETATM    8  O5  UNL     1      32.009  43.812   7.867  1.00  0.00    -0.266 OA
ENDROOT
BRANCH   6   9
HETATM    9  C12 UNL     1      34.856  44.745   8.615  1.00  0.00     0.272 C 
BRANCH   9  10
HETATM   10  C13 UNL     1      34.627  44.061   9.882  1.00  0.00     0.203 C 
HETATM   11  O2  UNL     1      34.064  44.618  10.853  1.00  0.00    -0.646 OA
HETATM   12  O3  UNL     1      35.003  42.723  10.146  1.00  0.00    -0.646 OA
ENDBRANCH   9  10
BRANCH   9  13
HETATM   13  C14 UNL     1      35.309  43.978   7.432  1.00  0.00     0.303 C 
HETATM   14  F1  UNL     1      34.977  44.760   6.308  1.00  0.00    -0.200 F 
HETATM   15  F2  UNL     1      34.806  42.711   7.293  1.00  0.00    -0.200 F 
BRANCH  13  16
HETATM   16  C15 UNL     1      36.812  43.828   7.396  1.00  0.00     0.118 C 
HETATM   17  C16 UNL     1      37.160  43.835   5.872  1.00  0.00     0.052 C 
HETATM   18  C17 UNL     1      37.570  44.888   8.104  1.00  0.00     0.052 C 
BRANCH  16  19
HETATM   19  O4  UNL     1      37.155  42.529   7.794  1.00  0.00    -0.384 OA
ATOM     20  H4  UNL     1      37.446  42.037   7.036  1.00  0.00     0.210 HD
ENDBRANCH  16  19
ENDBRANCH  13  16
ENDBRANCH   9  13
ENDBRANCH   6   9
BRANCH   1  21
HETATM   21  C8  UNL     1      29.175  47.026   7.331  1.00  0.00    -0.035 A 
HETATM   22  C7  UNL     1      27.936  47.160   7.912  1.00  0.00     0.012 A 
HETATM   23  C6  UNL     1      27.077  48.209   7.572  1.00  0.00     0.009 A 
HETATM   24  C5  UNL     1      27.443  49.152   6.635  1.00  0.00    -0.051 A 
HETATM   25  C20 UNL     1      28.680  49.031   6.047  1.00  0.00     0.009 A 
HETATM   26  C19 UNL     1      29.523  47.996   6.385  1.00  0.00     0.012 A 
BRANCH  24  27
HETATM   27  C2  UNL     1      26.492  50.251   6.293  1.00  0.00    -0.024 C 
HETATM   28  C1  UNL     1      25.079  49.856   6.656  1.00  0.00     0.019 C 
HETATM   29  C3  UNL     1      26.558  50.579   4.827  1.00  0.00     0.019 C 
HETATM   30  C4  UNL     1      26.864  51.494   7.096  1.00  0.00     0.019 C 
ENDBRANCH  24  27
ENDBRANCH   1  21
TORSDOF 7
ENDMDL
MODEL 2
REMARK VINA RESULT: -7.001567619      0.487      1.261
REMARK  7 active torsions:
REMARK  status: ('A' for Active; 'I' for Inactive)
REMARK    1  A    between atoms: C2_2  and  C5_5 
REMARK    2  A    between atoms: C8_8  and  C9_9 
REMARK    3  A    between atoms: N1_14  and  C12_15 
REMARK    4  A    between atoms: C12_15  and  C13_16 
REMARK    5  A    between atoms: C12_15  and  C14_19 
REMARK    6  A    between atoms: C14_19  and  C15_22 
REMARK    7  A    between atoms: C15_22  and  O4_25 
ROOT
HETATM    1  C9  UNL     1      29.842  45.893   7.839  1.00  0.00     0.036 C 
HETATM    2  C10 UNL     1      31.147  45.944   7.823  1.00  0.00     0.079 C 
HETATM    3  S1  UNL     1      32.216  47.310   7.292  1.00  0.00    -0.023 SA
HETATM    4  C11 UNL     1      33.581  46.795   8.375  1.00  0.00     0.295 C 
HETATM    5  O1  UNL     1      34.443  47.555   8.850  1.00  0.00    -0.259 OA
HETATM    6  N1  UNL     1      33.396  45.387   8.515  1.00  0.00    -0.253 N 
HETATM    7  C18 UNL     1      32.128  44.915   8.232  1.00  0.00     0.269 C 
HETATM    8  O5  UNL     1      31.682  43.703   8.276  1.00  0.00    -0.266 OA
ENDROOT
BRANCH   6   9
HETATM    9  C12 UNL     1      34.569  44.561   8.962  1.00  0.00     0.272 C 
BRANCH   9  10
HETATM   10  C13 UNL     1      34.294  44.005  10.282  1.00  0.00     0.203 C 
HETATM   11  O2  UNL     1      34.510  44.645  11.337  1.00  0.00    -0.646 OA
HETATM   12  O3  UNL     1      33.764  42.713  10.509  1.00  0.00    -0.646 OA
ENDBRANCH   9  10
BRANCH   9  13
HETATM   13  C14 UNL     1      34.995  43.669   7.859  1.00  0.00     0.303 C 
HETATM   14  F1  UNL     1      34.334  44.133   6.704  1.00  0.00    -0.200 F 
HETATM   15  F2  UNL     1      34.765  42.329   8.029  1.00  0.00    -0.200 F 
BRANCH  13  16
HETATM   16  C15 UNL     1      36.470  43.799   7.565  1.00  0.00     0.118 C 
HETATM   17  C16 UNL     1      36.531  44.066   6.026  1.00  0.00     0.052 C 
HETATM   18  C17 UNL     1      37.170  44.877   8.304  1.00  0.00     0.052 C 
BRANCH  16  19
HETATM   19  O4  UNL     1      37.077  42.543   7.693  1.00  0.00    -0.384 OA
ATOM     20  H4  UNL     1      37.934  42.649   8.090  1.00  0.00     0.210 HD
ENDBRANCH  16  19
ENDBRANCH  13  16
ENDBRANCH   9  13
ENDBRANCH   6   9
BRANCH   1  21
HETATM   21  C8  UNL     1      29.016  46.987   7.409  1.00  0.00    -0.035 A 
HETATM   22  C7  UNL     1      29.457  47.932   6.514  1.00  0.00     0.012 A 
HETATM   23  C6  UNL     1      28.650  49.005   6.124  1.00  0.00     0.009 A 
HETATM   24  C5  UNL     1      27.375  49.155   6.628  1.00  0.00    -0.051 A 
HETATM   25  C20 UNL     1      26.920  48.217   7.523  1.00  0.00     0.009 A 
HETATM   26  C19 UNL     1      27.719  47.161   7.904  1.00  0.00     0.012 A 
BRANCH  24  27
HETATM   27  C2  UNL     1      26.550  50.322   6.193  1.00  0.00    -0.024 C 
HETATM   28  C1  UNL     1      26.886  51.541   7.021  1.00  0.00     0.019 C 
HETATM   29  C3  UNL     1      25.083  50.017   6.325  1.00  0.00     0.019 C 
HETATM   30  C4  UNL     1      26.863  50.632   4.733  1.00  0.00     0.019 C 
ENDBRANCH  24  27
ENDBRANCH   1  21
TORSDOF 7
ENDMDL
MODEL 3
REMARK VINA RESULT: -6.999098020      1.409      1.883
REMARK  7 active torsions:
REMARK  status: ('A' for Active; 'I' for Inactive)
REMARK    1  A    between atoms: C2_2  and  C5_5 
REMARK    2  A    between atoms: C8_8  and  C9_9 
REMARK    3  A    between atoms: N1_14  and  C12_15 
REMARK    4  A    between atoms: C12_15  and  C13_16 
REMARK    5  A    between atoms: C12_15  and  C14_19 
REMARK    6  A    between atoms: C14_19  and  C15_22 
REMARK    7  A    between atoms: C15_22  and  O4_25 
ROOT
HETATM    1  C9  UNL     1      31.102  45.642   7.252  1.00  0.00     0.036 C 
HETATM    2  C10 UNL     1      32.324  45.894   7.638  1.00  0.00     0.079 C 
HETATM    3  S1  UNL     1      33.064  47.493   8.070  1.00  0.00    -0.023 SA
HETATM    4  C11 UNL     1      34.290  46.739   9.178  1.00  0.00     0.295 C 
HETATM    5  O1  UNL     1      34.811  47.302  10.157  1.00  0.00    -0.259 OA
HETATM    6  N1  UNL     1      34.470  45.425   8.650  1.00  0.00    -0.253 N 
HETATM    7  C18 UNL     1      33.452  44.959   7.840  1.00  0.00     0.269 C 
HETATM    8  O5  UNL     1      33.350  43.820   7.236  1.00  0.00    -0.266 OA
ENDROOT
BRANCH   6   9
HETATM    9  C12 UNL     1      35.717  44.677   9.025  1.00  0.00     0.272 C 
BRANCH   9  10
HETATM   10  C13 UNL     1      35.376  43.294   9.338  1.00  0.00     0.203 C 
HETATM   11  O2  UNL     1      34.800  42.970  10.403  1.00  0.00    -0.646 OA
HETATM   12  O3  UNL     1      35.651  42.194   8.493  1.00  0.00    -0.646 OA
ENDBRANCH   9  10
BRANCH   9  13
HETATM   13  C14 UNL     1      36.785  44.970   8.041  1.00  0.00     0.303 C 
HETATM   14  F1  UNL     1      36.146  45.572   6.939  1.00  0.00    -0.200 F 
HETATM   15  F2  UNL     1      37.545  43.908   7.626  1.00  0.00    -0.200 F 
BRANCH  13  16
HETATM   16  C15 UNL     1      37.763  45.998   8.558  1.00  0.00     0.118 C 
HETATM   17  C16 UNL     1      39.162  45.332   8.349  1.00  0.00     0.052 C 
HETATM   18  C17 UNL     1      37.712  47.317   7.880  1.00  0.00     0.052 C 
BRANCH  16  19
HETATM   19  O4  UNL     1      37.654  46.078   9.953  1.00  0.00    -0.384 OA
ATOM     20  H4  UNL     1      38.130  46.840  10.260  1.00  0.00     0.210 HD
ENDBRANCH  16  19
ENDBRANCH  13  16
ENDBRANCH   9  13
ENDBRANCH   6   9
BRANCH   1  21
HETATM   21  C8  UNL     1      30.107  46.668   7.105  1.00  0.00    -0.035 A 
HETATM   22  C7  UNL     1      28.932  46.659   7.819  1.00  0.00     0.012 A 
HETATM   23  C6  UNL     1      27.962  47.650   7.647  1.00  0.00     0.009 A 
HETATM   24  C5  UNL     1      28.149  48.678   6.748  1.00  0.00    -0.051 A 
HETATM   25  C20 UNL     1      29.319  48.701   6.027  1.00  0.00     0.009 A 
HETATM   26  C19 UNL     1      30.272  47.722   6.200  1.00  0.00     0.012 A 
BRANCH  24  27
HETATM   27  C2  UNL     1      27.083  49.712   6.586  1.00  0.00    -0.024 C 
HETATM   28  C1  UNL     1      26.810  49.961   5.120  1.00  0.00     0.019 C 
HETATM   29  C3  UNL     1      27.484  51.002   7.246  1.00  0.00     0.019 C 
HETATM   30  C4  UNL     1      25.799  49.202   7.233  1.00  0.00     0.019 C 
ENDBRANCH  24  27
ENDBRANCH   1  21
TORSDOF 7
ENDMDL
MODEL 4
REMARK VINA RESULT: -6.598893832      5.042      9.442
REMARK  7 active torsions:
REMARK  status: ('A' for Active; 'I' for Inactive)
REMARK    1  A    between atoms: C2_2  and  C5_5 
REMARK    2  A    between atoms: C8_8  and  C9_9 
REMARK    3  A    between atoms: N1_14  and  C12_15 
REMARK    4  A    between atoms: C12_15  and  C13_16 
REMARK    5  A    between atoms: C12_15  and  C14_19 
REMARK    6  A    between atoms: C14_19  and  C15_22 
REMARK    7  A    between atoms: C15_22  and  O4_25 
ROOT
HETATM    1  C9  UNL     1      29.226  46.965   7.128  1.00  0.00     0.036 C 
HETATM    2  C10 UNL     1      29.459  48.240   6.967  1.00  0.00     0.079 C 
HETATM    3  S1  UNL     1      31.025  49.134   7.159  1.00  0.00    -0.023 SA
HETATM    4  C11 UNL     1      30.541  50.436   5.989  1.00  0.00     0.295 C 
HETATM    5  O1  UNL     1      31.329  51.112   5.305  1.00  0.00    -0.259 OA
HETATM    6  N1  UNL     1      29.116  50.459   6.071  1.00  0.00    -0.253 N 
HETATM    7  C18 UNL     1      28.524  49.319   6.580  1.00  0.00     0.269 C 
HETATM    8  O5  UNL     1      27.270  49.066   6.763  1.00  0.00    -0.266 OA
ENDROOT
BRANCH   6   9
HETATM    9  C12 UNL     1      28.401  51.691   5.593  1.00  0.00     0.272 C 
BRANCH   9  10
HETATM   10  C13 UNL     1      27.432  51.322   4.568  1.00  0.00     0.203 C 
HETATM   11  O2  UNL     1      27.775  50.821   3.472  1.00  0.00    -0.646 OA
HETATM   12  O3  UNL     1      26.033  51.483   4.697  1.00  0.00    -0.646 OA
ENDBRANCH   9  10
BRANCH   9  13
HETATM   13  C14 UNL     1      27.970  52.497   6.760  1.00  0.00     0.303 C 
HETATM   14  F1  UNL     1      29.068  52.523   7.643  1.00  0.00    -0.200 F 
HETATM   15  F2  UNL     1      26.845  52.073   7.417  1.00  0.00    -0.200 F 
BRANCH  13  16
HETATM   16  C15 UNL     1      27.710  53.937   6.388  1.00  0.00     0.118 C 
HETATM   17  C16 UNL     1      27.784  54.702   7.750  1.00  0.00     0.052 C 
HETATM   18  C17 UNL     1      28.665  54.521   5.415  1.00  0.00     0.052 C 
BRANCH  16  19
HETATM   19  O4  UNL     1      26.367  54.081   6.015  1.00  0.00    -0.384 OA
ATOM     20  H4  UNL     1      26.001  54.839   6.454  1.00  0.00     0.210 HD
ENDBRANCH  16  19
ENDBRANCH  13  16
ENDBRANCH   9  13
ENDBRANCH   6   9
BRANCH   1  21
HETATM   21  C8  UNL     1      30.248  46.030   7.507  1.00  0.00    -0.035 A 
HETATM   22  C7  UNL     1      30.184  45.303   8.671  1.00  0.00     0.012 A 
HETATM   23  C6  UNL     1      31.200  44.415   9.038  1.00  0.00     0.009 A 
HETATM   24  C5  UNL     1      32.310  44.237   8.241  1.00  0.00    -0.051 A 
HETATM   25  C20 UNL     1      32.388  44.956   7.072  1.00  0.00     0.009 A 
HETATM   26  C19 UNL     1      31.385  45.830   6.714  1.00  0.00     0.012 A 
BRANCH  24  27
HETATM   27  C2  UNL     1      33.378  43.286   8.674  1.00  0.00    -0.024 C 
HETATM   28  C1  UNL     1      33.388  42.066   7.783  1.00  0.00     0.019 C 
HETATM   29  C3  UNL     1      33.168  42.862  10.102  1.00  0.00     0.019 C 
HETATM   30  C4  UNL     1      34.732  43.978   8.556  1.00  0.00     0.019 C 
ENDBRANCH  24  27
ENDBRANCH   1  21
TORSDOF 7
ENDMDL
MODEL 5
REMARK VINA RESULT: -6.593658338      5.085      9.571
REMARK  7 active torsions:
REMARK  status: ('A' for Active; 'I' for Inactive)
REMARK    1  A    between atoms: C2_2  and  C5_5 
REMARK    2  A    between atoms: C8_8  and  C9_9 
REMARK    3  A    between atoms: N1_14  and  C12_15 
REMARK    4  A    between atoms: C12_15  and  C13_16 
REMARK    5  A    between atoms: C12_15  and  C14_19 
REMARK    6  A    between atoms: C14_19  and  C15_22 
REMARK    7  A    between atoms: C15_22  and  O4_25 
ROOT
HETATM    1  C9  UNL     1      29.119  46.781   7.129  1.00  0.00     0.036 C 
HETATM    2  C10 UNL     1      29.257  48.059   6.902  1.00  0.00     0.079 C 
HETATM    3  S1  UNL     1      30.757  49.071   7.024  1.00  0.00    -0.023 SA
HETATM    4  C11 UNL     1      30.166  50.275   5.799  1.00  0.00     0.295 C 
HETATM    5  O1  UNL     1      30.894  50.971   5.070  1.00  0.00    -0.259 OA
HETATM    6  N1  UNL     1      28.744  50.201   5.903  1.00  0.00    -0.253 N 
HETATM    7  C18 UNL     1      28.243  49.049   6.477  1.00  0.00     0.269 C 
HETATM    8  O5  UNL     1      27.012  48.716   6.693  1.00  0.00    -0.266 OA
ENDROOT
BRANCH   6   9
HETATM    9  C12 UNL     1      27.936  51.353   5.378  1.00  0.00     0.272 C 
BRANCH   9  10
HETATM   10  C13 UNL     1      27.044  50.879   4.326  1.00  0.00     0.203 C 
HETATM   11  O2  UNL     1      27.472  50.378   3.260  1.00  0.00    -0.646 OA
HETATM   12  O3  UNL     1      25.633  50.930   4.393  1.00  0.00    -0.646 OA
ENDBRANCH   9  10
BRANCH   9  13
HETATM   13  C14 UNL     1      27.390  52.133   6.513  1.00  0.00     0.303 C 
HETATM   14  F1  UNL     1      28.425  52.212   7.466  1.00  0.00    -0.200 F 
HETATM   15  F2  UNL     1      26.246  51.652   7.094  1.00  0.00    -0.200 F 
BRANCH  13  16
HETATM   16  C15 UNL     1      27.083  53.560   6.123  1.00  0.00     0.118 C 
HETATM   17  C16 UNL     1      27.060  54.330   7.484  1.00  0.00     0.052 C 
HETATM   18  C17 UNL     1      28.055  54.184   5.193  1.00  0.00     0.052 C 
BRANCH  16  19
HETATM   19  O4  UNL     1      25.754  53.643   5.688  1.00  0.00    -0.384 OA
ATOM     20  H4  UNL     1      25.574  54.530   5.400  1.00  0.00     0.210 HD
ENDBRANCH  16  19
ENDBRANCH  13  16
ENDBRANCH   9  13
ENDBRANCH   6   9
BRANCH   1  21
HETATM   21  C8  UNL     1      30.211  45.941   7.536  1.00  0.00    -0.035 A 
HETATM   22  C7  UNL     1      31.353  45.806   6.784  1.00  0.00     0.012 A 
HETATM   23  C6  UNL     1      32.397  44.966   7.181  1.00  0.00     0.009 A 
HETATM   24  C5  UNL     1      32.318  44.236   8.348  1.00  0.00    -0.051 A 
HETATM   25  C20 UNL     1      31.181  44.362   9.112  1.00  0.00     0.009 A 
HETATM   26  C19 UNL     1      30.155  45.191   8.717  1.00  0.00     0.012 A 
BRANCH  24  27
HETATM   27  C2  UNL     1      33.451  43.342   8.731  1.00  0.00    -0.024 C 
HETATM   28  C1  UNL     1      33.466  42.110   7.856  1.00  0.00     0.019 C 
HETATM   29  C3  UNL     1      33.342  42.929  10.173  1.00  0.00     0.019 C 
HETATM   30  C4  UNL     1      34.762  44.092   8.527  1.00  0.00     0.019 C 
ENDBRANCH  24  27
ENDBRANCH   1  21
TORSDOF 7
ENDMDL
