MODEL 1
REMARK VINA RESULT: -8.376320745      0.000      0.000
REMARK  6 active torsions:
REMARK  status: ('A' for Active; 'I' for Inactive)
REMARK    1  A    between atoms: C1_2  and  C2_3 
REMARK       I    between atoms: C1_2  and  N1_15 
REMARK    2  A    between atoms: C2_3  and  C3_4 
REMARK    3  A    between atoms: C6_7  and  O2_8 
REMARK    4  A    between atoms: O2_8  and  C7_9 
REMARK       I    between atoms: N1_15  and  C10_17 
REMARK       I    between atoms: C10_17  and  N2_19 
REMARK    5  A    between atoms: N2_19  and  S1_21 
REMARK    6  A    between atoms: S1_21  and  C11_24 
ROOT
HETATM    1  O1  UNL     1      27.042  51.190   7.076  1.00  0.00    -0.273 OA
HETATM    2  C1  UNL     1      27.708  51.979   6.377  1.00  0.00     0.229 C 
HETATM    3  N1  UNL     1      29.037  51.853   5.960  1.00  0.00    -0.278 N 
ATOM      4  H1  UNL     1      29.411  52.615   5.395  1.00  0.00     0.173 HD
HETATM    5  C10 UNL     1      29.905  50.796   6.235  1.00  0.00     0.336 C 
HETATM    6  O3  UNL     1      31.110  50.805   5.774  1.00  0.00    -0.246 OA
HETATM    7  N2  UNL     1      29.519  49.683   7.015  1.00  0.00    -0.232 N 
ATOM      8  H2  UNL     1      28.579  49.631   7.409  1.00  0.00     0.183 HD
ENDROOT
BRANCH   7   9
HETATM    9  S1  UNL     1      30.667  48.398   7.299  1.00  0.00     0.267 S 
HETATM   10  O4  UNL     1      31.263  48.031   5.971  1.00  0.00    -0.200 OA
HETATM   11  O5  UNL     1      31.768  48.841   8.182  1.00  0.00    -0.200 OA
BRANCH   9  12
HETATM   12  C11 UNL     1      29.765  47.061   7.946  1.00  0.00     0.091 A 
HETATM   13  C12 UNL     1      28.412  47.181   8.144  1.00  0.00     0.026 A 
HETATM   14  C13 UNL     1      27.678  46.164   8.710  1.00  0.00     0.002 A 
HETATM   15  C14 UNL     1      28.318  44.980   9.095  1.00  0.00     0.012 A 
HETATM   16  C15 UNL     1      29.671  44.848   8.901  1.00  0.00    -0.024 A 
HETATM   17  C16 UNL     1      30.274  43.671   9.275  1.00  0.00     0.012 A 
HETATM   18  C20 UNL     1      30.384  45.898   8.324  1.00  0.00    -0.003 A 
HETATM   19  C17 UNL     1      31.636  43.489   9.086  1.00  0.00     0.001 A 
HETATM   20  C18 UNL     1      32.358  44.513   8.516  1.00  0.00     0.001 A 
HETATM   21  C19 UNL     1      31.732  45.676   8.152  1.00  0.00     0.014 A 
ENDBRANCH   9  12
ENDBRANCH   7   9
BRANCH   2  22
HETATM   22  C2  UNL     1      26.933  53.213   5.949  1.00  0.00     0.141 C 
BRANCH  22  23
HETATM   23  C3  UNL     1      26.919  54.132   7.102  1.00  0.00    -0.049 A 
HETATM   24  C4  UNL     1      25.708  54.399   7.693  1.00  0.00     0.010 A 
HETATM   25  C5  UNL     1      25.629  55.240   8.795  1.00  0.00     0.037 A 
HETATM   26  C6  UNL     1      26.754  55.844   9.347  1.00  0.00     0.078 A 
HETATM   27  C8  UNL     1      27.954  55.551   8.724  1.00  0.00     0.037 A 
HETATM   28  C9  UNL     1      28.046  54.716   7.628  1.00  0.00     0.010 A 
BRANCH  26  29
HETATM   29  O2  UNL     1      26.654  56.680  10.449  1.00  0.00    -0.255 OA
BRANCH  29  30
HETATM   30  C7  UNL     1      26.955  58.065  10.226  1.00  0.00     0.530 C 
HETATM   31  F1  UNL     1      26.516  58.464   8.974  1.00  0.00    -0.144 F 
HETATM   32  F2  UNL     1      26.218  58.739  11.211  1.00  0.00    -0.144 F 
HETATM   33  F3  UNL     1      28.276  58.344  10.457  1.00  0.00    -0.144 F 
ENDBRANCH  29  30
ENDBRANCH  26  29
ENDBRANCH  22  23
ENDBRANCH   2  22
TORSDOF 6
ENDMDL
MODEL 2
REMARK VINA RESULT: -8.077335840     10.101     14.575
REMARK  6 active torsions:
REMARK  status: ('A' for Active; 'I' for Inactive)
REMARK    1  A    between atoms: C1_2  and  C2_3 
REMARK       I    between atoms: C1_2  and  N1_15 
REMARK    2  A    between atoms: C2_3  and  C3_4 
REMARK    3  A    between atoms: C6_7  and  O2_8 
REMARK    4  A    between atoms: O2_8  and  C7_9 
REMARK       I    between atoms: N1_15  and  C10_17 
REMARK       I    between atoms: C10_17  and  N2_19 
REMARK    5  A    between atoms: N2_19  and  S1_21 
REMARK    6  A    between atoms: S1_21  and  C11_24 
ROOT
HETATM    1  O1  UNL     1      36.769  43.144   5.832  1.00  0.00    -0.273 OA
HETATM    2  C1  UNL     1      37.543  43.524   6.734  1.00  0.00     0.229 C 
HETATM    3  N1  UNL     1      37.219  43.953   8.025  1.00  0.00    -0.278 N 
ATOM      4  H1  UNL     1      37.999  44.234   8.620  1.00  0.00     0.173 HD
HETATM    5  C10 UNL     1      35.944  44.039   8.585  1.00  0.00     0.336 C 
HETATM    6  O3  UNL     1      35.792  44.445   9.800  1.00  0.00    -0.246 OA
HETATM    7  N2  UNL     1      34.778  43.693   7.867  1.00  0.00    -0.232 N 
ATOM      8  H2  UNL     1      34.843  43.372   6.901  1.00  0.00     0.183 HD
ENDROOT
BRANCH   7   9
HETATM    9  S1  UNL     1      33.222  43.818   8.652  1.00  0.00     0.267 S 
HETATM   10  O4  UNL     1      32.639  42.436   8.709  1.00  0.00    -0.200 OA
HETATM   11  O5  UNL     1      33.355  44.311  10.040  1.00  0.00    -0.200 OA
BRANCH   9  12
HETATM   12  C11 UNL     1      32.244  44.846   7.650  1.00  0.00     0.091 A 
HETATM   13  C12 UNL     1      32.778  45.407   6.517  1.00  0.00     0.026 A 
HETATM   14  C13 UNL     1      32.050  46.273   5.734  1.00  0.00     0.002 A 
HETATM   15  C14 UNL     1      30.735  46.593   6.094  1.00  0.00     0.012 A 
HETATM   16  C15 UNL     1      30.189  46.037   7.225  1.00  0.00    -0.024 A 
HETATM   17  C16 UNL     1      28.893  46.357   7.551  1.00  0.00     0.012 A 
HETATM   18  C20 UNL     1      30.956  45.163   7.996  1.00  0.00    -0.003 A 
HETATM   19  C17 UNL     1      28.296  45.809   8.677  1.00  0.00     0.001 A 
HETATM   20  C18 UNL     1      29.036  44.942   9.450  1.00  0.00     0.001 A 
HETATM   21  C19 UNL     1      30.326  44.640   9.102  1.00  0.00     0.014 A 
ENDBRANCH   9  12
ENDBRANCH   7   9
BRANCH   2  22
HETATM   22  C2  UNL     1      39.007  43.493   6.331  1.00  0.00     0.141 C 
BRANCH  22  23
HETATM   23  C3  UNL     1      39.403  42.075   6.259  1.00  0.00    -0.049 A 
HETATM   24  C4  UNL     1      39.085  41.267   7.323  1.00  0.00     0.010 A 
HETATM   25  C5  UNL     1      39.412  39.917   7.308  1.00  0.00     0.037 A 
HETATM   26  C6  UNL     1      40.067  39.326   6.233  1.00  0.00     0.078 A 
HETATM   27  C8  UNL     1      40.370  40.172   5.181  1.00  0.00     0.037 A 
HETATM   28  C9  UNL     1      40.050  41.516   5.183  1.00  0.00     0.010 A 
BRANCH  26  29
HETATM   29  O2  UNL     1      40.383  37.975   6.237  1.00  0.00    -0.255 OA
BRANCH  29  30
HETATM   30  C7  UNL     1      39.780  37.179   5.208  1.00  0.00     0.530 C 
HETATM   31  F1  UNL     1      40.711  36.846   4.239  1.00  0.00    -0.144 F 
HETATM   32  F2  UNL     1      39.370  36.013   5.874  1.00  0.00    -0.144 F 
HETATM   33  F3  UNL     1      38.650  37.766   4.703  1.00  0.00    -0.144 F 
ENDBRANCH  29  30
ENDBRANCH  26  29
ENDBRANCH  22  23
ENDBRANCH   2  22
TORSDOF 6
ENDMDL
MODEL 3
REMARK VINA RESULT: -8.040826435      1.631      2.369
REMARK  6 active torsions:
REMARK  status: ('A' for Active; 'I' for Inactive)
REMARK    1  A    between atoms: C1_2  and  C2_3 
REMARK       I    between atoms: C1_2  and  N1_15 
REMARK    2  A    between atoms: C2_3  and  C3_4 
REMARK    3  A    between atoms: C6_7  and  O2_8 
REMARK    4  A    between atoms: O2_8  and  C7_9 
REMARK       I    between atoms: N1_15  and  C10_17 
REMARK       I    between atoms: C10_17  and  N2_19 
REMARK    5  A    between atoms: N2_19  and  S1_21 
REMARK    6  A    between atoms: S1_21  and  C11_24 
ROOT
HETATM    1  O1  UNL     1      30.470  51.320   4.435  1.00  0.00    -0.273 OA
HETATM    2  C1  UNL     1      30.778  51.855   5.518  1.00  0.00     0.229 C 
HETATM    3  N1  UNL     1      31.210  51.236   6.695  1.00  0.00    -0.278 N 
ATOM      4  H1  UNL     1      31.408  51.849   7.486  1.00  0.00     0.173 HD
HETATM    5  C10 UNL     1      31.398  49.869   6.903  1.00  0.00     0.336 C 
HETATM    6  O3  UNL     1      31.813  49.435   8.045  1.00  0.00    -0.246 OA
HETATM    7  N2  UNL     1      31.149  48.910   5.897  1.00  0.00    -0.232 N 
ATOM      8  H2  UNL     1      30.813  49.201   4.979  1.00  0.00     0.183 HD
ENDROOT
BRANCH   7   9
HETATM    9  S1  UNL     1      31.425  47.219   6.240  1.00  0.00     0.267 S 
HETATM   10  O4  UNL     1      31.435  46.493   4.927  1.00  0.00    -0.200 OA
HETATM   11  O5  UNL     1      32.739  47.006   6.886  1.00  0.00    -0.200 OA
BRANCH   9  12
HETATM   12  C11 UNL     1      30.088  46.688   7.215  1.00  0.00     0.091 A 
HETATM   13  C12 UNL     1      28.934  47.429   7.257  1.00  0.00     0.026 A 
HETATM   14  C13 UNL     1      27.879  47.069   8.063  1.00  0.00     0.002 A 
HETATM   15  C14 UNL     1      27.978  45.923   8.861  1.00  0.00     0.012 A 
HETATM   16  C15 UNL     1      29.127  45.172   8.827  1.00  0.00    -0.024 A 
HETATM   17  C16 UNL     1      29.196  44.045   9.610  1.00  0.00     0.012 A 
HETATM   18  C20 UNL     1      30.177  45.566   7.997  1.00  0.00    -0.003 A 
HETATM   19  C17 UNL     1      30.332  43.249   9.598  1.00  0.00     0.001 A 
HETATM   20  C18 UNL     1      31.379  43.620   8.784  1.00  0.00     0.001 A 
HETATM   21  C19 UNL     1      31.284  44.749   8.014  1.00  0.00     0.014 A 
ENDBRANCH   9  12
ENDBRANCH   7   9
BRANCH   2  22
HETATM   22  C2  UNL     1      30.656  53.369   5.503  1.00  0.00     0.141 C 
BRANCH  22  23
HETATM   23  C3  UNL     1      29.457  53.710   6.292  1.00  0.00    -0.049 A 
HETATM   24  C4  UNL     1      29.633  54.458   7.431  1.00  0.00     0.010 A 
HETATM   25  C5  UNL     1      28.543  54.830   8.207  1.00  0.00     0.037 A 
HETATM   26  C6  UNL     1      27.241  54.469   7.876  1.00  0.00     0.078 A 
HETATM   27  C8  UNL     1      27.106  53.715   6.723  1.00  0.00     0.037 A 
HETATM   28  C9  UNL     1      28.182  53.340   5.942  1.00  0.00     0.010 A 
BRANCH  26  29
HETATM   29  O2  UNL     1      26.166  54.851   8.665  1.00  0.00    -0.255 OA
BRANCH  29  30
HETATM   30  C7  UNL     1      25.913  56.260   8.754  1.00  0.00     0.530 C 
HETATM   31  F1  UNL     1      26.215  56.887   7.557  1.00  0.00    -0.144 F 
HETATM   32  F2  UNL     1      24.532  56.347   8.986  1.00  0.00    -0.144 F 
HETATM   33  F3  UNL     1      26.533  56.823   9.838  1.00  0.00    -0.144 F 
ENDBRANCH  29  30
ENDBRANCH  26  29
ENDBRANCH  22  23
ENDBRANCH   2  22
TORSDOF 6
ENDMDL
MODEL 4
REMARK VINA RESULT: -7.921214325      8.075     10.230
REMARK  6 active torsions:
REMARK  status: ('A' for Active; 'I' for Inactive)
REMARK    1  A    between atoms: C1_2  and  C2_3 
REMARK       I    between atoms: C1_2  and  N1_15 
REMARK    2  A    between atoms: C2_3  and  C3_4 
REMARK    3  A    between atoms: C6_7  and  O2_8 
REMARK    4  A    between atoms: O2_8  and  C7_9 
REMARK       I    between atoms: N1_15  and  C10_17 
REMARK       I    between atoms: C10_17  and  N2_19 
REMARK    5  A    between atoms: N2_19  and  S1_21 
REMARK    6  A    between atoms: S1_21  and  C11_24 
ROOT
HETATM    1  O1  UNL     1      37.160  43.497   5.986  1.00  0.00    -0.273 OA
HETATM    2  C1  UNL     1      37.617  44.085   6.986  1.00  0.00     0.229 C 
HETATM    3  N1  UNL     1      36.995  44.304   8.219  1.00  0.00    -0.278 N 
ATOM      4  H1  UNL     1      37.535  44.818   8.916  1.00  0.00     0.173 HD
HETATM    5  C10 UNL     1      35.716  43.895   8.597  1.00  0.00     0.336 C 
HETATM    6  O3  UNL     1      35.270  44.158   9.779  1.00  0.00    -0.246 OA
HETATM    7  N2  UNL     1      34.860  43.186   7.725  1.00  0.00    -0.232 N 
ATOM      8  H2  UNL     1      35.162  42.960   6.777  1.00  0.00     0.183 HD
ENDROOT
BRANCH   7   9
HETATM    9  S1  UNL     1      33.279  42.701   8.286  1.00  0.00     0.267 S 
HETATM   10  O4  UNL     1      32.856  41.519   7.463  1.00  0.00    -0.200 OA
HETATM   11  O5  UNL     1      33.315  42.277   9.703  1.00  0.00    -0.200 OA
BRANCH   9  12
HETATM   12  C11 UNL     1      32.218  44.047   8.001  1.00  0.00     0.091 A 
HETATM   13  C12 UNL     1      32.589  45.039   7.128  1.00  0.00     0.026 A 
HETATM   14  C13 UNL     1      31.800  46.147   6.924  1.00  0.00     0.002 A 
HETATM   15  C14 UNL     1      30.591  46.273   7.619  1.00  0.00     0.012 A 
HETATM   16  C15 UNL     1      30.207  45.287   8.494  1.00  0.00    -0.024 A 
HETATM   17  C16 UNL     1      29.011  45.427   9.154  1.00  0.00     0.012 A 
HETATM   18  C20 UNL     1      31.032  44.176   8.676  1.00  0.00    -0.003 A 
HETATM   19  C17 UNL     1      28.577  44.450  10.038  1.00  0.00     0.001 A 
HETATM   20  C18 UNL     1      29.376  43.345  10.231  1.00  0.00     0.001 A 
HETATM   21  C19 UNL     1      30.565  43.230   9.559  1.00  0.00     0.014 A 
ENDBRANCH   9  12
ENDBRANCH   7   9
BRANCH   2  22
HETATM   22  C2  UNL     1      39.031  44.607   6.789  1.00  0.00     0.141 C 
BRANCH  22  23
HETATM   23  C3  UNL     1      38.966  46.076   6.903  1.00  0.00    -0.049 A 
HETATM   24  C4  UNL     1      38.344  46.769   5.893  1.00  0.00     0.010 A 
HETATM   25  C5  UNL     1      38.231  48.151   5.950  1.00  0.00     0.037 A 
HETATM   26  C6  UNL     1      38.734  48.892   7.014  1.00  0.00     0.078 A 
HETATM   27  C8  UNL     1      39.354  48.158   8.011  1.00  0.00     0.037 A 
HETATM   28  C9  UNL     1      39.472  46.783   7.966  1.00  0.00     0.010 A 
BRANCH  26  29
HETATM   29  O2  UNL     1      38.610  50.273   7.053  1.00  0.00    -0.255 OA
BRANCH  29  30
HETATM   30  C7  UNL     1      37.430  50.787   7.685  1.00  0.00     0.530 C 
HETATM   31  F1  UNL     1      37.721  51.937   8.400  1.00  0.00    -0.144 F 
HETATM   32  F2  UNL     1      36.582  51.111   6.615  1.00  0.00    -0.144 F 
HETATM   33  F3  UNL     1      36.788  49.829   8.425  1.00  0.00    -0.144 F 
ENDBRANCH  29  30
ENDBRANCH  26  29
ENDBRANCH  22  23
ENDBRANCH   2  22
TORSDOF 6
ENDMDL
MODEL 5
REMARK VINA RESULT: -7.893694901     10.068     14.564
REMARK  6 active torsions:
REMARK  status: ('A' for Active; 'I' for Inactive)
REMARK    1  A    between atoms: C1_2  and  C2_3 
REMARK       I    between atoms: C1_2  and  N1_15 
REMARK    2  A    between atoms: C2_3  and  C3_4 
REMARK    3  A    between atoms: C6_7  and  O2_8 
REMARK    4  A    between atoms: O2_8  and  C7_9 
REMARK       I    between atoms: N1_15  and  C10_17 
REMARK       I    between atoms: C10_17  and  N2_19 
REMARK    5  A    between atoms: N2_19  and  S1_21 
REMARK    6  A    between atoms: S1_21  and  C11_24 
ROOT
HETATM    1  O1  UNL     1      36.754  43.211   6.484  1.00  0.00    -0.273 OA
HETATM    2  C1  UNL     1      37.790  43.789   6.867  1.00  0.00     0.229 C 
HETATM    3  N1  UNL     1      37.949  44.639   7.966  1.00  0.00    -0.278 N 
ATOM      4  H1  UNL     1      38.882  45.024   8.113  1.00  0.00     0.173 HD
HETATM    5  C10 UNL     1      36.968  45.015   8.884  1.00  0.00     0.336 C 
HETATM    6  O3  UNL     1      37.259  45.802   9.864  1.00  0.00    -0.246 OA
HETATM    7  N2  UNL     1      35.633  44.562   8.792  1.00  0.00    -0.232 N 
ATOM      8  H2  UNL     1      35.349  43.944   8.032  1.00  0.00     0.183 HD
ENDROOT
BRANCH   7   9
HETATM    9  S1  UNL     1      34.472  45.073   9.993  1.00  0.00     0.267 S 
HETATM   10  O4  UNL     1      34.727  44.265  11.232  1.00  0.00    -0.200 OA
HETATM   11  O5  UNL     1      34.645  46.501  10.339  1.00  0.00    -0.200 OA
BRANCH   9  12
HETATM   12  C11 UNL     1      32.900  44.711   9.348  1.00  0.00     0.091 A 
HETATM   13  C12 UNL     1      32.255  43.559   9.723  1.00  0.00     0.026 A 
HETATM   14  C13 UNL     1      31.036  43.212   9.187  1.00  0.00     0.002 A 
HETATM   15  C14 UNL     1      30.435  44.047   8.237  1.00  0.00     0.012 A 
HETATM   16  C15 UNL     1      31.070  45.203   7.855  1.00  0.00    -0.024 A 
HETATM   17  C16 UNL     1      30.454  46.012   6.930  1.00  0.00     0.012 A 
HETATM   18  C20 UNL     1      32.305  45.524   8.419  1.00  0.00    -0.003 A 
HETATM   19  C17 UNL     1      31.052  47.196   6.524  1.00  0.00     0.001 A 
HETATM   20  C18 UNL     1      32.271  47.532   7.071  1.00  0.00     0.001 A 
HETATM   21  C19 UNL     1      32.863  46.707   7.990  1.00  0.00     0.014 A 
ENDBRANCH   9  12
ENDBRANCH   7   9
BRANCH   2  22
HETATM   22  C2  UNL     1      39.003  43.499   6.000  1.00  0.00     0.141 C 
BRANCH  22  23
HETATM   23  C3  UNL     1      39.282  42.056   6.121  1.00  0.00    -0.049 A 
HETATM   24  C4  UNL     1      39.707  41.389   4.998  1.00  0.00     0.010 A 
HETATM   25  C5  UNL     1      40.005  40.035   5.050  1.00  0.00     0.037 A 
HETATM   26  C6  UNL     1      39.891  39.297   6.224  1.00  0.00     0.078 A 
HETATM   27  C8  UNL     1      39.460  40.003   7.333  1.00  0.00     0.037 A 
HETATM   28  C9  UNL     1      39.160  41.351   7.294  1.00  0.00     0.010 A 
BRANCH  26  29
HETATM   29  O2  UNL     1      40.195  37.943   6.256  1.00  0.00    -0.255 OA
BRANCH  29  30
HETATM   30  C7  UNL     1      39.654  37.146   5.194  1.00  0.00     0.530 C 
HETATM   31  F1  UNL     1      40.653  36.753   4.320  1.00  0.00    -0.144 F 
HETATM   32  F2  UNL     1      39.137  36.014   5.844  1.00  0.00    -0.144 F 
HETATM   33  F3  UNL     1      38.599  37.765   4.577  1.00  0.00    -0.144 F 
ENDBRANCH  29  30
ENDBRANCH  26  29
ENDBRANCH  22  23
ENDBRANCH   2  22
TORSDOF 6
ENDMDL
