MODEL 1
REMARK VINA RESULT: -7.934878634      0.000      0.000
REMARK  10 active torsions:
REMARK  status: ('A' for Active; 'I' for Inactive)
REMARK    1  A    between atoms: C2_2  and  C3_3 
REMARK       I    between atoms: C3_3  and  N1_5 
REMARK    2  A    between atoms: N1_5  and  C4_6 
REMARK    3  A    between atoms: C9_11  and  C10_12 
REMARK    4  A    between atoms: C10_12  and  O2_13 
REMARK    5  A    between atoms: C10_12  and  C11_15 
REMARK    6  A    between atoms: C12_17  and  N2_18 
REMARK    7  A    between atoms: C13_20  and  O3_21 
REMARK    8  A    between atoms: C13_20  and  C14_23 
REMARK    9  A    between atoms: C17_26  and  C18_27 
REMARK   10  A    between atoms: C21_35  and  O4_36 
ROOT
HETATM    1  C11 UNL     1      30.078  48.999   6.614  1.00  0.00     0.093 A 
HETATM    2  S1  UNL     1      28.707  50.005   6.358  1.00  0.00    -0.047 SA
HETATM    3  C12 UNL     1      29.541  51.579   6.661  1.00  0.00     0.153 A 
HETATM    4  N3  UNL     1      30.679  51.142   6.894  1.00  0.00    -0.316 N 
ATOM      5  H3  UNL     1      31.385  51.849   7.101  1.00  0.00     0.170 HD
HETATM    6  C21 UNL     1      31.093  49.935   6.911  1.00  0.00     0.162 A 
ENDROOT
BRANCH   3   7
HETATM    7  N2  UNL     1      28.907  52.701   6.596  1.00  0.00    -0.317 N 
HETATM    8  C13 UNL     1      28.908  53.862   7.104  1.00  0.00     0.152 C 
ATOM      9  H2  UNL     1      28.157  52.630   5.909  1.00  0.00     0.170 HD
BRANCH   8  10
HETATM   10  O3  UNL     1      30.179  54.459   6.681  1.00  0.00    -0.345 OA
ATOM     11  H3  UNL     1      29.983  54.901   5.865  1.00  0.00     0.219 HD
ENDBRANCH   8  10
BRANCH   8  12
HETATM   12  C14 UNL     1      28.287  54.835   7.901  1.00  0.00     0.015 A 
HETATM   13  C15 UNL     1      29.082  55.522   8.856  1.00  0.00     0.016 A 
HETATM   14  C16 UNL     1      28.601  56.541   9.621  1.00  0.00     0.017 A 
HETATM   15  C17 UNL     1      27.283  56.940   9.480  1.00  0.00     0.048 A 
HETATM   16  C19 UNL     1      26.462  56.308   8.576  1.00  0.00     0.017 A 
HETATM   17  C20 UNL     1      26.984  55.278   7.817  1.00  0.00     0.016 A 
BRANCH  15  18
HETATM   18  C18 UNL     1      26.751  58.068  10.285  1.00  0.00     0.417 C 
HETATM   19  F1  UNL     1      25.872  57.611  11.238  1.00  0.00    -0.166 F 
HETATM   20  F2  UNL     1      26.152  58.964   9.426  1.00  0.00    -0.166 F 
HETATM   21  F3  UNL     1      27.827  58.740  10.858  1.00  0.00    -0.166 F 
ENDBRANCH  15  18
ENDBRANCH   8  12
ENDBRANCH   3   7
BRANCH   1  22
HETATM   22  C10 UNL     1      30.180  47.573   6.622  1.00  0.00     0.100 C 
BRANCH  22  23
HETATM   23  C9  UNL     1      29.743  46.525   7.497  1.00  0.00     0.039 A 
HETATM   24  C4  UNL     1      30.677  45.622   8.029  1.00  0.00     0.124 A 
HETATM   25  C5  UNL     1      30.228  44.753   9.056  1.00  0.00     0.046 A 
HETATM   26  C6  UNL     1      28.946  44.757   9.527  1.00  0.00     0.003 A 
HETATM   27  C7  UNL     1      28.049  45.631   9.000  1.00  0.00     0.001 A 
HETATM   28  C8  UNL     1      28.470  46.506   7.988  1.00  0.00     0.018 A 
BRANCH  24  29
HETATM   29  N1  UNL     1      31.870  45.341   7.493  1.00  0.00    -0.366 NA
HETATM   30  C3  UNL     1      33.092  45.065   6.934  1.00  0.00     0.315 C 
HETATM   31  O1  UNL     1      33.631  45.714   6.014  1.00  0.00    -0.252 OA
BRANCH  30  32
HETATM   32  C2  UNL     1      33.897  43.896   7.425  1.00  0.00     0.080 C 
HETATM   33  C1  UNL     1      33.253  42.802   7.733  1.00  0.00     0.018 C 
ENDBRANCH  30  32
ENDBRANCH  24  29
ENDBRANCH  22  23
BRANCH  22  34
HETATM   34  O2  UNL     1      30.874  47.112   5.577  1.00  0.00    -0.358 OA
ATOM     35  H2  UNL     1      31.619  47.662   5.364  1.00  0.00     0.217 HD
ENDBRANCH  22  34
ENDBRANCH   1  22
BRANCH   6  36
HETATM   36  O4  UNL     1      32.385  49.459   7.168  1.00  0.00    -0.345 OA
ATOM     37  H4  UNL     1      32.770  48.842   6.557  1.00  0.00     0.219 HD
ENDBRANCH   6  36
TORSDOF 10
ENDMDL
MODEL 2
REMARK VINA RESULT: -7.844661796      1.201      1.606
REMARK  10 active torsions:
REMARK  status: ('A' for Active; 'I' for Inactive)
REMARK    1  A    between atoms: C2_2  and  C3_3 
REMARK       I    between atoms: C3_3  and  N1_5 
REMARK    2  A    between atoms: N1_5  and  C4_6 
REMARK    3  A    between atoms: C9_11  and  C10_12 
REMARK    4  A    between atoms: C10_12  and  O2_13 
REMARK    5  A    between atoms: C10_12  and  C11_15 
REMARK    6  A    between atoms: C12_17  and  N2_18 
REMARK    7  A    between atoms: C13_20  and  O3_21 
REMARK    8  A    between atoms: C13_20  and  C14_23 
REMARK    9  A    between atoms: C17_26  and  C18_27 
REMARK   10  A    between atoms: C21_35  and  O4_36 
ROOT
HETATM    1  C11 UNL     1      30.803  48.543   6.543  1.00  0.00     0.093 A 
HETATM    2  S1  UNL     1      29.764  49.912   6.612  1.00  0.00    -0.047 SA
HETATM    3  C12 UNL     1      31.065  51.157   6.762  1.00  0.00     0.153 A 
HETATM    4  N3  UNL     1      32.049  50.400   6.733  1.00  0.00    -0.316 N 
ATOM      5  H3  UNL     1      32.957  50.859   6.799  1.00  0.00     0.170 HD
HETATM    6  C21 UNL     1      32.086  49.127   6.633  1.00  0.00     0.162 A 
ENDROOT
BRANCH   3   7
HETATM    7  N2  UNL     1      30.788  52.413   6.861  1.00  0.00    -0.317 N 
HETATM    8  C13 UNL     1      30.285  53.249   7.669  1.00  0.00     0.152 C 
ATOM      9  H2  UNL     1      31.065  52.892   6.004  1.00  0.00     0.170 HD
BRANCH   8  10
HETATM   10  O3  UNL     1      31.209  53.277   8.808  1.00  0.00    -0.345 OA
ATOM     11  H3  UNL     1      31.211  52.389   9.143  1.00  0.00     0.219 HD
ENDBRANCH   8  10
BRANCH   8  12
HETATM   12  C14 UNL     1      29.252  54.136   8.007  1.00  0.00     0.015 A 
HETATM   13  C15 UNL     1      27.936  53.822   7.575  1.00  0.00     0.016 A 
HETATM   14  C16 UNL     1      26.849  54.568   7.919  1.00  0.00     0.017 A 
HETATM   15  C17 UNL     1      27.010  55.685   8.721  1.00  0.00     0.048 A 
HETATM   16  C19 UNL     1      28.262  56.042   9.165  1.00  0.00     0.017 A 
HETATM   17  C20 UNL     1      29.342  55.262   8.797  1.00  0.00     0.016 A 
BRANCH  15  18
HETATM   18  C18 UNL     1      25.833  56.491   9.129  1.00  0.00     0.417 C 
HETATM   19  F1  UNL     1      24.667  55.882   8.731  1.00  0.00    -0.166 F 
HETATM   20  F2  UNL     1      25.964  57.750   8.582  1.00  0.00    -0.166 F 
HETATM   21  F3  UNL     1      25.879  56.661  10.509  1.00  0.00    -0.166 F 
ENDBRANCH  15  18
ENDBRANCH   8  12
ENDBRANCH   3   7
BRANCH   1  22
HETATM   22  C10 UNL     1      30.483  47.151   6.496  1.00  0.00     0.100 C 
BRANCH  22  23
HETATM   23  C9  UNL     1      29.954  46.195   7.425  1.00  0.00     0.039 A 
HETATM   24  C4  UNL     1      30.820  45.323   8.104  1.00  0.00     0.124 A 
HETATM   25  C5  UNL     1      30.272  44.560   9.166  1.00  0.00     0.046 A 
HETATM   26  C6  UNL     1      28.960  44.635   9.537  1.00  0.00     0.003 A 
HETATM   27  C7  UNL     1      28.129  45.478   8.870  1.00  0.00     0.001 A 
HETATM   28  C8  UNL     1      28.648  46.248   7.819  1.00  0.00     0.018 A 
BRANCH  24  29
HETATM   29  N1  UNL     1      32.040  44.969   7.686  1.00  0.00    -0.366 NA
HETATM   30  C3  UNL     1      33.293  44.619   7.249  1.00  0.00     0.315 C 
HETATM   31  O1  UNL     1      34.011  45.299   6.488  1.00  0.00    -0.252 OA
BRANCH  30  32
HETATM   32  C2  UNL     1      33.906  43.320   7.687  1.00  0.00     0.080 C 
HETATM   33  C1  UNL     1      33.131  42.270   7.741  1.00  0.00     0.018 C 
ENDBRANCH  30  32
ENDBRANCH  24  29
ENDBRANCH  22  23
BRANCH  22  34
HETATM   34  O2  UNL     1      30.775  46.605   5.312  1.00  0.00    -0.358 OA
ATOM     35  H2  UNL     1      31.205  47.217   4.726  1.00  0.00     0.217 HD
ENDBRANCH  22  34
ENDBRANCH   1  22
BRANCH   6  36
HETATM   36  O4  UNL     1      33.206  48.288   6.595  1.00  0.00    -0.345 OA
ATOM     37  H4  UNL     1      34.030  48.647   6.288  1.00  0.00     0.219 HD
ENDBRANCH   6  36
TORSDOF 10
ENDMDL
MODEL 3
REMARK VINA RESULT: -7.797968557      0.394      1.176
REMARK  10 active torsions:
REMARK  status: ('A' for Active; 'I' for Inactive)
REMARK    1  A    between atoms: C2_2  and  C3_3 
REMARK       I    between atoms: C3_3  and  N1_5 
REMARK    2  A    between atoms: N1_5  and  C4_6 
REMARK    3  A    between atoms: C9_11  and  C10_12 
REMARK    4  A    between atoms: C10_12  and  O2_13 
REMARK    5  A    between atoms: C10_12  and  C11_15 
REMARK    6  A    between atoms: C12_17  and  N2_18 
REMARK    7  A    between atoms: C13_20  and  O3_21 
REMARK    8  A    between atoms: C13_20  and  C14_23 
REMARK    9  A    between atoms: C17_26  and  C18_27 
REMARK   10  A    between atoms: C21_35  and  O4_36 
ROOT
HETATM    1  C11 UNL     1      30.343  48.971   6.551  1.00  0.00     0.093 A 
HETATM    2  S1  UNL     1      28.976  49.974   6.265  1.00  0.00    -0.047 SA
HETATM    3  C12 UNL     1      29.789  51.547   6.624  1.00  0.00     0.153 A 
HETATM    4  N3  UNL     1      30.922  51.112   6.889  1.00  0.00    -0.316 N 
ATOM      5  H3  UNL     1      31.615  51.819   7.134  1.00  0.00     0.170 HD
HETATM    6  C21 UNL     1      31.342  49.906   6.899  1.00  0.00     0.162 A 
ENDROOT
BRANCH   3   7
HETATM    7  N2  UNL     1      29.152  52.666   6.557  1.00  0.00    -0.317 N 
HETATM    8  C13 UNL     1      29.169  53.838   7.038  1.00  0.00     0.152 C 
ATOM      9  H2  UNL     1      28.378  52.580   5.899  1.00  0.00     0.170 HD
BRANCH   8  10
HETATM   10  O3  UNL     1      30.423  54.427   6.557  1.00  0.00    -0.345 OA
ATOM     11  H3  UNL     1      30.256  54.651   5.650  1.00  0.00     0.219 HD
ENDBRANCH   8  10
BRANCH   8  12
HETATM   12  C14 UNL     1      28.575  54.829   7.836  1.00  0.00     0.015 A 
HETATM   13  C15 UNL     1      27.193  55.094   7.650  1.00  0.00     0.016 A 
HETATM   14  C16 UNL     1      26.500  55.973   8.427  1.00  0.00     0.017 A 
HETATM   15  C17 UNL     1      27.150  56.649   9.445  1.00  0.00     0.048 A 
HETATM   16  C19 UNL     1      28.491  56.438   9.668  1.00  0.00     0.017 A 
HETATM   17  C20 UNL     1      29.162  55.539   8.861  1.00  0.00     0.016 A 
BRANCH  15  18
HETATM   18  C18 UNL     1      26.404  57.588  10.318  1.00  0.00     0.417 C 
HETATM   19  F1  UNL     1      27.236  58.575  10.791  1.00  0.00    -0.166 F 
HETATM   20  F2  UNL     1      25.838  56.862  11.345  1.00  0.00    -0.166 F 
HETATM   21  F3  UNL     1      25.344  58.116   9.586  1.00  0.00    -0.166 F 
ENDBRANCH  15  18
ENDBRANCH   8  12
ENDBRANCH   3   7
BRANCH   1  22
HETATM   22  C10 UNL     1      30.454  47.546   6.537  1.00  0.00     0.100 C 
BRANCH  22  23
HETATM   23  C9  UNL     1      30.018  46.481   7.393  1.00  0.00     0.039 A 
HETATM   24  C4  UNL     1      30.954  45.580   7.922  1.00  0.00     0.124 A 
HETATM   25  C5  UNL     1      30.502  44.692   8.932  1.00  0.00     0.046 A 
HETATM   26  C6  UNL     1      29.216  44.678   9.390  1.00  0.00     0.003 A 
HETATM   27  C7  UNL     1      28.316  45.551   8.865  1.00  0.00     0.001 A 
HETATM   28  C8  UNL     1      28.739  46.444   7.870  1.00  0.00     0.018 A 
BRANCH  24  29
HETATM   29  N1  UNL     1      32.155  45.317   7.395  1.00  0.00    -0.366 NA
HETATM   30  C3  UNL     1      33.386  45.061   6.846  1.00  0.00     0.315 C 
HETATM   31  O1  UNL     1      33.943  45.747   5.965  1.00  0.00    -0.252 OA
BRANCH  30  32
HETATM   32  C2  UNL     1      34.178  43.868   7.299  1.00  0.00     0.080 C 
HETATM   33  C1  UNL     1      33.516  42.812   7.690  1.00  0.00     0.018 C 
ENDBRANCH  30  32
ENDBRANCH  24  29
ENDBRANCH  22  23
BRANCH  22  34
HETATM   34  O2  UNL     1      31.157  47.105   5.489  1.00  0.00    -0.358 OA
ATOM     35  H2  UNL     1      31.213  47.748   4.792  1.00  0.00     0.217 HD
ENDBRANCH  22  34
ENDBRANCH   1  22
BRANCH   6  36
HETATM   36  O4  UNL     1      32.627  49.433   7.193  1.00  0.00    -0.345 OA
ATOM     37  H4  UNL     1      33.353  49.735   6.660  1.00  0.00     0.219 HD
ENDBRANCH   6  36
TORSDOF 10
ENDMDL
MODEL 4
REMARK VINA RESULT: -7.780587828      1.217      1.530
REMARK  10 active torsions:
REMARK  status: ('A' for Active; 'I' for Inactive)
REMARK    1  A    between atoms: C2_2  and  C3_3 
REMARK       I    between atoms: C3_3  and  N1_5 
REMARK    2  A    between atoms: N1_5  and  C4_6 
REMARK    3  A    between atoms: C9_11  and  C10_12 
REMARK    4  A    between atoms: C10_12  and  O2_13 
REMARK    5  A    between atoms: C10_12  and  C11_15 
REMARK    6  A    between atoms: C12_17  and  N2_18 
REMARK    7  A    between atoms: C13_20  and  O3_21 
REMARK    8  A    between atoms: C13_20  and  C14_23 
REMARK    9  A    between atoms: C17_26  and  C18_27 
REMARK   10  A    between atoms: C21_35  and  O4_36 
ROOT
HETATM    1  C11 UNL     1      30.742  48.961   6.336  1.00  0.00     0.093 A 
HETATM    2  S1  UNL     1      29.307  49.846   5.996  1.00  0.00    -0.047 SA
HETATM    3  C12 UNL     1      29.910  51.452   6.564  1.00  0.00     0.153 A 
HETATM    4  N3  UNL     1      31.054  51.109   6.905  1.00  0.00    -0.316 N 
ATOM      5  H3  UNL     1      31.642  51.855   7.276  1.00  0.00     0.170 HD
HETATM    6  C21 UNL     1      31.598  49.955   6.858  1.00  0.00     0.162 A 
ENDROOT
BRANCH   3   7
HETATM    7  N2  UNL     1      29.165  52.504   6.525  1.00  0.00    -0.317 N 
HETATM    8  C13 UNL     1      29.089  53.674   7.007  1.00  0.00     0.152 C 
ATOM      9  H2  UNL     1      28.376  52.341   5.901  1.00  0.00     0.170 HD
BRANCH   8  10
HETATM   10  O3  UNL     1      30.258  54.379   6.473  1.00  0.00    -0.345 OA
ATOM     11  H3  UNL     1      30.896  54.363   7.177  1.00  0.00     0.219 HD
ENDBRANCH   8  10
BRANCH   8  12
HETATM   12  C14 UNL     1      28.436  54.604   7.830  1.00  0.00     0.015 A 
HETATM   13  C15 UNL     1      29.229  55.396   8.701  1.00  0.00     0.016 A 
HETATM   14  C16 UNL     1      28.708  56.386   9.478  1.00  0.00     0.017 A 
HETATM   15  C17 UNL     1      27.349  56.646   9.437  1.00  0.00     0.048 A 
HETATM   16  C19 UNL     1      26.528  55.907   8.617  1.00  0.00     0.017 A 
HETATM   17  C20 UNL     1      27.092  54.911   7.841  1.00  0.00     0.016 A 
BRANCH  15  18
HETATM   18  C18 UNL     1      26.769  57.739  10.256  1.00  0.00     0.417 C 
HETATM   19  F1  UNL     1      27.764  58.517  10.800  1.00  0.00    -0.166 F 
HETATM   20  F2  UNL     1      25.975  57.173  11.229  1.00  0.00    -0.166 F 
HETATM   21  F3  UNL     1      25.919  58.486   9.446  1.00  0.00    -0.166 F 
ENDBRANCH  15  18
ENDBRANCH   8  12
ENDBRANCH   3   7
BRANCH   1  22
HETATM   22  C10 UNL     1      31.006  47.562   6.215  1.00  0.00     0.100 C 
BRANCH  22  23
HETATM   23  C9  UNL     1      30.799  46.411   7.045  1.00  0.00     0.039 A 
HETATM   24  C4  UNL     1      31.788  46.020   7.961  1.00  0.00     0.124 A 
HETATM   25  C5  UNL     1      31.441  45.020   8.904  1.00  0.00     0.046 A 
HETATM   26  C6  UNL     1      30.210  44.430   8.945  1.00  0.00     0.003 A 
HETATM   27  C7  UNL     1      29.261  44.812   8.050  1.00  0.00     0.001 A 
HETATM   28  C8  UNL     1      29.578  45.804   7.110  1.00  0.00     0.018 A 
BRANCH  24  29
HETATM   29  N1  UNL     1      33.088  46.323   7.869  1.00  0.00    -0.366 NA
HETATM   30  C3  UNL     1      34.418  46.643   7.761  1.00  0.00     0.315 C 
HETATM   31  O1  UNL     1      34.935  47.283   6.822  1.00  0.00    -0.252 OA
BRANCH  30  32
HETATM   32  C2  UNL     1      35.383  46.213   8.828  1.00  0.00     0.080 C 
HETATM   33  C1  UNL     1      34.957  46.197  10.062  1.00  0.00     0.018 C 
ENDBRANCH  30  32
ENDBRANCH  24  29
ENDBRANCH  22  23
BRANCH  22  34
HETATM   34  O2  UNL     1      31.619  47.261   5.066  1.00  0.00    -0.358 OA
ATOM     35  H2  UNL     1      32.562  47.361   5.120  1.00  0.00     0.217 HD
ENDBRANCH  22  34
ENDBRANCH   1  22
BRANCH   6  36
HETATM   36  O4  UNL     1      32.894  49.587   7.241  1.00  0.00    -0.345 OA
ATOM     37  H4  UNL     1      33.604  50.198   7.082  1.00  0.00     0.219 HD
ENDBRANCH   6  36
TORSDOF 10
ENDMDL
MODEL 5
REMARK VINA RESULT: -7.779828218      5.478     11.021
REMARK  10 active torsions:
REMARK  status: ('A' for Active; 'I' for Inactive)
REMARK    1  A    between atoms: C2_2  and  C3_3 
REMARK       I    between atoms: C3_3  and  N1_5 
REMARK    2  A    between atoms: N1_5  and  C4_6 
REMARK    3  A    between atoms: C9_11  and  C10_12 
REMARK    4  A    between atoms: C10_12  and  O2_13 
REMARK    5  A    between atoms: C10_12  and  C11_15 
REMARK    6  A    between atoms: C12_17  and  N2_18 
REMARK    7  A    between atoms: C13_20  and  O3_21 
REMARK    8  A    between atoms: C13_20  and  C14_23 
REMARK    9  A    between atoms: C17_26  and  C18_27 
REMARK   10  A    between atoms: C21_35  and  O4_36 
ROOT
HETATM    1  C11 UNL     1      26.524  53.668   7.095  1.00  0.00     0.093 A 
HETATM    2  S1  UNL     1      25.879  52.178   6.529  1.00  0.00    -0.047 SA
HETATM    3  C12 UNL     1      27.308  51.156   6.950  1.00  0.00     0.153 A 
HETATM    4  N3  UNL     1      28.029  52.040   7.439  1.00  0.00    -0.316 N 
ATOM      5  H3  UNL     1      28.938  51.726   7.778  1.00  0.00     0.170 HD
HETATM    6  C21 UNL     1      27.795  53.288   7.578  1.00  0.00     0.162 A 
ENDROOT
BRANCH   3   7
HETATM    7  N2  UNL     1      27.327  49.890   6.704  1.00  0.00    -0.317 N 
HETATM    8  C13 UNL     1      27.268  48.772   7.298  1.00  0.00     0.152 C 
ATOM      9  H2  UNL     1      27.422  49.738   5.700  1.00  0.00     0.170 HD
BRANCH   8  10
HETATM   10  O3  UNL     1      25.923  48.724   7.880  1.00  0.00    -0.345 OA
ATOM     11  H3  UNL     1      25.997  48.129   8.617  1.00  0.00     0.219 HD
ENDBRANCH   8  10
BRANCH   8  12
HETATM   12  C14 UNL     1      27.885  47.573   7.687  1.00  0.00     0.015 A 
HETATM   13  C15 UNL     1      29.251  47.386   7.349  1.00  0.00     0.016 A 
HETATM   14  C16 UNL     1      29.969  46.300   7.751  1.00  0.00     0.017 A 
HETATM   15  C17 UNL     1      29.360  45.323   8.520  1.00  0.00     0.048 A 
HETATM   16  C19 UNL     1      28.037  45.446   8.874  1.00  0.00     0.017 A 
HETATM   17  C20 UNL     1      27.340  46.562   8.448  1.00  0.00     0.016 A 
BRANCH  15  18
HETATM   18  C18 UNL     1      30.135  44.148   8.990  1.00  0.00     0.417 C 
HETATM   19  F1  UNL     1      31.436  44.501   9.258  1.00  0.00    -0.166 F 
HETATM   20  F2  UNL     1      30.061  43.169   8.023  1.00  0.00    -0.166 F 
HETATM   21  F3  UNL     1      29.501  43.631  10.117  1.00  0.00    -0.166 F 
ENDBRANCH  15  18
ENDBRANCH   8  12
ENDBRANCH   3   7
BRANCH   1  22
HETATM   22  C10 UNL     1      25.978  54.987   7.029  1.00  0.00     0.100 C 
BRANCH  22  23
HETATM   23  C9  UNL     1      24.853  55.656   7.617  1.00  0.00     0.039 A 
HETATM   24  C4  UNL     1      25.055  56.779   8.435  1.00  0.00     0.124 A 
HETATM   25  C5  UNL     1      23.909  57.528   8.803  1.00  0.00     0.046 A 
HETATM   26  C6  UNL     1      22.644  57.197   8.408  1.00  0.00     0.003 A 
HETATM   27  C7  UNL     1      22.460  56.104   7.621  1.00  0.00     0.001 A 
HETATM   28  C8  UNL     1      23.579  55.350   7.238  1.00  0.00     0.018 A 
BRANCH  24  29
HETATM   29  N1  UNL     1      26.185  57.061   9.092  1.00  0.00    -0.366 NA
HETATM   30  C3  UNL     1      27.351  57.337   9.762  1.00  0.00     0.315 C 
HETATM   31  O1  UNL     1      28.325  56.564   9.870  1.00  0.00    -0.252 OA
BRANCH  30  32
HETATM   32  C2  UNL     1      27.529  58.663  10.445  1.00  0.00     0.080 C 
HETATM   33  C1  UNL     1      26.463  59.251  10.917  1.00  0.00     0.018 C 
ENDBRANCH  30  32
ENDBRANCH  24  29
ENDBRANCH  22  23
BRANCH  22  34
HETATM   34  O2  UNL     1      26.664  55.777   6.197  1.00  0.00    -0.358 OA
ATOM     35  H2  UNL     1      26.278  55.813   5.329  1.00  0.00     0.217 HD
ENDBRANCH  22  34
ENDBRANCH   1  22
BRANCH   6  36
HETATM   36  O4  UNL     1      28.618  54.272   8.140  1.00  0.00    -0.345 OA
ATOM     37  H4  UNL     1      28.738  55.086   7.665  1.00  0.00     0.219 HD
ENDBRANCH   6  36
TORSDOF 10
ENDMDL
