MODEL 1
REMARK VINA RESULT: -8.335118223      0.000      0.000
REMARK  6 active torsions:
REMARK  status: ('A' for Active; 'I' for Inactive)
REMARK       I    between atoms: C2_2  and  N1_4 
REMARK    1  A    between atoms: N1_4  and  C3_6 
REMARK    2  A    between atoms: C5_8  and  S1_9 
REMARK    3  A    between atoms: S1_9  and  O4_12 
REMARK    4  A    between atoms: O4_12  and  N2_13 
REMARK       I    between atoms: N2_13  and  C6_15 
REMARK    5  A    between atoms: C6_15  and  C7_17 
REMARK    6  A    between atoms: C19_29  and  C20_30 
ROOT
HETATM    1  S1  UNL     1      28.176  45.818   8.840  1.00  0.00     0.318 S 
HETATM    2  O2  UNL     1      28.930  46.357  10.045  1.00  0.00    -0.191 OA
HETATM    3  O3  UNL     1      26.860  45.218   9.231  1.00  0.00    -0.191 OA
ENDROOT
BRANCH   1   4
HETATM    4  C5  UNL     1      27.945  47.197   7.778  1.00  0.00     0.090 A 
HETATM    5  C4  UNL     1      29.030  47.760   7.094  1.00  0.00     0.056 A 
HETATM    6  C3  UNL     1      28.946  48.847   6.255  1.00  0.00     0.051 A 
HETATM    7  C19 UNL     1      27.674  49.412   6.092  1.00  0.00     0.074 A 
HETATM    8  C18 UNL     1      26.573  48.867   6.764  1.00  0.00     0.020 A 
HETATM    9  C17 UNL     1      26.716  47.778   7.591  1.00  0.00     0.027 A 
BRANCH   6  10
HETATM   10  N1  UNL     1      30.028  49.419   5.569  1.00  0.00    -0.327 N 
HETATM   11  C2  UNL     1      30.989  50.253   6.116  1.00  0.00     0.218 C 
HETATM   12  C1  UNL     1      32.097  50.789   5.227  1.00  0.00     0.117 C 
HETATM   13  O1  UNL     1      31.054  50.630   7.292  1.00  0.00    -0.274 OA
ATOM     14  H1  UNL     1      30.115  49.200   4.576  1.00  0.00     0.169 HD
ENDBRANCH   6  10
BRANCH   7  15
HETATM   15  C20 UNL     1      27.425  50.577   5.234  1.00  0.00     0.419 C 
HETATM   16  F1  UNL     1      28.057  51.734   5.629  1.00  0.00    -0.166 F 
HETATM   17  F2  UNL     1      26.047  50.859   5.237  1.00  0.00    -0.166 F 
HETATM   18  F3  UNL     1      27.798  50.321   3.915  1.00  0.00    -0.166 F 
ENDBRANCH   7  15
ENDBRANCH   1   4
BRANCH   1  19
HETATM   19  O4  UNL     1      29.193  44.742   8.066  1.00  0.00    -0.144 OA
BRANCH  19  20
HETATM   20  N2  UNL     1      30.432  45.232   8.062  1.00  0.00    -0.213 N 
HETATM   21  C6  UNL     1      31.481  44.521   8.688  1.00  0.00     0.272 C 
HETATM   22  O5  UNL     1      31.203  43.399   9.250  1.00  0.00    -0.266 OA
ATOM     23  H2  UNL     1      30.624  46.124   7.606  1.00  0.00     0.199 HD
BRANCH  21  24
HETATM   24  C7  UNL     1      32.853  44.997   8.724  1.00  0.00     0.009 C 
HETATM   25  C8  UNL     1      33.522  44.896   9.866  1.00  0.00    -0.005 C 
HETATM   26  C9  UNL     1      34.915  45.380   9.900  1.00  0.00    -0.029 C 
HETATM   27  C10 UNL     1      35.886  44.353   9.357  1.00  0.00     0.019 C 
HETATM   28  C11 UNL     1      35.268  45.590  11.380  1.00  0.00     0.019 C 
HETATM   29  C12 UNL     1      35.039  46.716   9.227  1.00  0.00     0.022 C 
HETATM   30  C13 UNL     1      34.324  46.825   7.929  1.00  0.00    -0.043 C 
HETATM   31  C14 UNL     1      35.210  47.196   6.763  1.00  0.00     0.015 C 
HETATM   32  C15 UNL     1      33.303  47.963   8.077  1.00  0.00     0.015 C 
HETATM   33  C16 UNL     1      33.516  45.600   7.549  1.00  0.00     0.052 C 
ENDBRANCH  21  24
ENDBRANCH  19  20
ENDBRANCH   1  19
TORSDOF 6
ENDMDL
MODEL 2
REMARK VINA RESULT: -8.312930599      1.050      2.075
REMARK  6 active torsions:
REMARK  status: ('A' for Active; 'I' for Inactive)
REMARK       I    between atoms: C2_2  and  N1_4 
REMARK    1  A    between atoms: N1_4  and  C3_6 
REMARK    2  A    between atoms: C5_8  and  S1_9 
REMARK    3  A    between atoms: S1_9  and  O4_12 
REMARK    4  A    between atoms: O4_12  and  N2_13 
REMARK       I    between atoms: N2_13  and  C6_15 
REMARK    5  A    between atoms: C6_15  and  C7_17 
REMARK    6  A    between atoms: C19_29  and  C20_30 
ROOT
HETATM    1  S1  UNL     1      28.292  45.963   8.735  1.00  0.00     0.318 S 
HETATM    2  O2  UNL     1      29.223  46.479   9.819  1.00  0.00    -0.191 OA
HETATM    3  O3  UNL     1      27.010  45.438   9.307  1.00  0.00    -0.191 OA
ENDROOT
BRANCH   1   4
HETATM    4  C5  UNL     1      27.992  47.338   7.683  1.00  0.00     0.090 A 
HETATM    5  C4  UNL     1      29.045  47.950   6.993  1.00  0.00     0.056 A 
HETATM    6  C3  UNL     1      28.908  49.037   6.161  1.00  0.00     0.051 A 
HETATM    7  C19 UNL     1      27.611  49.548   6.013  1.00  0.00     0.074 A 
HETATM    8  C18 UNL     1      26.540  48.953   6.692  1.00  0.00     0.020 A 
HETATM    9  C17 UNL     1      26.738  47.867   7.511  1.00  0.00     0.027 A 
BRANCH   6  10
HETATM   10  N1  UNL     1      29.958  49.658   5.468  1.00  0.00    -0.327 N 
HETATM   11  C2  UNL     1      30.941  50.457   6.029  1.00  0.00     0.218 C 
HETATM   12  C1  UNL     1      32.009  51.057   5.130  1.00  0.00     0.117 C 
HETATM   13  O1  UNL     1      31.058  50.753   7.223  1.00  0.00    -0.274 OA
ATOM     14  H1  UNL     1      30.001  49.508   4.460  1.00  0.00     0.169 HD
ENDBRANCH   6  10
BRANCH   7  15
HETATM   15  C20 UNL     1      27.304  50.706   5.165  1.00  0.00     0.419 C 
HETATM   16  F1  UNL     1      27.958  51.868   5.510  1.00  0.00    -0.166 F 
HETATM   17  F2  UNL     1      25.929  50.986   5.254  1.00  0.00    -0.166 F 
HETATM   18  F3  UNL     1      27.593  50.441   3.826  1.00  0.00    -0.166 F 
ENDBRANCH   7  15
ENDBRANCH   1   4
BRANCH   1  19
HETATM   19  O4  UNL     1      29.142  44.825   7.857  1.00  0.00    -0.144 OA
BRANCH  19  20
HETATM   20  N2  UNL     1      30.432  44.889   8.185  1.00  0.00    -0.213 N 
HETATM   21  C6  UNL     1      30.990  43.941   9.072  1.00  0.00     0.272 C 
HETATM   22  O5  UNL     1      30.221  43.025   9.544  1.00  0.00    -0.266 OA
ATOM     23  H2  UNL     1      31.020  45.626   7.794  1.00  0.00     0.199 HD
BRANCH  21  24
HETATM   24  C7  UNL     1      32.385  43.954   9.476  1.00  0.00     0.009 C 
HETATM   25  C8  UNL     1      33.033  45.113   9.456  1.00  0.00    -0.005 C 
HETATM   26  C9  UNL     1      34.449  45.124   9.867  1.00  0.00    -0.029 C 
HETATM   27  C10 UNL     1      34.604  45.177  11.372  1.00  0.00     0.019 C 
HETATM   28  C11 UNL     1      35.057  46.419   9.309  1.00  0.00     0.019 C 
HETATM   29  C12 UNL     1      35.201  43.984   9.242  1.00  0.00     0.022 C 
HETATM   30  C13 UNL     1      34.499  42.675   9.294  1.00  0.00    -0.043 C 
HETATM   31  C14 UNL     1      35.275  41.584   9.993  1.00  0.00     0.015 C 
HETATM   32  C15 UNL     1      34.313  42.213   7.841  1.00  0.00     0.015 C 
HETATM   33  C16 UNL     1      33.105  42.730   9.887  1.00  0.00     0.052 C 
ENDBRANCH  21  24
ENDBRANCH  19  20
ENDBRANCH   1  19
TORSDOF 6
ENDMDL
MODEL 3
REMARK VINA RESULT: -8.224957015      2.132      3.910
REMARK  6 active torsions:
REMARK  status: ('A' for Active; 'I' for Inactive)
REMARK       I    between atoms: C2_2  and  N1_4 
REMARK    1  A    between atoms: N1_4  and  C3_6 
REMARK    2  A    between atoms: C5_8  and  S1_9 
REMARK    3  A    between atoms: S1_9  and  O4_12 
REMARK    4  A    between atoms: O4_12  and  N2_13 
REMARK       I    between atoms: N2_13  and  C6_15 
REMARK    5  A    between atoms: C6_15  and  C7_17 
REMARK    6  A    between atoms: C19_29  and  C20_30 
ROOT
HETATM    1  S1  UNL     1      28.399  46.257   8.557  1.00  0.00     0.318 S 
HETATM    2  O2  UNL     1      29.289  46.918   9.596  1.00  0.00    -0.191 OA
HETATM    3  O3  UNL     1      27.357  45.385   9.191  1.00  0.00    -0.191 OA
ENDROOT
BRANCH   1   4
HETATM    4  C5  UNL     1      27.654  47.577   7.671  1.00  0.00     0.090 A 
HETATM    5  C4  UNL     1      26.288  47.851   7.815  1.00  0.00     0.056 A 
HETATM    6  C3  UNL     1      25.617  48.853   7.153  1.00  0.00     0.051 A 
HETATM    7  C19 UNL     1      26.378  49.640   6.278  1.00  0.00     0.074 A 
HETATM    8  C18 UNL     1      27.746  49.386   6.116  1.00  0.00     0.020 A 
HETATM    9  C17 UNL     1      28.364  48.371   6.805  1.00  0.00     0.027 A 
BRANCH   6  10
HETATM   10  N1  UNL     1      24.249  49.133   7.290  1.00  0.00    -0.327 N 
HETATM   11  C2  UNL     1      23.208  48.341   6.833  1.00  0.00     0.218 C 
HETATM   12  C1  UNL     1      21.777  48.794   7.064  1.00  0.00     0.117 C 
HETATM   13  O1  UNL     1      23.309  47.264   6.235  1.00  0.00    -0.274 OA
ATOM     14  H1  UNL     1      23.998  49.997   7.770  1.00  0.00     0.169 HD
ENDBRANCH   6  10
BRANCH   7  15
HETATM   15  C20 UNL     1      25.805  50.743   5.497  1.00  0.00     0.419 C 
HETATM   16  F1  UNL     1      24.809  50.376   4.619  1.00  0.00    -0.166 F 
HETATM   17  F2  UNL     1      26.821  51.327   4.719  1.00  0.00    -0.166 F 
HETATM   18  F3  UNL     1      25.289  51.735   6.329  1.00  0.00    -0.166 F 
ENDBRANCH   7  15
ENDBRANCH   1   4
BRANCH   1  19
HETATM   19  O4  UNL     1      29.400  45.435   7.502  1.00  0.00    -0.144 OA
BRANCH  19  20
HETATM   20  N2  UNL     1      30.638  45.415   7.995  1.00  0.00    -0.213 N 
HETATM   21  C6  UNL     1      31.135  44.253   8.626  1.00  0.00     0.272 C 
HETATM   22  O5  UNL     1      30.364  43.227   8.705  1.00  0.00    -0.266 OA
ATOM     23  H2  UNL     1      31.229  46.243   7.916  1.00  0.00     0.199 HD
BRANCH  21  24
HETATM   24  C7  UNL     1      32.472  44.164   9.188  1.00  0.00     0.009 C 
HETATM   25  C8  UNL     1      33.179  45.281   9.305  1.00  0.00    -0.005 C 
HETATM   26  C9  UNL     1      34.535  45.187   9.877  1.00  0.00    -0.029 C 
HETATM   27  C10 UNL     1      34.513  45.162  11.391  1.00  0.00     0.019 C 
HETATM   28  C11 UNL     1      35.274  46.468   9.462  1.00  0.00     0.019 C 
HETATM   29  C12 UNL     1      35.293  44.035   9.284  1.00  0.00     0.022 C 
HETATM   30  C13 UNL     1      34.520  42.770   9.184  1.00  0.00    -0.043 C 
HETATM   31  C14 UNL     1      35.147  41.602   9.910  1.00  0.00     0.015 C 
HETATM   32  C15 UNL     1      34.482  42.387   7.697  1.00  0.00     0.015 C 
HETATM   33  C16 UNL     1      33.070  42.881   9.614  1.00  0.00     0.052 C 
ENDBRANCH  21  24
ENDBRANCH  19  20
ENDBRANCH   1  19
TORSDOF 6
ENDMDL
MODEL 4
REMARK VINA RESULT: -8.177719839      0.976      2.026
REMARK  6 active torsions:
REMARK  status: ('A' for Active; 'I' for Inactive)
REMARK       I    between atoms: C2_2  and  N1_4 
REMARK    1  A    between atoms: N1_4  and  C3_6 
REMARK    2  A    between atoms: C5_8  and  S1_9 
REMARK    3  A    between atoms: S1_9  and  O4_12 
REMARK    4  A    between atoms: O4_12  and  N2_13 
REMARK       I    between atoms: N2_13  and  C6_15 
REMARK    5  A    between atoms: C6_15  and  C7_17 
REMARK    6  A    between atoms: C19_29  and  C20_30 
ROOT
HETATM    1  S1  UNL     1      28.425  45.812   8.816  1.00  0.00     0.318 S 
HETATM    2  O2  UNL     1      29.254  46.366   9.964  1.00  0.00    -0.191 OA
HETATM    3  O3  UNL     1      27.153  45.185   9.301  1.00  0.00    -0.191 OA
ENDROOT
BRANCH   1   4
HETATM    4  C5  UNL     1      28.088  47.188   7.778  1.00  0.00     0.090 A 
HETATM    5  C4  UNL     1      29.120  47.815   7.068  1.00  0.00     0.056 A 
HETATM    6  C3  UNL     1      28.953  48.904   6.245  1.00  0.00     0.051 A 
HETATM    7  C19 UNL     1      27.648  49.401   6.126  1.00  0.00     0.074 A 
HETATM    8  C18 UNL     1      26.598  48.791   6.825  1.00  0.00     0.020 A 
HETATM    9  C17 UNL     1      26.825  47.704   7.634  1.00  0.00     0.027 A 
BRANCH   6  10
HETATM   10  N1  UNL     1      29.981  49.540   5.533  1.00  0.00    -0.327 N 
HETATM   11  C2  UNL     1      30.945  50.377   6.070  1.00  0.00     0.218 C 
HETATM   12  C1  UNL     1      31.991  50.988   5.154  1.00  0.00     0.117 C 
HETATM   13  O1  UNL     1      31.060  50.702   7.258  1.00  0.00    -0.274 OA
ATOM     14  H1  UNL     1      30.023  49.369   4.528  1.00  0.00     0.169 HD
ENDBRANCH   6  10
BRANCH   7  15
HETATM   15  C20 UNL     1      27.311  50.560   5.289  1.00  0.00     0.419 C 
HETATM   16  F1  UNL     1      27.928  51.736   5.651  1.00  0.00    -0.166 F 
HETATM   17  F2  UNL     1      25.927  50.797   5.375  1.00  0.00    -0.166 F 
HETATM   18  F3  UNL     1      27.614  50.319   3.950  1.00  0.00    -0.166 F 
ENDBRANCH   7  15
ENDBRANCH   1   4
BRANCH   1  19
HETATM   19  O4  UNL     1      29.403  44.759   7.967  1.00  0.00    -0.144 OA
BRANCH  19  20
HETATM   20  N2  UNL     1      30.628  44.772   8.494  1.00  0.00    -0.213 N 
HETATM   21  C6  UNL     1      31.740  45.135   7.701  1.00  0.00     0.272 C 
HETATM   22  O5  UNL     1      31.533  45.449   6.472  1.00  0.00    -0.266 OA
ATOM     23  H2  UNL     1      30.762  44.520   9.473  1.00  0.00     0.199 HD
BRANCH  21  24
HETATM   24  C7  UNL     1      33.101  45.167   8.209  1.00  0.00     0.009 C 
HETATM   25  C8  UNL     1      34.079  44.757   7.410  1.00  0.00    -0.005 C 
HETATM   26  C9  UNL     1      35.459  44.792   7.928  1.00  0.00    -0.029 C 
HETATM   27  C10 UNL     1      36.075  46.170   7.809  1.00  0.00     0.019 C 
HETATM   28  C11 UNL     1      36.284  43.854   7.036  1.00  0.00     0.019 C 
HETATM   29  C12 UNL     1      35.526  44.241   9.323  1.00  0.00     0.022 C 
HETATM   30  C13 UNL     1      34.457  44.724  10.234  1.00  0.00    -0.043 C 
HETATM   31  C14 UNL     1      34.968  45.412  11.478  1.00  0.00     0.015 C 
HETATM   32  C15 UNL     1      33.683  43.486  10.710  1.00  0.00     0.015 C 
HETATM   33  C16 UNL     1      33.427  45.622   9.577  1.00  0.00     0.052 C 
ENDBRANCH  21  24
ENDBRANCH  19  20
ENDBRANCH   1  19
TORSDOF 6
ENDMDL
MODEL 5
REMARK VINA RESULT: -8.163281439      1.854      3.311
REMARK  6 active torsions:
REMARK  status: ('A' for Active; 'I' for Inactive)
REMARK       I    between atoms: C2_2  and  N1_4 
REMARK    1  A    between atoms: N1_4  and  C3_6 
REMARK    2  A    between atoms: C5_8  and  S1_9 
REMARK    3  A    between atoms: S1_9  and  O4_12 
REMARK    4  A    between atoms: O4_12  and  N2_13 
REMARK       I    between atoms: N2_13  and  C6_15 
REMARK    5  A    between atoms: C6_15  and  C7_17 
REMARK    6  A    between atoms: C19_29  and  C20_30 
ROOT
HETATM    1  S1  UNL     1      28.160  45.862   8.693  1.00  0.00     0.318 S 
HETATM    2  O2  UNL     1      28.983  46.410   9.847  1.00  0.00    -0.191 OA
HETATM    3  O3  UNL     1      27.017  45.021   9.175  1.00  0.00    -0.191 OA
ENDROOT
BRANCH   1   4
HETATM    4  C5  UNL     1      27.577  47.272   7.823  1.00  0.00     0.090 A 
HETATM    5  C4  UNL     1      26.228  47.641   7.888  1.00  0.00     0.056 A 
HETATM    6  C3  UNL     1      25.680  48.719   7.231  1.00  0.00     0.051 A 
HETATM    7  C19 UNL     1      26.555  49.482   6.448  1.00  0.00     0.074 A 
HETATM    8  C18 UNL     1      27.910  49.133   6.367  1.00  0.00     0.020 A 
HETATM    9  C17 UNL     1      28.402  48.045   7.047  1.00  0.00     0.027 A 
BRANCH   6  10
HETATM   10  N1  UNL     1      24.329  49.094   7.289  1.00  0.00    -0.327 N 
HETATM   11  C2  UNL     1      23.260  48.362   6.799  1.00  0.00     0.218 C 
HETATM   12  C1  UNL     1      21.854  48.917   6.942  1.00  0.00     0.117 C 
HETATM   13  O1  UNL     1      23.316  47.263   6.235  1.00  0.00    -0.274 OA
ATOM     14  H1  UNL     1      24.115  49.987   7.731  1.00  0.00     0.169 HD
ENDBRANCH   6  10
BRANCH   7  15
HETATM   15  C20 UNL     1      26.121  50.658   5.683  1.00  0.00     0.419 C 
HETATM   16  F1  UNL     1      25.159  50.407   4.730  1.00  0.00    -0.166 F 
HETATM   17  F2  UNL     1      27.226  51.190   4.997  1.00  0.00    -0.166 F 
HETATM   18  F3  UNL     1      25.629  51.654   6.527  1.00  0.00    -0.166 F 
ENDBRANCH   7  15
ENDBRANCH   1   4
BRANCH   1  19
HETATM   19  O4  UNL     1      29.210  45.039   7.688  1.00  0.00    -0.144 OA
BRANCH  19  20
HETATM   20  N2  UNL     1      30.452  45.479   7.893  1.00  0.00    -0.213 N 
HETATM   21  C6  UNL     1      31.472  44.578   8.273  1.00  0.00     0.272 C 
HETATM   22  O5  UNL     1      31.167  43.337   8.409  1.00  0.00    -0.266 OA
ATOM     23  H2  UNL     1      30.666  46.470   7.775  1.00  0.00     0.199 HD
BRANCH  21  24
HETATM   24  C7  UNL     1      32.844  44.989   8.516  1.00  0.00     0.009 C 
HETATM   25  C8  UNL     1      33.342  44.822   9.736  1.00  0.00    -0.005 C 
HETATM   26  C9  UNL     1      34.736  45.239   9.980  1.00  0.00    -0.029 C 
HETATM   27  C10 UNL     1      35.729  44.185   9.538  1.00  0.00     0.019 C 
HETATM   28  C11 UNL     1      34.888  45.387  11.500  1.00  0.00     0.019 C 
HETATM   29  C12 UNL     1      35.009  46.587   9.379  1.00  0.00     0.022 C 
HETATM   30  C13 UNL     1      34.487  46.770   8.000  1.00  0.00    -0.043 C 
HETATM   31  C14 UNL     1      35.543  47.134   6.982  1.00  0.00     0.015 C 
HETATM   32  C15 UNL     1      33.505  47.949   8.048  1.00  0.00     0.015 C 
HETATM   33  C16 UNL     1      33.690  45.596   7.467  1.00  0.00     0.052 C 
ENDBRANCH  21  24
ENDBRANCH  19  20
ENDBRANCH   1  19
TORSDOF 6
ENDMDL
