MODEL 1
REMARK VINA RESULT: -8.705566818      0.000      0.000
REMARK  5 active torsions:
REMARK  status: ('A' for Active; 'I' for Inactive)
REMARK    1  A    between atoms: N2_6  and  C5_7 
REMARK    2  A    between atoms: C7_9  and  C8_10 
REMARK    3  A    between atoms: C11_15  and  C12_16 
REMARK    4  A    between atoms: C14_20  and  N5_21 
REMARK    5  A    between atoms: C20_32  and  N7_33 
ROOT
HETATM    1  C5  UNL     1      22.215 -34.393  -6.332  1.00  0.00     0.033 A 
HETATM    2  C6  UNL     1      22.167 -35.231  -7.426  1.00  0.00     0.041 A 
HETATM    3  C7  UNL     1      20.986 -35.780  -7.899  1.00  0.00    -0.020 A 
HETATM    4  C19 UNL     1      19.797 -35.465  -7.229  1.00  0.00     0.041 A 
HETATM    5  C20 UNL     1      19.816 -34.631  -6.133  1.00  0.00     0.033 A 
HETATM    6  C24 UNL     1      21.019 -34.113  -5.708  1.00  0.00     0.058 A 
ENDROOT
BRANCH   3   7
HETATM    7  C8  UNL     1      20.972 -36.660  -9.054  1.00  0.00    -0.009 A 
HETATM    8  C9  UNL     1      20.348 -37.898  -9.080  1.00  0.00     0.100 A 
HETATM    9  N3  UNL     1      20.327 -38.717 -10.131  1.00  0.00    -0.363 N 
HETATM   10  C10 UNL     1      20.944 -38.386 -11.315  1.00  0.00     0.061 A 
ATOM     11  H3  UNL     1      19.842 -39.611 -10.057  1.00  0.00     0.165 HD
HETATM   12  C11 UNL     1      20.979 -39.148 -12.438  1.00  0.00     0.011 A 
HETATM   13  C17 UNL     1      21.575 -37.183 -11.352  1.00  0.00     0.033 A 
HETATM   14  C16 UNL     1      21.652 -38.630 -13.513  1.00  0.00     0.065 A 
HETATM   15  S1  UNL     1      22.205 -37.126 -12.936  1.00  0.00    -0.099 SA
HETATM   16  C18 UNL     1      21.595 -36.322 -10.238  1.00  0.00     0.034 A 
BRANCH  12  17
HETATM   17  C12 UNL     1      20.340 -40.496 -12.572  1.00  0.00     0.009 A 
HETATM   18  C13 UNL     1      21.131 -41.617 -12.637  1.00  0.00     0.120 A 
HETATM   19  N4  UNL     1      20.527 -42.815 -12.758  1.00  0.00    -0.201 N 
HETATM   20  C14 UNL     1      19.180 -42.925 -12.814  1.00  0.00     0.675 A 
ATOM     21  H4  UNL     1      21.098 -43.658 -12.809  1.00  0.00     0.183 HD
HETATM   22  N6  UNL     1      18.397 -41.837 -12.751  1.00  0.00    -0.201 N 
HETATM   23  C15 UNL     1      18.975 -40.641 -12.631  1.00  0.00     0.120 A 
ATOM     24  H6  UNL     1      17.382 -41.923 -12.794  1.00  0.00     0.183 HD
BRANCH  20  25
HETATM   25  N5  UNL     1      18.602 -44.076 -12.930  1.00  0.00    -0.234 N 
ATOM     26  H52 UNL     1      18.344 -44.386 -13.868  1.00  0.00     0.174 HD
ATOM     27  H51 UNL     1      18.408 -44.660 -12.116  1.00  0.00     0.174 HD
ENDBRANCH  20  25
ENDBRANCH  12  17
ENDBRANCH   3   7
BRANCH   1  28
HETATM   28  N2  UNL     1      23.468 -33.832  -5.859  1.00  0.00    -0.381 N 
HETATM   29  C4  UNL     1      24.567 -33.702  -6.754  1.00  0.00     0.125 C 
HETATM   30  C3  UNL     1      25.898 -33.449  -6.143  1.00  0.00     0.048 C 
HETATM   31  C2  UNL     1      25.721 -32.390  -5.045  1.00  0.00     0.048 C 
HETATM   32  N1  UNL     1      26.993 -32.080  -4.448  1.00  0.00    -0.186 NA
HETATM   33  C26 UNL     1      24.846 -33.007  -4.008  1.00  0.00     0.048 C 
HETATM   34  C27 UNL     1      25.165 -31.177  -5.698  1.00  0.00     0.159 C 
HETATM   35  C1  UNL     1      28.114 -32.392  -5.302  1.00  0.00     0.132 C 
HETATM   36  S2  UNL     1      26.896 -30.360  -4.150  1.00  0.00     0.299 S 
HETATM   37  N8  UNL     1      25.302 -30.055  -4.800  1.00  0.00    -0.305 N 
HETATM   38  O1  UNL     1      26.943 -30.044  -2.701  1.00  0.00    -0.188 OA
HETATM   39  O2  UNL     1      27.943 -29.635  -4.950  1.00  0.00    -0.188 OA
ATOM     40  H8  UNL     1      24.650 -29.296  -4.600  1.00  0.00     0.173 HD
HETATM   41  C25 UNL     1      23.513 -33.434  -4.495  1.00  0.00     0.125 C 
ENDBRANCH   1  28
BRANCH   5  42
HETATM   42  N7  UNL     1      18.591 -34.337  -5.486  1.00  0.00    -0.381 N 
HETATM   43  C21 UNL     1      17.194 -34.305  -5.855  1.00  0.00     0.124 C 
HETATM   44  C22 UNL     1      16.980 -33.282  -4.759  1.00  0.00     0.040 C 
HETATM   45  C23 UNL     1      18.212 -33.940  -4.154  1.00  0.00     0.124 C 
ENDBRANCH   5  42
TORSDOF 5
ENDMDL
MODEL 2
REMARK VINA RESULT: -8.654074849      4.285     10.884
REMARK  5 active torsions:
REMARK  status: ('A' for Active; 'I' for Inactive)
REMARK    1  A    between atoms: N2_6  and  C5_7 
REMARK    2  A    between atoms: C7_9  and  C8_10 
REMARK    3  A    between atoms: C11_15  and  C12_16 
REMARK    4  A    between atoms: C14_20  and  N5_21 
REMARK    5  A    between atoms: C20_32  and  N7_33 
ROOT
HETATM    1  C5  UNL     1      22.106 -36.040  -6.823  1.00  0.00     0.033 A 
HETATM    2  C6  UNL     1      23.049 -35.066  -6.568  1.00  0.00     0.041 A 
HETATM    3  C7  UNL     1      22.748 -33.882  -5.914  1.00  0.00    -0.020 A 
HETATM    4  C19 UNL     1      21.425 -33.676  -5.500  1.00  0.00     0.041 A 
HETATM    5  C20 UNL     1      20.463 -34.631  -5.741  1.00  0.00     0.033 A 
HETATM    6  C24 UNL     1      20.821 -35.789  -6.395  1.00  0.00     0.058 A 
ENDROOT
BRANCH   3   7
HETATM    7  C8  UNL     1      23.765 -32.878  -5.662  1.00  0.00    -0.009 A 
HETATM    8  C9  UNL     1      23.494 -31.586  -5.238  1.00  0.00     0.100 A 
HETATM    9  N3  UNL     1      24.416 -30.653  -5.004  1.00  0.00    -0.363 N 
HETATM   10  C10 UNL     1      25.757 -30.908  -5.170  1.00  0.00     0.061 A 
ATOM     11  H3  UNL     1      24.121 -29.727  -4.694  1.00  0.00     0.165 HD
HETATM   12  C11 UNL     1      26.770 -30.029  -4.958  1.00  0.00     0.011 A 
HETATM   13  C17 UNL     1      26.088 -32.159  -5.586  1.00  0.00     0.033 A 
HETATM   14  C16 UNL     1      28.040 -30.487  -5.185  1.00  0.00     0.065 A 
HETATM   15  S1  UNL     1      27.790 -32.098  -5.677  1.00  0.00    -0.099 SA
HETATM   16  C18 UNL     1      25.110 -33.141  -5.832  1.00  0.00     0.034 A 
BRANCH  12  17
HETATM   17  C12 UNL     1      26.586 -28.614  -4.501  1.00  0.00     0.009 A 
HETATM   18  C13 UNL     1      26.663 -27.592  -5.416  1.00  0.00     0.120 A 
HETATM   19  N4  UNL     1      26.495 -26.331  -4.974  1.00  0.00    -0.201 N 
HETATM   20  C14 UNL     1      26.255 -26.063  -3.670  1.00  0.00     0.675 A 
ATOM     21  H4  UNL     1      26.550 -25.559  -5.639  1.00  0.00     0.183 HD
HETATM   22  N6  UNL     1      26.179 -27.054  -2.768  1.00  0.00    -0.201 N 
HETATM   23  C15 UNL     1      26.342 -28.310  -3.184  1.00  0.00     0.120 A 
ATOM     24  H6  UNL     1      25.999 -26.850  -1.785  1.00  0.00     0.183 HD
BRANCH  20  25
HETATM   25  N5  UNL     1      26.094 -24.851  -3.248  1.00  0.00    -0.234 N 
ATOM     26  H52 UNL     1      25.623 -24.191  -3.868  1.00  0.00     0.174 HD
ATOM     27  H51 UNL     1      26.425 -24.560  -2.328  1.00  0.00     0.174 HD
ENDBRANCH  20  25
ENDBRANCH  12  17
ENDBRANCH   3   7
BRANCH   1  28
HETATM   28  N2  UNL     1      22.452 -37.271  -7.511  1.00  0.00    -0.381 N 
HETATM   29  C4  UNL     1      22.911 -37.222  -8.857  1.00  0.00     0.125 C 
HETATM   30  C3  UNL     1      22.919 -38.507  -9.604  1.00  0.00     0.048 C 
HETATM   31  C2  UNL     1      23.488 -39.590  -8.678  1.00  0.00     0.048 C 
HETATM   32  N1  UNL     1      23.556 -40.849  -9.371  1.00  0.00    -0.186 NA
HETATM   33  C26 UNL     1      22.525 -39.720  -7.547  1.00  0.00     0.048 C 
HETATM   34  C27 UNL     1      24.857 -39.157  -8.293  1.00  0.00     0.159 C 
HETATM   35  C1  UNL     1      23.589 -40.707 -10.806  1.00  0.00     0.132 C 
HETATM   36  S2  UNL     1      25.037 -41.564  -8.779  1.00  0.00     0.299 S 
HETATM   37  N8  UNL     1      25.560 -40.278  -7.715  1.00  0.00    -0.305 N 
HETATM   38  O1  UNL     1      24.787 -42.810  -8.015  1.00  0.00    -0.188 OA
HETATM   39  O2  UNL     1      26.013 -41.746  -9.909  1.00  0.00    -0.188 OA
ATOM     40  H8  UNL     1      26.187 -40.311  -6.911  1.00  0.00     0.173 HD
HETATM   41  C25 UNL     1      22.308 -38.476  -6.771  1.00  0.00     0.125 C 
ENDBRANCH   1  28
BRANCH   5  42
HETATM   42  N7  UNL     1      19.139 -34.383  -5.305  1.00  0.00    -0.381 N 
HETATM   43  C21 UNL     1      17.808 -34.578  -5.836  1.00  0.00     0.124 C 
HETATM   44  C22 UNL     1      17.350 -33.422  -4.971  1.00  0.00     0.040 C 
HETATM   45  C23 UNL     1      18.545 -33.822  -4.118  1.00  0.00     0.124 C 
ENDBRANCH   5  42
TORSDOF 5
ENDMDL
MODEL 3
REMARK VINA RESULT: -8.548151248      3.878     11.010
REMARK  5 active torsions:
REMARK  status: ('A' for Active; 'I' for Inactive)
REMARK    1  A    between atoms: N2_6  and  C5_7 
REMARK    2  A    between atoms: C7_9  and  C8_10 
REMARK    3  A    between atoms: C11_15  and  C12_16 
REMARK    4  A    between atoms: C14_20  and  N5_21 
REMARK    5  A    between atoms: C20_32  and  N7_33 
ROOT
HETATM    1  C5  UNL     1      21.419 -35.541  -7.864  1.00  0.00     0.033 A 
HETATM    2  C6  UNL     1      22.436 -34.707  -7.452  1.00  0.00     0.041 A 
HETATM    3  C7  UNL     1      22.282 -33.783  -6.430  1.00  0.00    -0.020 A 
HETATM    4  C19 UNL     1      21.034 -33.703  -5.798  1.00  0.00     0.041 A 
HETATM    5  C20 UNL     1      20.000 -34.523  -6.190  1.00  0.00     0.033 A 
HETATM    6  C24 UNL     1      20.212 -35.423  -7.210  1.00  0.00     0.058 A 
ENDROOT
BRANCH   3   7
HETATM    7  C8  UNL     1      23.374 -32.920  -6.020  1.00  0.00    -0.009 A 
HETATM    8  C9  UNL     1      23.213 -31.607  -5.603  1.00  0.00     0.100 A 
HETATM    9  N3  UNL     1      24.205 -30.801  -5.226  1.00  0.00    -0.363 N 
HETATM   10  C10 UNL     1      25.514 -31.224  -5.220  1.00  0.00     0.061 A 
ATOM     11  H3  UNL     1      23.989 -29.848  -4.934  1.00  0.00     0.165 HD
HETATM   12  C11 UNL     1      26.591 -30.484  -4.855  1.00  0.00     0.011 A 
HETATM   13  C17 UNL     1      25.737 -32.504  -5.621  1.00  0.00     0.033 A 
HETATM   14  C16 UNL     1      27.813 -31.098  -4.923  1.00  0.00     0.065 A 
HETATM   15  S1  UNL     1      27.431 -32.660  -5.485  1.00  0.00    -0.099 SA
HETATM   16  C18 UNL     1      24.686 -33.350  -6.019  1.00  0.00     0.034 A 
BRANCH  12  17
HETATM   17  C12 UNL     1      26.527 -29.061  -4.390  1.00  0.00     0.009 A 
HETATM   18  C13 UNL     1      26.496 -28.789  -3.044  1.00  0.00     0.120 A 
HETATM   19  N4  UNL     1      26.438 -27.500  -2.658  1.00  0.00    -0.201 N 
HETATM   20  C14 UNL     1      26.413 -26.491  -3.559  1.00  0.00     0.675 A 
ATOM     21  H4  UNL     1      26.412 -27.279  -1.663  1.00  0.00     0.183 HD
HETATM   22  N6  UNL     1      26.443 -26.745  -4.877  1.00  0.00    -0.201 N 
HETATM   23  C15 UNL     1      26.500 -28.015  -5.281  1.00  0.00     0.120 A 
ATOM     24  H6  UNL     1      26.423 -25.984  -5.554  1.00  0.00     0.183 HD
BRANCH  20  25
HETATM   25  N5  UNL     1      26.357 -25.254  -3.186  1.00  0.00    -0.234 N 
ATOM     26  H52 UNL     1      27.151 -24.879  -2.666  1.00  0.00     0.174 HD
ATOM     27  H51 UNL     1      25.550 -24.669  -3.401  1.00  0.00     0.174 HD
ENDBRANCH  20  25
ENDBRANCH  12  17
ENDBRANCH   3   7
BRANCH   1  28
HETATM   28  N2  UNL     1      21.610 -36.499  -8.939  1.00  0.00    -0.381 N 
HETATM   29  C4  UNL     1      20.520 -37.308  -9.366  1.00  0.00     0.125 C 
HETATM   30  C3  UNL     1      20.854 -38.483 -10.213  1.00  0.00     0.048 C 
HETATM   31  C2  UNL     1      21.885 -38.036 -11.258  1.00  0.00     0.048 C 
HETATM   32  N1  UNL     1      22.213 -39.132 -12.131  1.00  0.00    -0.186 NA
HETATM   33  C26 UNL     1      23.109 -37.650 -10.498  1.00  0.00     0.048 C 
HETATM   34  C27 UNL     1      21.260 -36.940 -12.044  1.00  0.00     0.159 C 
HETATM   35  C1  UNL     1      21.191 -40.150 -12.172  1.00  0.00     0.132 C 
HETATM   36  S2  UNL     1      22.398 -38.370 -13.694  1.00  0.00     0.299 S 
HETATM   37  N8  UNL     1      22.033 -36.720 -13.242  1.00  0.00    -0.305 N 
HETATM   38  O1  UNL     1      23.786 -38.480 -14.205  1.00  0.00    -0.188 OA
HETATM   39  O2  UNL     1      21.368 -38.897 -14.653  1.00  0.00    -0.188 OA
ATOM     40  H8  UNL     1      22.295 -35.846 -13.699  1.00  0.00     0.173 HD
HETATM   41  C25 UNL     1      22.909 -36.563  -9.511  1.00  0.00     0.125 C 
ENDBRANCH   1  28
BRANCH   5  42
HETATM   42  N7  UNL     1      18.756 -34.410  -5.523  1.00  0.00    -0.381 N 
HETATM   43  C21 UNL     1      17.362 -34.553  -5.878  1.00  0.00     0.124 C 
HETATM   44  C22 UNL     1      17.030 -33.594  -4.754  1.00  0.00     0.040 C 
HETATM   45  C23 UNL     1      18.345 -34.099  -4.178  1.00  0.00     0.124 C 
ENDBRANCH   5  42
TORSDOF 5
ENDMDL
MODEL 4
REMARK VINA RESULT: -8.523680344      3.822     10.886
REMARK  5 active torsions:
REMARK  status: ('A' for Active; 'I' for Inactive)
REMARK    1  A    between atoms: N2_6  and  C5_7 
REMARK    2  A    between atoms: C7_9  and  C8_10 
REMARK    3  A    between atoms: C11_15  and  C12_16 
REMARK    4  A    between atoms: C14_20  and  N5_21 
REMARK    5  A    between atoms: C20_32  and  N7_33 
ROOT
HETATM    1  C5  UNL     1      21.446 -35.601  -7.696  1.00  0.00     0.033 A 
HETATM    2  C6  UNL     1      22.462 -34.752  -7.313  1.00  0.00     0.041 A 
HETATM    3  C7  UNL     1      22.300 -33.778  -6.341  1.00  0.00    -0.020 A 
HETATM    4  C19 UNL     1      21.044 -33.659  -5.730  1.00  0.00     0.041 A 
HETATM    5  C20 UNL     1      20.011 -34.494  -6.094  1.00  0.00     0.033 A 
HETATM    6  C24 UNL     1      20.231 -35.445  -7.065  1.00  0.00     0.058 A 
ENDROOT
BRANCH   3   7
HETATM    7  C8  UNL     1      23.391 -32.900  -5.961  1.00  0.00    -0.009 A 
HETATM    8  C9  UNL     1      23.224 -31.588  -5.544  1.00  0.00     0.100 A 
HETATM    9  N3  UNL     1      24.216 -30.769  -5.193  1.00  0.00    -0.363 N 
HETATM   10  C10 UNL     1      25.529 -31.176  -5.219  1.00  0.00     0.061 A 
ATOM     11  H3  UNL     1      23.996 -29.817  -4.900  1.00  0.00     0.165 HD
HETATM   12  C11 UNL     1      26.606 -30.422  -4.882  1.00  0.00     0.011 A 
HETATM   13  C17 UNL     1      25.758 -32.454  -5.621  1.00  0.00     0.033 A 
HETATM   14  C16 UNL     1      27.833 -31.022  -4.979  1.00  0.00     0.065 A 
HETATM   15  S1  UNL     1      27.456 -32.590  -5.526  1.00  0.00    -0.099 SA
HETATM   16  C18 UNL     1      24.707 -33.315  -5.991  1.00  0.00     0.034 A 
BRANCH  12  17
HETATM   17  C12 UNL     1      26.537 -28.998  -4.420  1.00  0.00     0.009 A 
HETATM   18  C13 UNL     1      26.480 -28.724  -3.076  1.00  0.00     0.120 A 
HETATM   19  N4  UNL     1      26.417 -27.435  -2.692  1.00  0.00    -0.201 N 
HETATM   20  C14 UNL     1      26.412 -26.427  -3.595  1.00  0.00     0.675 A 
ATOM     21  H4  UNL     1      26.373 -27.213  -1.698  1.00  0.00     0.183 HD
HETATM   22  N6  UNL     1      26.467 -26.683  -4.911  1.00  0.00    -0.201 N 
HETATM   23  C15 UNL     1      26.529 -27.953  -5.313  1.00  0.00     0.120 A 
ATOM     24  H6  UNL     1      26.462 -25.922  -5.589  1.00  0.00     0.183 HD
BRANCH  20  25
HETATM   25  N5  UNL     1      26.352 -25.190  -3.224  1.00  0.00    -0.234 N 
ATOM     26  H52 UNL     1      26.682 -24.958  -2.286  1.00  0.00     0.174 HD
ATOM     27  H51 UNL     1      25.989 -24.465  -3.843  1.00  0.00     0.174 HD
ENDBRANCH  20  25
ENDBRANCH  12  17
ENDBRANCH   3   7
BRANCH   1  28
HETATM   28  N2  UNL     1      21.646 -36.613  -8.718  1.00  0.00    -0.381 N 
HETATM   29  C4  UNL     1      21.023 -36.466  -9.989  1.00  0.00     0.125 C 
HETATM   30  C3  UNL     1      20.984 -37.674 -10.856  1.00  0.00     0.048 C 
HETATM   31  C2  UNL     1      22.361 -38.347 -10.792  1.00  0.00     0.048 C 
HETATM   32  N1  UNL     1      22.387 -39.503 -11.649  1.00  0.00    -0.186 NA
HETATM   33  C26 UNL     1      22.541 -38.796  -9.381  1.00  0.00     0.048 C 
HETATM   34  C27 UNL     1      23.355 -37.350 -11.267  1.00  0.00     0.159 C 
HETATM   35  C1  UNL     1      21.394 -39.458 -12.695  1.00  0.00     0.132 C 
HETATM   36  S2  UNL     1      24.002 -39.479 -12.319  1.00  0.00     0.299 S 
HETATM   37  N8  UNL     1      24.598 -38.024 -11.554  1.00  0.00    -0.305 N 
HETATM   38  O1  UNL     1      24.796 -40.658 -11.897  1.00  0.00    -0.188 OA
HETATM   39  O2  UNL     1      23.941 -39.306 -13.812  1.00  0.00    -0.188 OA
ATOM     40  H8  UNL     1      25.558 -37.733 -11.364  1.00  0.00     0.173 HD
HETATM   41  C25 UNL     1      22.479 -37.712  -8.373  1.00  0.00     0.125 C 
ENDBRANCH   1  28
BRANCH   5  42
HETATM   42  N7  UNL     1      18.759 -34.341  -5.451  1.00  0.00    -0.381 N 
HETATM   43  C21 UNL     1      17.371 -34.555  -5.797  1.00  0.00     0.124 C 
HETATM   44  C22 UNL     1      17.007 -33.491  -4.782  1.00  0.00     0.040 C 
HETATM   45  C23 UNL     1      18.329 -33.899  -4.149  1.00  0.00     0.124 C 
ENDBRANCH   5  42
TORSDOF 5
ENDMDL
MODEL 5
REMARK VINA RESULT: -8.444971835      1.783      2.191
REMARK  5 active torsions:
REMARK  status: ('A' for Active; 'I' for Inactive)
REMARK    1  A    between atoms: N2_6  and  C5_7 
REMARK    2  A    between atoms: C7_9  and  C8_10 
REMARK    3  A    between atoms: C11_15  and  C12_16 
REMARK    4  A    between atoms: C14_20  and  N5_21 
REMARK    5  A    between atoms: C20_32  and  N7_33 
ROOT
HETATM    1  C5  UNL     1      22.887 -33.360  -5.307  1.00  0.00     0.033 A 
HETATM    2  C6  UNL     1      22.703 -34.149  -6.423  1.00  0.00     0.041 A 
HETATM    3  C7  UNL     1      21.666 -35.062  -6.534  1.00  0.00    -0.020 A 
HETATM    4  C19 UNL     1      20.775 -35.181  -5.459  1.00  0.00     0.041 A 
HETATM    5  C20 UNL     1      20.936 -34.406  -4.332  1.00  0.00     0.033 A 
HETATM    6  C24 UNL     1      21.984 -33.515  -4.278  1.00  0.00     0.058 A 
ENDROOT
BRANCH   3   7
HETATM    7  C8  UNL     1      21.502 -35.877  -7.724  1.00  0.00    -0.009 A 
HETATM    8  C9  UNL     1      20.469 -36.785  -7.906  1.00  0.00     0.100 A 
HETATM    9  N3  UNL     1      20.305 -37.542  -8.991  1.00  0.00    -0.363 N 
HETATM   10  C10 UNL     1      21.178 -37.478 -10.053  1.00  0.00     0.061 A 
ATOM     11  H3  UNL     1      19.514 -38.183  -9.036  1.00  0.00     0.165 HD
HETATM   12  C11 UNL     1      21.097 -38.203 -11.197  1.00  0.00     0.011 A 
HETATM   13  C17 UNL     1      22.213 -36.605  -9.933  1.00  0.00     0.033 A 
HETATM   14  C16 UNL     1      22.074 -37.987 -12.133  1.00  0.00     0.065 A 
HETATM   15  S1  UNL     1      23.056 -36.802 -11.403  1.00  0.00    -0.099 SA
HETATM   16  C18 UNL     1      22.382 -35.809  -8.784  1.00  0.00     0.034 A 
BRANCH  12  17
HETATM   17  C12 UNL     1      20.026 -39.208 -11.495  1.00  0.00     0.009 A 
HETATM   18  C13 UNL     1      20.238 -40.154 -12.468  1.00  0.00     0.120 A 
HETATM   19  N4  UNL     1      19.256 -41.043 -12.713  1.00  0.00    -0.201 N 
HETATM   20  C14 UNL     1      18.090 -41.017 -12.026  1.00  0.00     0.675 A 
ATOM     21  H4  UNL     1      19.394 -41.751 -13.433  1.00  0.00     0.183 HD
HETATM   22  N6  UNL     1      17.873 -40.097 -11.074  1.00  0.00    -0.201 N 
HETATM   23  C15 UNL     1      18.832 -39.207 -10.815  1.00  0.00     0.120 A 
ATOM     24  H6  UNL     1      16.994 -40.079 -10.558  1.00  0.00     0.183 HD
BRANCH  20  25
HETATM   25  N5  UNL     1      17.149 -41.872 -12.264  1.00  0.00    -0.234 N 
ATOM     26  H52 UNL     1      16.911 -42.058 -13.238  1.00  0.00     0.174 HD
ATOM     27  H51 UNL     1      16.658 -42.347 -11.506  1.00  0.00     0.174 HD
ENDBRANCH  20  25
ENDBRANCH  12  17
ENDBRANCH   3   7
BRANCH   1  28
HETATM   28  N2  UNL     1      23.984 -32.412  -5.219  1.00  0.00    -0.381 N 
HETATM   29  C4  UNL     1      24.756 -32.117  -6.377  1.00  0.00     0.125 C 
HETATM   30  C3  UNL     1      26.050 -31.419  -6.155  1.00  0.00     0.048 C 
HETATM   31  C2  UNL     1      25.815 -30.301  -5.129  1.00  0.00     0.048 C 
HETATM   32  N1  UNL     1      27.033 -29.568  -4.909  1.00  0.00    -0.186 NA
HETATM   33  C26 UNL     1      25.430 -30.977  -3.857  1.00  0.00     0.048 C 
HETATM   34  C27 UNL     1      24.783 -29.398  -5.700  1.00  0.00     0.159 C 
HETATM   35  C1  UNL     1      27.970 -29.680  -6.001  1.00  0.00     0.132 C 
HETATM   36  S2  UNL     1      26.489 -27.917  -4.721  1.00  0.00     0.299 S 
HETATM   37  N8  UNL     1      24.773 -28.163  -4.953  1.00  0.00    -0.305 N 
HETATM   38  O1  UNL     1      26.766 -27.392  -3.362  1.00  0.00    -0.188 OA
HETATM   39  O2  UNL     1      27.053 -27.056  -5.817  1.00  0.00    -0.188 OA
ATOM     40  H8  UNL     1      23.985 -27.593  -4.645  1.00  0.00     0.173 HD
HETATM   41  C25 UNL     1      24.216 -31.822  -3.947  1.00  0.00     0.125 C 
ENDBRANCH   1  28
BRANCH   5  42
HETATM   42  N7  UNL     1      20.011 -34.557  -3.270  1.00  0.00    -0.381 N 
HETATM   43  C21 UNL     1      18.660 -34.127  -2.990  1.00  0.00     0.124 C 
HETATM   44  C22 UNL     1      18.993 -34.212  -1.515  1.00  0.00     0.040 C 
HETATM   45  C23 UNL     1      20.027 -35.222  -1.992  1.00  0.00     0.124 C 
ENDBRANCH   5  42
TORSDOF 5
ENDMDL
