MODEL 1
REMARK VINA RESULT: -7.683020352      0.000      0.000
REMARK  7 active torsions:
REMARK  status: ('A' for Active; 'I' for Inactive)
REMARK    1  A    between atoms: C7_8  and  C8_9 
REMARK    2  A    between atoms: C8_9  and  C9_10 
REMARK    3  A    between atoms: C9_10  and  C10_11 
REMARK    4  A    between atoms: N3_37  and  C29_38 
REMARK    5  A    between atoms: C29_38  and  O4_39 
REMARK    6  A    between atoms: C29_38  and  C30_41 
REMARK    7  A    between atoms: C30_41  and  O5_42 
ROOT
HETATM    1  N1  UNL     1      20.284 -37.721  -9.569  1.00  0.00    -0.191 NA
HETATM    2  C1  UNL     1      21.106 -37.009  -9.174  1.00  0.00     0.100 C 
HETATM    3  C2  UNL     1      22.165 -36.126  -8.688  1.00  0.00     0.051 A 
HETATM    4  C3  UNL     1      23.157 -35.715  -9.539  1.00  0.00     0.025 A 
HETATM    5  C4  UNL     1      24.139 -34.886  -9.020  1.00  0.00     0.032 A 
HETATM    6  C5  UNL     1      24.173 -34.451  -7.694  1.00  0.00     0.044 A 
HETATM    7  C6  UNL     1      23.177 -34.863  -6.844  1.00  0.00    -0.012 A 
HETATM    8  C7  UNL     1      22.176 -35.709  -7.369  1.00  0.00    -0.028 A 
HETATM    9  C20 UNL     1      22.980 -34.539  -5.417  1.00  0.00     0.150 C 
HETATM   10  S1  UNL     1      23.860 -35.580  -4.331  1.00  0.00     0.021 S 
HETATM   11  O1  UNL     1      24.419 -36.979  -4.901  1.00  0.00    -0.258 OA
HETATM   12  C21 UNL     1      23.693 -35.310  -2.675  1.00  0.00     0.135 C 
HETATM   13  C22 UNL     1      24.700 -34.283  -2.171  1.00  0.00     0.180 C 
HETATM   14  O2  UNL     1      24.146 -33.009  -2.142  1.00  0.00    -0.388 OA
HETATM   15  C23 UNL     1      24.891 -32.202  -1.263  1.00  0.00     0.193 C 
HETATM   16  C24 UNL     1      25.169 -30.846  -1.837  1.00  0.00     0.193 C 
HETATM   17  O3  UNL     1      26.531 -30.594  -2.009  1.00  0.00    -0.387 OA
HETATM   18  C25 UNL     1      26.783 -29.944  -3.213  1.00  0.00     0.195 C 
HETATM   19  C26 UNL     1      26.609 -30.942  -4.327  1.00  0.00     0.258 C 
HETATM   20  N2  UNL     1      25.869 -30.411  -5.436  1.00  0.00    -0.072 N 
ATOM     21  H21 UNL     1      26.114 -29.445  -5.656  1.00  0.00     0.277 HD
ATOM     22  H22 UNL     1      24.885 -30.249  -5.222  1.00  0.00     0.277 HD
HETATM   23  C27 UNL     1      26.075 -31.342  -6.575  1.00  0.00     0.252 C 
HETATM   24  C28 UNL     1      25.173 -32.506  -6.475  1.00  0.00     0.158 C 
HETATM   25  N3  UNL     1      25.319 -33.611  -7.370  1.00  0.00    -0.327 N 
ENDROOT
BRANCH   8  26
HETATM   26  C8  UNL     1      21.055 -36.217  -6.538  1.00  0.00     0.041 C 
BRANCH  26  27
HETATM   27  C9  UNL     1      19.745 -35.539  -6.851  1.00  0.00     0.014 C 
BRANCH  27  28
HETATM   28  C10 UNL     1      19.324 -34.631  -5.736  1.00  0.00    -0.039 C 
HETATM   29  C11 UNL     1      19.879 -35.245  -4.452  1.00  0.00     0.014 C 
HETATM   30  C12 UNL     1      19.632 -34.372  -3.261  1.00  0.00    -0.013 C 
HETATM   31  C13 UNL     1      20.246 -33.004  -3.503  1.00  0.00     0.009 C 
HETATM   32  C17 UNL     1      18.136 -34.242  -3.087  1.00  0.00     0.009 C 
HETATM   33  C14 UNL     1      19.635 -32.392  -4.733  1.00  0.00    -0.013 C 
HETATM   34  C15 UNL     1      18.146 -32.258  -4.493  1.00  0.00     0.009 C 
HETATM   35  C19 UNL     1      19.899 -33.261  -5.953  1.00  0.00     0.014 C 
HETATM   36  C16 UNL     1      17.580 -33.638  -4.360  1.00  0.00    -0.013 C 
HETATM   37  C18 UNL     1      17.838 -34.505  -5.570  1.00  0.00     0.014 C 
ENDBRANCH  27  28
ENDBRANCH  26  27
ENDBRANCH   8  26
BRANCH  25  38
HETATM   38  C29 UNL     1      26.608 -33.938  -7.965  1.00  0.00     0.142 C 
BRANCH  38  39
HETATM   39  O4  UNL     1      26.984 -33.044  -8.984  1.00  0.00    -0.348 OA
ATOM     40  H4  UNL     1      27.638 -33.407  -9.570  1.00  0.00     0.219 HD
ENDBRANCH  38  39
BRANCH  38  41
HETATM   41  C30 UNL     1      27.725 -34.325  -7.100  1.00  0.00     0.248 C 
BRANCH  41  42
HETATM   42  O5  UNL     1      27.262 -35.380  -6.237  1.00  0.00    -0.393 OA
ATOM     43  H5  UNL     1      27.275 -36.187  -6.739  1.00  0.00     0.210 HD
ENDBRANCH  41  42
ENDBRANCH  38  41
ENDBRANCH  25  38
TORSDOF 7
ENDMDL
MODEL 2
REMARK VINA RESULT: -7.648277376      0.180      1.189
REMARK  7 active torsions:
REMARK  status: ('A' for Active; 'I' for Inactive)
REMARK    1  A    between atoms: C7_8  and  C8_9 
REMARK    2  A    between atoms: C8_9  and  C9_10 
REMARK    3  A    between atoms: C9_10  and  C10_11 
REMARK    4  A    between atoms: N3_37  and  C29_38 
REMARK    5  A    between atoms: C29_38  and  O4_39 
REMARK    6  A    between atoms: C29_38  and  C30_41 
REMARK    7  A    between atoms: C30_41  and  O5_42 
ROOT
HETATM    1  N1  UNL     1      20.250 -37.727  -9.424  1.00  0.00    -0.191 NA
HETATM    2  C1  UNL     1      21.077 -37.008  -9.053  1.00  0.00     0.100 C 
HETATM    3  C2  UNL     1      22.142 -36.115  -8.598  1.00  0.00     0.051 A 
HETATM    4  C3  UNL     1      23.120 -35.717  -9.471  1.00  0.00     0.025 A 
HETATM    5  C4  UNL     1      24.108 -34.877  -8.981  1.00  0.00     0.032 A 
HETATM    6  C5  UNL     1      24.162 -34.421  -7.663  1.00  0.00     0.044 A 
HETATM    7  C6  UNL     1      23.181 -34.821  -6.791  1.00  0.00    -0.012 A 
HETATM    8  C7  UNL     1      22.173 -35.676  -7.286  1.00  0.00    -0.028 A 
HETATM    9  C20 UNL     1      23.005 -34.474  -5.367  1.00  0.00     0.150 C 
HETATM   10  S1  UNL     1      23.904 -35.496  -4.278  1.00  0.00     0.021 S 
HETATM   11  O1  UNL     1      24.456 -36.903  -4.833  1.00  0.00    -0.258 OA
HETATM   12  C21 UNL     1      23.763 -35.199  -2.624  1.00  0.00     0.135 C 
HETATM   13  C22 UNL     1      24.775 -34.163  -2.152  1.00  0.00     0.180 C 
HETATM   14  O2  UNL     1      24.220 -32.889  -2.135  1.00  0.00    -0.388 OA
HETATM   15  C23 UNL     1      24.977 -32.066  -1.282  1.00  0.00     0.193 C 
HETATM   16  C24 UNL     1      25.243 -30.720  -1.881  1.00  0.00     0.193 C 
HETATM   17  O3  UNL     1      26.601 -30.468  -2.079  1.00  0.00    -0.387 OA
HETATM   18  C25 UNL     1      26.834 -29.838  -3.297  1.00  0.00     0.195 C 
HETATM   19  C26 UNL     1      26.644 -30.854  -4.392  1.00  0.00     0.258 C 
HETATM   20  N2  UNL     1      25.886 -30.342  -5.498  1.00  0.00    -0.072 N 
ATOM     21  H21 UNL     1      26.125 -29.380  -5.738  1.00  0.00     0.277 HD
ATOM     22  H22 UNL     1      24.905 -30.178  -5.271  1.00  0.00     0.277 HD
HETATM   23  C27 UNL     1      26.076 -31.292  -6.625  1.00  0.00     0.252 C 
HETATM   24  C28 UNL     1      25.177 -32.455  -6.491  1.00  0.00     0.158 C 
HETATM   25  N3  UNL     1      25.311 -33.574  -7.371  1.00  0.00    -0.327 N 
ENDROOT
BRANCH   8  26
HETATM   26  C8  UNL     1      21.066 -36.173  -6.430  1.00  0.00     0.041 C 
BRANCH  26  27
HETATM   27  C9  UNL     1      19.754 -35.489  -6.721  1.00  0.00     0.014 C 
BRANCH  27  28
HETATM   28  C10 UNL     1      19.372 -34.555  -5.613  1.00  0.00    -0.039 C 
HETATM   29  C11 UNL     1      17.846 -34.493  -5.612  1.00  0.00     0.014 C 
HETATM   30  C12 UNL     1      17.318 -33.682  -4.470  1.00  0.00    -0.013 C 
HETATM   31  C13 UNL     1      17.825 -34.263  -3.162  1.00  0.00     0.009 C 
HETATM   32  C17 UNL     1      17.825 -32.268  -4.637  1.00  0.00     0.009 C 
HETATM   33  C14 UNL     1      19.330 -34.250  -3.159  1.00  0.00    -0.013 C 
HETATM   34  C15 UNL     1      19.780 -32.811  -3.298  1.00  0.00     0.009 C 
HETATM   35  C19 UNL     1      19.876 -35.090  -4.303  1.00  0.00     0.014 C 
HETATM   36  C16 UNL     1      19.338 -32.323  -4.643  1.00  0.00    -0.013 C 
HETATM   37  C18 UNL     1      19.880 -33.153  -5.783  1.00  0.00     0.014 C 
ENDBRANCH  27  28
ENDBRANCH  26  27
ENDBRANCH   8  26
BRANCH  25  38
HETATM   38  C29 UNL     1      26.592 -33.909  -7.980  1.00  0.00     0.142 C 
BRANCH  38  39
HETATM   39  O4  UNL     1      26.948 -33.034  -9.023  1.00  0.00    -0.348 OA
ATOM     40  H4  UNL     1      27.187 -33.489  -9.822  1.00  0.00     0.219 HD
ENDBRANCH  38  39
BRANCH  38  41
HETATM   41  C30 UNL     1      27.724 -34.275  -7.127  1.00  0.00     0.248 C 
BRANCH  41  42
HETATM   42  O5  UNL     1      27.277 -35.310  -6.231  1.00  0.00    -0.393 OA
ATOM     43  H5  UNL     1      27.354 -34.976  -5.345  1.00  0.00     0.210 HD
ENDBRANCH  41  42
ENDBRANCH  38  41
ENDBRANCH  25  38
TORSDOF 7
ENDMDL
MODEL 3
REMARK VINA RESULT: -7.413866990      3.341      4.182
REMARK  7 active torsions:
REMARK  status: ('A' for Active; 'I' for Inactive)
REMARK    1  A    between atoms: C7_8  and  C8_9 
REMARK    2  A    between atoms: C8_9  and  C9_10 
REMARK    3  A    between atoms: C9_10  and  C10_11 
REMARK    4  A    between atoms: N3_37  and  C29_38 
REMARK    5  A    between atoms: C29_38  and  O4_39 
REMARK    6  A    between atoms: C29_38  and  C30_41 
REMARK    7  A    between atoms: C30_41  and  O5_42 
ROOT
HETATM    1  N1  UNL     1      21.612 -37.387  -2.620  1.00  0.00    -0.191 NA
HETATM    2  C1  UNL     1      22.539 -36.808  -2.998  1.00  0.00     0.100 C 
HETATM    3  C2  UNL     1      23.729 -36.095  -3.462  1.00  0.00     0.051 A 
HETATM    4  C3  UNL     1      24.791 -36.796  -3.972  1.00  0.00     0.025 A 
HETATM    5  C4  UNL     1      25.894 -36.067  -4.388  1.00  0.00     0.032 A 
HETATM    6  C5  UNL     1      25.983 -34.677  -4.317  1.00  0.00     0.044 A 
HETATM    7  C6  UNL     1      24.918 -33.976  -3.807  1.00  0.00    -0.012 A 
HETATM    8  C7  UNL     1      23.793 -34.716  -3.381  1.00  0.00    -0.028 A 
HETATM    9  C20 UNL     1      24.759 -32.519  -3.637  1.00  0.00     0.150 C 
HETATM   10  S1  UNL     1      25.427 -31.907  -2.148  1.00  0.00     0.021 S 
HETATM   11  O1  UNL     1      25.741 -32.954  -0.966  1.00  0.00    -0.258 OA
HETATM   12  C21 UNL     1      25.285 -30.255  -1.843  1.00  0.00     0.135 C 
HETATM   13  C22 UNL     1      26.447 -29.473  -2.442  1.00  0.00     0.180 C 
HETATM   14  O2  UNL     1      26.124 -28.975  -3.698  1.00  0.00    -0.388 OA
HETATM   15  C23 UNL     1      26.985 -27.906  -4.008  1.00  0.00     0.193 C 
HETATM   16  C24 UNL     1      27.504 -27.984  -5.410  1.00  0.00     0.193 C 
HETATM   17  O3  UNL     1      28.892 -28.122  -5.474  1.00  0.00    -0.387 OA
HETATM   18  C25 UNL     1      29.272 -29.035  -6.452  1.00  0.00     0.195 C 
HETATM   19  C26 UNL     1      28.943 -30.416  -5.954  1.00  0.00     0.258 C 
HETATM   20  N2  UNL     1      28.325 -31.235  -6.958  1.00  0.00    -0.072 N 
ATOM     21  H21 UNL     1      28.737 -31.117  -7.883  1.00  0.00     0.277 HD
ATOM     22  H22 UNL     1      27.381 -30.932  -7.198  1.00  0.00     0.277 HD
HETATM   23  C27 UNL     1      28.382 -32.636  -6.466  1.00  0.00     0.252 C 
HETATM   24  C28 UNL     1      27.289 -32.905  -5.510  1.00  0.00     0.158 C 
HETATM   25  N3  UNL     1      27.253 -34.135  -4.784  1.00  0.00    -0.327 N 
ENDROOT
BRANCH   8  26
HETATM   26  C8  UNL     1      22.587 -34.062  -2.810  1.00  0.00     0.041 C 
BRANCH  26  27
HETATM   27  C9  UNL     1      21.660 -33.525  -3.871  1.00  0.00     0.014 C 
BRANCH  27  28
HETATM   28  C10 UNL     1      20.249 -33.457  -3.373  1.00  0.00    -0.039 C 
HETATM   29  C11 UNL     1      20.333 -33.046  -1.904  1.00  0.00     0.014 C 
HETATM   30  C12 UNL     1      18.978 -32.822  -1.306  1.00  0.00    -0.013 C 
HETATM   31  C13 UNL     1      18.241 -31.765  -2.111  1.00  0.00     0.009 C 
HETATM   32  C17 UNL     1      18.227 -34.132  -1.365  1.00  0.00     0.009 C 
HETATM   33  C14 UNL     1      18.111 -32.224  -3.538  1.00  0.00    -0.013 C 
HETATM   34  C15 UNL     1      17.327 -33.519  -3.539  1.00  0.00     0.009 C 
HETATM   35  C19 UNL     1      19.483 -32.433  -4.161  1.00  0.00     0.014 C 
HETATM   36  C16 UNL     1      18.145 -34.547  -2.819  1.00  0.00    -0.013 C 
HETATM   37  C18 UNL     1      19.507 -34.760  -3.435  1.00  0.00     0.014 C 
ENDBRANCH  27  28
ENDBRANCH  26  27
ENDBRANCH   8  26
BRANCH  25  38
HETATM   38  C29 UNL     1      28.474 -34.866  -4.473  1.00  0.00     0.142 C 
BRANCH  38  39
HETATM   39  O4  UNL     1      28.756 -34.901  -3.094  1.00  0.00    -0.348 OA
ATOM     40  H4  UNL     1      28.015 -35.185  -2.573  1.00  0.00     0.219 HD
ENDBRANCH  38  39
BRANCH  38  41
HETATM   41  C30 UNL     1      28.746 -36.138  -5.146  1.00  0.00     0.248 C 
BRANCH  41  42
HETATM   42  O5  UNL     1      29.248 -37.055  -4.156  1.00  0.00    -0.393 OA
ATOM     43  H5  UNL     1      30.190 -37.113  -4.269  1.00  0.00     0.210 HD
ENDBRANCH  41  42
ENDBRANCH  38  41
ENDBRANCH  25  38
TORSDOF 7
ENDMDL
MODEL 4
REMARK VINA RESULT: -7.304215467      2.800      6.136
REMARK  7 active torsions:
REMARK  status: ('A' for Active; 'I' for Inactive)
REMARK    1  A    between atoms: C7_8  and  C8_9 
REMARK    2  A    between atoms: C8_9  and  C9_10 
REMARK    3  A    between atoms: C9_10  and  C10_11 
REMARK    4  A    between atoms: N3_37  and  C29_38 
REMARK    5  A    between atoms: C29_38  and  O4_39 
REMARK    6  A    between atoms: C29_38  and  C30_41 
REMARK    7  A    between atoms: C30_41  and  O5_42 
ROOT
HETATM    1  N1  UNL     1      18.363 -32.457  -2.757  1.00  0.00    -0.191 NA
HETATM    2  C1  UNL     1      19.387 -32.995  -2.736  1.00  0.00     0.100 C 
HETATM    3  C2  UNL     1      20.688 -33.661  -2.684  1.00  0.00     0.051 A 
HETATM    4  C3  UNL     1      21.124 -34.220  -1.511  1.00  0.00     0.025 A 
HETATM    5  C4  UNL     1      22.368 -34.830  -1.521  1.00  0.00     0.032 A 
HETATM    6  C5  UNL     1      23.193 -34.905  -2.644  1.00  0.00     0.044 A 
HETATM    7  C6  UNL     1      22.754 -34.345  -3.818  1.00  0.00    -0.012 A 
HETATM    8  C7  UNL     1      21.487 -33.722  -3.812  1.00  0.00    -0.028 A 
HETATM    9  C20 UNL     1      23.422 -34.300  -5.133  1.00  0.00     0.150 C 
HETATM   10  S1  UNL     1      24.527 -32.965  -5.316  1.00  0.00     0.021 S 
HETATM   11  O1  UNL     1      24.410 -31.732  -4.287  1.00  0.00    -0.258 OA
HETATM   12  C21 UNL     1      25.333 -32.808  -6.789  1.00  0.00     0.135 C 
HETATM   13  C22 UNL     1      26.628 -33.610  -6.807  1.00  0.00     0.180 C 
HETATM   14  O2  UNL     1      26.435 -34.863  -7.377  1.00  0.00    -0.388 OA
HETATM   15  C23 UNL     1      27.674 -35.372  -7.805  1.00  0.00     0.193 C 
HETATM   16  C24 UNL     1      27.855 -36.812  -7.433  1.00  0.00     0.193 C 
HETATM   17  O3  UNL     1      28.928 -37.023  -6.566  1.00  0.00    -0.387 OA
HETATM   18  C25 UNL     1      28.613 -37.946  -5.574  1.00  0.00     0.195 C 
HETATM   19  C26 UNL     1      27.679 -37.281  -4.599  1.00  0.00     0.258 C 
HETATM   20  N2  UNL     1      26.578 -38.121  -4.225  1.00  0.00    -0.072 N 
ATOM     21  H21 UNL     1      26.845 -39.096  -4.084  1.00  0.00     0.277 HD
ATOM     22  H22 UNL     1      25.916 -38.279  -4.986  1.00  0.00     0.277 HD
HETATM   23  C27 UNL     1      25.955 -37.506  -3.025  1.00  0.00     0.252 C 
HETATM   24  C28 UNL     1      25.044 -36.409  -3.407  1.00  0.00     0.158 C 
HETATM   25  N3  UNL     1      24.469 -35.567  -2.405  1.00  0.00    -0.327 N 
ENDROOT
BRANCH   8  26
HETATM   26  C8  UNL     1      20.916 -33.081  -5.024  1.00  0.00     0.041 C 
BRANCH  26  27
HETATM   27  C9  UNL     1      19.743 -33.844  -5.587  1.00  0.00     0.014 C 
BRANCH  27  28
HETATM   28  C10 UNL     1      20.180 -34.797  -6.657  1.00  0.00    -0.039 C 
HETATM   29  C11 UNL     1      21.224 -34.056  -7.491  1.00  0.00     0.014 C 
HETATM   30  C12 UNL     1      21.839 -34.938  -8.533  1.00  0.00    -0.013 C 
HETATM   31  C13 UNL     1      22.459 -36.152  -7.864  1.00  0.00     0.009 C 
HETATM   32  C17 UNL     1      20.738 -35.374  -9.474  1.00  0.00     0.009 C 
HETATM   33  C14 UNL     1      21.398 -36.902  -7.106  1.00  0.00    -0.013 C 
HETATM   34  C15 UNL     1      20.342 -37.339  -8.098  1.00  0.00     0.009 C 
HETATM   35  C19 UNL     1      20.783 -36.021  -6.030  1.00  0.00     0.014 C 
HETATM   36  C16 UNL     1      19.698 -36.105  -8.652  1.00  0.00    -0.013 C 
HETATM   37  C18 UNL     1      19.084 -35.228  -7.586  1.00  0.00     0.014 C 
ENDBRANCH  27  28
ENDBRANCH  26  27
ENDBRANCH   8  26
BRANCH  25  38
HETATM   38  C29 UNL     1      25.145 -35.331  -1.136  1.00  0.00     0.142 C 
BRANCH  38  39
HETATM   39  O4  UNL     1      25.581 -34.001  -0.986  1.00  0.00    -0.348 OA
ATOM     40  H4  UNL     1      25.604 -33.720  -0.080  1.00  0.00     0.219 HD
ENDBRANCH  38  39
BRANCH  38  41
HETATM   41  C30 UNL     1      24.587 -35.892   0.096  1.00  0.00     0.248 C 
BRANCH  41  42
HETATM   42  O5  UNL     1      25.417 -37.003   0.482  1.00  0.00    -0.393 OA
ATOM     43  H5  UNL     1      25.805 -37.361  -0.308  1.00  0.00     0.210 HD
ENDBRANCH  41  42
ENDBRANCH  38  41
ENDBRANCH  25  38
TORSDOF 7
ENDMDL
MODEL 5
REMARK VINA RESULT: -7.209191825      3.169      8.448
REMARK  7 active torsions:
REMARK  status: ('A' for Active; 'I' for Inactive)
REMARK    1  A    between atoms: C7_8  and  C8_9 
REMARK    2  A    between atoms: C8_9  and  C9_10 
REMARK    3  A    between atoms: C9_10  and  C10_11 
REMARK    4  A    between atoms: N3_37  and  C29_38 
REMARK    5  A    between atoms: C29_38  and  O4_39 
REMARK    6  A    between atoms: C29_38  and  C30_41 
REMARK    7  A    between atoms: C30_41  and  O5_42 
ROOT
HETATM    1  N1  UNL     1      26.436 -29.188  -1.764  1.00  0.00    -0.191 NA
HETATM    2  C1  UNL     1      26.030 -30.210  -2.123  1.00  0.00     0.100 C 
HETATM    3  C2  UNL     1      25.538 -31.515  -2.562  1.00  0.00     0.051 A 
HETATM    4  C3  UNL     1      25.372 -32.525  -1.651  1.00  0.00     0.025 A 
HETATM    5  C4  UNL     1      24.910 -33.742  -2.127  1.00  0.00     0.032 A 
HETATM    6  C5  UNL     1      24.609 -33.994  -3.465  1.00  0.00     0.044 A 
HETATM    7  C6  UNL     1      24.775 -32.981  -4.376  1.00  0.00    -0.012 A 
HETATM    8  C7  UNL     1      25.246 -31.739  -3.895  1.00  0.00    -0.028 A 
HETATM    9  C20 UNL     1      24.520 -32.986  -5.830  1.00  0.00     0.150 C 
HETATM   10  S1  UNL     1      25.855 -33.585  -6.777  1.00  0.00     0.021 S 
HETATM   11  O1  UNL     1      27.307 -33.660  -6.085  1.00  0.00    -0.258 OA
HETATM   12  C21 UNL     1      25.678 -33.619  -8.453  1.00  0.00     0.135 C 
HETATM   13  C22 UNL     1      25.034 -34.918  -8.922  1.00  0.00     0.180 C 
HETATM   14  O2  UNL     1      23.660 -34.775  -9.069  1.00  0.00    -0.388 OA
HETATM   15  C23 UNL     1      23.178 -35.784  -9.922  1.00  0.00     0.193 C 
HETATM   16  C24 UNL     1      21.924 -36.415  -9.400  1.00  0.00     0.193 C 
HETATM   17  O3  UNL     1      22.070 -37.775  -9.124  1.00  0.00    -0.387 OA
HETATM   18  C25 UNL     1      21.431 -38.129  -7.939  1.00  0.00     0.195 C 
HETATM   19  C26 UNL     1      22.244 -37.589  -6.793  1.00  0.00     0.258 C 
HETATM   20  N2  UNL     1      21.435 -36.969  -5.783  1.00  0.00    -0.072 N 
ATOM     21  H21 UNL     1      20.569 -37.476  -5.594  1.00  0.00     0.277 HD
ATOM     22  H22 UNL     1      21.007 -36.096  -6.090  1.00  0.00     0.277 HD
HETATM   23  C27 UNL     1      22.294 -36.810  -4.581  1.00  0.00     0.252 C 
HETATM   24  C28 UNL     1      23.145 -35.610  -4.697  1.00  0.00     0.158 C 
HETATM   25  N3  UNL     1      24.170 -35.358  -3.733  1.00  0.00    -0.327 N 
ENDROOT
BRANCH   8  26
HETATM   26  C8  UNL     1      25.466 -30.576  -4.793  1.00  0.00     0.041 C 
BRANCH  26  27
HETATM   27  C9  UNL     1      26.914 -30.402  -5.174  1.00  0.00     0.014 C 
BRANCH  27  28
HETATM   28  C10 UNL     1      27.096 -29.233  -6.093  1.00  0.00    -0.039 C 
HETATM   29  C11 UNL     1      26.170 -29.475  -7.283  1.00  0.00     0.014 C 
HETATM   30  C12 UNL     1      26.161 -28.317  -8.232  1.00  0.00    -0.013 C 
HETATM   31  C13 UNL     1      25.750 -27.058  -7.487  1.00  0.00     0.009 C 
HETATM   32  C17 UNL     1      27.562 -28.159  -8.777  1.00  0.00     0.009 C 
HETATM   33  C14 UNL     1      26.717 -26.804  -6.363  1.00  0.00    -0.013 C 
HETATM   34  C15 UNL     1      28.094 -26.624  -6.968  1.00  0.00     0.009 C 
HETATM   35  C19 UNL     1      26.717 -27.966  -5.382  1.00  0.00     0.014 C 
HETATM   36  C16 UNL     1      28.487 -27.923  -7.601  1.00  0.00    -0.013 C 
HETATM   37  C18 UNL     1      28.489 -29.080  -6.630  1.00  0.00     0.014 C 
ENDBRANCH  27  28
ENDBRANCH  26  27
ENDBRANCH   8  26
BRANCH  25  38
HETATM   38  C29 UNL     1      24.815 -36.447  -3.011  1.00  0.00     0.142 C 
BRANCH  38  39
HETATM   39  O4  UNL     1      23.964 -37.064  -2.076  1.00  0.00    -0.348 OA
ATOM     40  H4  UNL     1      24.141 -37.991  -1.971  1.00  0.00     0.219 HD
ENDBRANCH  38  39
BRANCH  38  41
HETATM   41  C30 UNL     1      25.653 -37.402  -3.741  1.00  0.00     0.248 C 
BRANCH  41  42
HETATM   42  O5  UNL     1      26.170 -38.346  -2.784  1.00  0.00    -0.393 OA
ATOM     43  H5  UNL     1      26.421 -39.129  -3.261  1.00  0.00     0.210 HD
ENDBRANCH  41  42
ENDBRANCH  38  41
ENDBRANCH  25  38
TORSDOF 7
ENDMDL
