MODEL 1
REMARK VINA RESULT: -9.627024002      0.000      0.000
REMARK  5 active torsions:
REMARK  status: ('A' for Active; 'I' for Inactive)
REMARK    1  A    between atoms: C1_2  and  C2_3 
REMARK       I    between atoms: C1_2  and  N5_36 
REMARK    2  A    between atoms: C2_3  and  N1_4 
REMARK    3  A    between atoms: C10_15  and  O4_16 
REMARK    4  A    between atoms: C10_15  and  C11_18 
REMARK    5  A    between atoms: C15_24  and  C16_25 
ROOT
HETATM    1  N1  UNL     1      21.119 -34.514  -3.442  1.00  0.00    -0.328 N 
HETATM    2  C3  UNL     1      22.287 -34.856  -2.705  1.00  0.00     0.053 A 
HETATM    3  C4  UNL     1      22.181 -35.667  -1.610  1.00  0.00     0.031 A 
HETATM    4  C5  UNL     1      23.280 -36.041  -0.832  1.00  0.00     0.002 A 
HETATM    5  C6  UNL     1      24.521 -35.593  -1.153  1.00  0.00     0.002 A 
HETATM    6  C7  UNL     1      24.654 -34.771  -2.258  1.00  0.00     0.024 A 
HETATM    7  C8  UNL     1      23.561 -34.414  -3.011  1.00  0.00     0.066 A 
HETATM    8  S1  UNL     1      23.855 -33.361  -4.381  1.00  0.00     0.129 S 
HETATM    9  O2  UNL     1      24.854 -34.201  -5.436  1.00  0.00    -0.244 OA
HETATM   10  C9  UNL     1      22.271 -33.083  -5.079  1.00  0.00     0.280 C 
HETATM   11  O3  UNL     1      22.048 -32.071  -5.721  1.00  0.00    -0.277 OA
HETATM   12  C10 UNL     1      21.249 -34.153  -4.833  1.00  0.00     0.239 C 
ENDROOT
BRANCH  12  13
HETATM   13  O4  UNL     1      20.033 -33.637  -5.346  1.00  0.00    -0.360 OA
ATOM     14  H4  UNL     1      20.077 -32.694  -5.454  1.00  0.00     0.213 HD
ENDBRANCH  12  13
BRANCH  12  15
HETATM   15  C11 UNL     1      21.571 -35.295  -5.719  1.00  0.00     0.008 A 
HETATM   16  C12 UNL     1      22.125 -36.463  -5.285  1.00  0.00     0.015 A 
HETATM   17  C13 UNL     1      22.416 -37.511  -6.174  1.00  0.00     0.032 A 
HETATM   18  C14 UNL     1      22.137 -37.359  -7.513  1.00  0.00     0.060 A 
HETATM   19  N2  UNL     1      22.305 -38.182  -8.591  1.00  0.00    -0.340 N 
HETATM   20  C21 UNL     1      21.581 -36.183  -7.938  1.00  0.00     0.061 A 
HETATM   21  C15 UNL     1      21.859 -37.530  -9.673  1.00  0.00     0.116 A 
ATOM     22  H2  UNL     1      22.698 -39.123  -8.574  1.00  0.00     0.167 HD
HETATM   23  N4  UNL     1      21.420 -36.312  -9.271  1.00  0.00    -0.340 N 
ATOM     24  H4  UNL     1      21.025 -35.599  -9.885  1.00  0.00     0.167 HD
HETATM   25  C22 UNL     1      21.296 -35.155  -7.061  1.00  0.00     0.044 A 
BRANCH  21  26
HETATM   26  C16 UNL     1      21.816 -37.969 -11.060  1.00  0.00     0.011 A 
HETATM   27  C17 UNL     1      20.931 -38.918 -11.520  1.00  0.00     0.032 A 
HETATM   28  C18 UNL     1      20.924 -39.305 -12.860  1.00  0.00     0.088 A 
HETATM   29  N3  UNL     1      21.805 -38.729 -13.698  1.00  0.00    -0.375 N 
HETATM   30  C19 UNL     1      22.686 -37.800 -13.294  1.00  0.00     0.088 A 
ATOM     31  H3  UNL     1      21.803 -39.010 -14.679  1.00  0.00     0.164 HD
HETATM   32  C20 UNL     1      22.697 -37.409 -11.955  1.00  0.00     0.032 A 
ENDBRANCH  21  26
ENDBRANCH  12  15
BRANCH   1  33
HETATM   33  C2  UNL     1      19.816 -34.499  -2.832  1.00  0.00     0.229 C 
BRANCH  33  34
HETATM   34  C1  UNL     1      19.562 -33.185  -2.221  1.00  0.00     0.239 C 
HETATM   35  O1  UNL     1      20.456 -32.588  -1.523  1.00  0.00    -0.271 OA
HETATM   36  N5  UNL     1      18.335 -32.457  -2.335  1.00  0.00    -0.329 N 
HETATM   37  C23 UNL     1      18.253 -31.178  -1.664  1.00  0.00     0.133 C 
HETATM   38  C28 UNL     1      17.337 -33.129  -3.126  1.00  0.00     0.305 C 
HETATM   39  C24 UNL     1      17.807 -30.050  -2.550  1.00  0.00     0.064 C 
HETATM   40  C25 UNL     1      16.345 -30.153  -2.692  1.00  0.00     0.013 A 
HETATM   41  C26 UNL     1      15.485 -29.101  -2.676  1.00  0.00     0.118 A 
HETATM   42  C27 UNL     1      15.598 -31.309  -2.862  1.00  0.00     0.166 A 
HETATM   43  N6  UNL     1      14.248 -29.639  -2.835  1.00  0.00    -0.309 N 
HETATM   44  N7  UNL     1      14.329 -30.945  -2.944  1.00  0.00    -0.280 N 
ATOM     45  H6  UNL     1      13.379 -29.104  -2.866  1.00  0.00     0.186 HD
ATOM     46  H7  UNL     1      13.539 -31.578  -3.072  1.00  0.00     0.189 HD
HETATM   47  O5  UNL     1      16.028 -32.612  -2.940  1.00  0.00    -0.314 OA
ENDBRANCH  33  34
ENDBRANCH   1  33
TORSDOF 5
ENDMDL
MODEL 2
REMARK VINA RESULT: -9.487230807      3.491      6.852
REMARK  5 active torsions:
REMARK  status: ('A' for Active; 'I' for Inactive)
REMARK    1  A    between atoms: C1_2  and  C2_3 
REMARK       I    between atoms: C1_2  and  N5_36 
REMARK    2  A    between atoms: C2_3  and  N1_4 
REMARK    3  A    between atoms: C10_15  and  O4_16 
REMARK    4  A    between atoms: C10_15  and  C11_18 
REMARK    5  A    between atoms: C15_24  and  C16_25 
ROOT
HETATM    1  N1  UNL     1      20.960 -34.818  -3.547  1.00  0.00    -0.328 N 
HETATM    2  C3  UNL     1      21.027 -34.352  -4.890  1.00  0.00     0.053 A 
HETATM    3  C4  UNL     1      20.193 -33.350  -5.298  1.00  0.00     0.031 A 
HETATM    4  C5  UNL     1      20.195 -32.845  -6.601  1.00  0.00     0.002 A 
HETATM    5  C6  UNL     1      21.050 -33.354  -7.525  1.00  0.00     0.002 A 
HETATM    6  C7  UNL     1      21.904 -34.371  -7.135  1.00  0.00     0.024 A 
HETATM    7  C8  UNL     1      21.888 -34.854  -5.848  1.00  0.00     0.066 A 
HETATM    8  S1  UNL     1      23.011 -36.148  -5.476  1.00  0.00     0.129 S 
HETATM    9  O2  UNL     1      24.556 -35.529  -5.689  1.00  0.00    -0.244 OA
HETATM   10  C9  UNL     1      22.700 -36.541  -3.796  1.00  0.00     0.280 C 
HETATM   11  O3  UNL     1      22.949 -37.653  -3.366  1.00  0.00    -0.277 OA
HETATM   12  C10 UNL     1      22.126 -35.435  -2.961  1.00  0.00     0.239 C 
ENDROOT
BRANCH  12  13
HETATM   13  O4  UNL     1      21.819 -36.029  -1.711  1.00  0.00    -0.360 OA
ATOM     14  H4  UNL     1      22.065 -35.461  -0.990  1.00  0.00     0.213 HD
ENDBRANCH  12  13
BRANCH  12  15
HETATM   15  C11 UNL     1      23.219 -34.483  -2.661  1.00  0.00     0.008 A 
HETATM   16  C12 UNL     1      24.079 -34.618  -1.612  1.00  0.00     0.015 A 
HETATM   17  C13 UNL     1      25.094 -33.677  -1.371  1.00  0.00     0.032 A 
HETATM   18  C14 UNL     1      25.227 -32.594  -2.210  1.00  0.00     0.060 A 
HETATM   19  N2  UNL     1      26.095 -31.540  -2.229  1.00  0.00    -0.340 N 
HETATM   20  C21 UNL     1      24.357 -32.469  -3.260  1.00  0.00     0.061 A 
HETATM   21  C15 UNL     1      25.774 -30.768  -3.275  1.00  0.00     0.116 A 
ATOM     22  H2  UNL     1      26.852 -31.371  -1.566  1.00  0.00     0.167 HD
HETATM   23  N4  UNL     1      24.714 -31.337  -3.901  1.00  0.00    -0.340 N 
ATOM     24  H4  UNL     1      24.255 -30.964  -4.732  1.00  0.00     0.167 HD
HETATM   25  C22 UNL     1      23.361 -33.396  -3.493  1.00  0.00     0.044 A 
BRANCH  21  26
HETATM   26  C16 UNL     1      26.393 -29.532  -3.732  1.00  0.00     0.011 A 
HETATM   27  C17 UNL     1      26.089 -28.299  -3.201  1.00  0.00     0.032 A 
HETATM   28  C18 UNL     1      26.712 -27.141  -3.668  1.00  0.00     0.088 A 
HETATM   29  N3  UNL     1      27.620 -27.255  -4.654  1.00  0.00    -0.375 N 
HETATM   30  C19 UNL     1      27.948 -28.437  -5.202  1.00  0.00     0.088 A 
ATOM     31  H3  UNL     1      28.076 -26.411  -4.999  1.00  0.00     0.164 HD
HETATM   32  C20 UNL     1      27.329 -29.598  -4.737  1.00  0.00     0.032 A 
ENDBRANCH  21  26
ENDBRANCH  12  15
BRANCH   1  33
HETATM   33  C2  UNL     1      19.757 -34.708  -2.766  1.00  0.00     0.229 C 
BRANCH  33  34
HETATM   34  C1  UNL     1      19.606 -33.332  -2.265  1.00  0.00     0.239 C 
HETATM   35  O1  UNL     1      20.583 -32.712  -1.714  1.00  0.00    -0.271 OA
HETATM   36  N5  UNL     1      18.399 -32.567  -2.335  1.00  0.00    -0.329 N 
HETATM   37  C23 UNL     1      18.425 -31.229  -1.787  1.00  0.00     0.133 C 
HETATM   38  C28 UNL     1      17.309 -33.267  -2.962  1.00  0.00     0.305 C 
HETATM   39  C24 UNL     1      17.934 -30.170  -2.733  1.00  0.00     0.064 C 
HETATM   40  C25 UNL     1      16.462 -30.224  -2.729  1.00  0.00     0.013 A 
HETATM   41  C26 UNL     1      15.644 -29.139  -2.736  1.00  0.00     0.118 A 
HETATM   42  C27 UNL     1      15.664 -31.358  -2.717  1.00  0.00     0.166 A 
HETATM   43  N6  UNL     1      14.380 -29.637  -2.728  1.00  0.00    -0.309 N 
HETATM   44  N7  UNL     1      14.407 -30.949  -2.717  1.00  0.00    -0.280 N 
ATOM     45  H6  UNL     1      13.531 -29.071  -2.730  1.00  0.00     0.186 HD
ATOM     46  H7  UNL     1      13.588 -31.557  -2.709  1.00  0.00     0.189 HD
HETATM   47  O5  UNL     1      16.042 -32.679  -2.707  1.00  0.00    -0.314 OA
ENDBRANCH  33  34
ENDBRANCH   1  33
TORSDOF 5
ENDMDL
MODEL 3
REMARK VINA RESULT: -9.450531918      4.027      5.144
REMARK  5 active torsions:
REMARK  status: ('A' for Active; 'I' for Inactive)
REMARK    1  A    between atoms: C1_2  and  C2_3 
REMARK       I    between atoms: C1_2  and  N5_36 
REMARK    2  A    between atoms: C2_3  and  N1_4 
REMARK    3  A    between atoms: C10_15  and  O4_16 
REMARK    4  A    between atoms: C10_15  and  C11_18 
REMARK    5  A    between atoms: C15_24  and  C16_25 
ROOT
HETATM    1  N1  UNL     1      23.189 -35.079  -3.430  1.00  0.00    -0.328 N 
HETATM    2  C3  UNL     1      23.992 -34.940  -2.264  1.00  0.00     0.053 A 
HETATM    3  C4  UNL     1      23.983 -35.925  -1.317  1.00  0.00     0.031 A 
HETATM    4  C5  UNL     1      24.738 -35.857  -0.144  1.00  0.00     0.002 A 
HETATM    5  C6  UNL     1      25.525 -34.776   0.095  1.00  0.00     0.002 A 
HETATM    6  C7  UNL     1      25.551 -33.765  -0.850  1.00  0.00     0.024 A 
HETATM    7  C8  UNL     1      24.801 -33.850  -1.999  1.00  0.00     0.066 A 
HETATM    8  S1  UNL     1      24.911 -32.503  -3.115  1.00  0.00     0.129 S 
HETATM    9  O2  UNL     1      26.504 -32.434  -3.640  1.00  0.00    -0.244 OA
HETATM   10  C9  UNL     1      23.819 -32.917  -4.424  1.00  0.00     0.280 C 
HETATM   11  O3  UNL     1      23.309 -32.042  -5.102  1.00  0.00    -0.277 OA
HETATM   12  C10 UNL     1      23.575 -34.381  -4.634  1.00  0.00     0.239 C 
ENDROOT
BRANCH  12  13
HETATM   13  O4  UNL     1      22.558 -34.456  -5.619  1.00  0.00    -0.360 OA
ATOM     14  H4  UNL     1      22.678 -33.792  -6.287  1.00  0.00     0.213 HD
ENDBRANCH  12  13
BRANCH  12  15
HETATM   15  C11 UNL     1      24.772 -34.948  -5.294  1.00  0.00     0.008 A 
HETATM   16  C12 UNL     1      25.474 -34.311  -6.275  1.00  0.00     0.015 A 
HETATM   17  C13 UNL     1      26.601 -34.901  -6.872  1.00  0.00     0.032 A 
HETATM   18  C14 UNL     1      27.008 -36.150  -6.460  1.00  0.00     0.060 A 
HETATM   19  N2  UNL     1      28.039 -36.959  -6.845  1.00  0.00    -0.340 N 
HETATM   20  C21 UNL     1      26.296 -36.780  -5.476  1.00  0.00     0.061 A 
HETATM   21  C15 UNL     1      27.974 -38.078  -6.112  1.00  0.00     0.116 A 
ATOM     22  H2  UNL     1      28.734 -36.749  -7.562  1.00  0.00     0.167 HD
HETATM   23  N4  UNL     1      26.910 -37.966  -5.279  1.00  0.00    -0.340 N 
ATOM     24  H4  UNL     1      26.617 -38.672  -4.604  1.00  0.00     0.167 HD
HETATM   25  C22 UNL     1      25.190 -36.197  -4.891  1.00  0.00     0.044 A 
BRANCH  21  26
HETATM   26  C16 UNL     1      28.841 -39.247  -6.136  1.00  0.00     0.011 A 
HETATM   27  C17 UNL     1      29.604 -39.593  -7.227  1.00  0.00     0.032 A 
HETATM   28  C18 UNL     1      30.424 -40.721  -7.202  1.00  0.00     0.088 A 
HETATM   29  N3  UNL     1      30.452 -41.469  -6.085  1.00  0.00    -0.375 N 
HETATM   30  C19 UNL     1      29.724 -41.170  -4.997  1.00  0.00     0.088 A 
ATOM     31  H3  UNL     1      31.050 -42.296  -6.063  1.00  0.00     0.164 HD
HETATM   32  C20 UNL     1      28.903 -40.042  -5.016  1.00  0.00     0.032 A 
ENDBRANCH  21  26
ENDBRANCH  12  15
BRANCH   1  33
HETATM   33  C2  UNL     1      21.994 -35.878  -3.435  1.00  0.00     0.229 C 
BRANCH  33  34
HETATM   34  C1  UNL     1      20.985 -35.280  -2.546  1.00  0.00     0.239 C 
HETATM   35  O1  UNL     1      20.957 -35.548  -1.293  1.00  0.00    -0.271 OA
HETATM   36  N5  UNL     1      19.963 -34.371  -2.967  1.00  0.00    -0.329 N 
HETATM   37  C23 UNL     1      19.048 -33.883  -1.959  1.00  0.00     0.133 C 
HETATM   38  C28 UNL     1      20.005 -34.069  -4.374  1.00  0.00     0.305 C 
HETATM   39  C24 UNL     1      18.925 -32.386  -1.917  1.00  0.00     0.064 C 
HETATM   40  C25 UNL     1      18.039 -31.986  -3.023  1.00  0.00     0.013 A 
HETATM   41  C26 UNL     1      17.080 -31.027  -2.943  1.00  0.00     0.118 A 
HETATM   42  C27 UNL     1      18.020 -32.499  -4.311  1.00  0.00     0.166 A 
HETATM   43  N6  UNL     1      16.506 -30.982  -4.174  1.00  0.00    -0.309 N 
HETATM   44  N7  UNL     1      17.072 -31.857  -4.973  1.00  0.00    -0.280 N 
ATOM     45  H6  UNL     1      15.745 -30.357  -4.440  1.00  0.00     0.186 HD
ATOM     46  H7  UNL     1      16.820 -32.016  -5.948  1.00  0.00     0.189 HD
HETATM   47  O5  UNL     1      18.806 -33.484  -4.860  1.00  0.00    -0.314 OA
ENDBRANCH  33  34
ENDBRANCH   1  33
TORSDOF 5
ENDMDL
MODEL 4
REMARK VINA RESULT: -9.358939617      3.990      7.198
REMARK  5 active torsions:
REMARK  status: ('A' for Active; 'I' for Inactive)
REMARK    1  A    between atoms: C1_2  and  C2_3 
REMARK       I    between atoms: C1_2  and  N5_36 
REMARK    2  A    between atoms: C2_3  and  N1_4 
REMARK    3  A    between atoms: C10_15  and  O4_16 
REMARK    4  A    between atoms: C10_15  and  C11_18 
REMARK    5  A    between atoms: C15_24  and  C16_25 
ROOT
HETATM    1  N1  UNL     1      22.239 -35.388  -3.917  1.00  0.00    -0.328 N 
HETATM    2  C3  UNL     1      22.791 -36.196  -4.950  1.00  0.00     0.053 A 
HETATM    3  C4  UNL     1      21.986 -36.643  -5.959  1.00  0.00     0.031 A 
HETATM    4  C5  UNL     1      22.452 -37.446  -7.004  1.00  0.00     0.002 A 
HETATM    5  C6  UNL     1      23.759 -37.816  -7.043  1.00  0.00     0.002 A 
HETATM    6  C7  UNL     1      24.593 -37.375  -6.032  1.00  0.00     0.024 A 
HETATM    7  C8  UNL     1      24.116 -36.585  -5.013  1.00  0.00     0.066 A 
HETATM    8  S1  UNL     1      25.268 -36.097  -3.786  1.00  0.00     0.129 S 
HETATM    9  O2  UNL     1      26.431 -35.161  -4.553  1.00  0.00    -0.244 OA
HETATM   10  C9  UNL     1      24.332 -35.152  -2.643  1.00  0.00     0.280 C 
HETATM   11  O3  UNL     1      24.686 -35.061  -1.481  1.00  0.00    -0.277 OA
HETATM   12  C10 UNL     1      23.105 -34.488  -3.194  1.00  0.00     0.239 C 
ENDROOT
BRANCH  12  13
HETATM   13  O4  UNL     1      22.443 -33.930  -2.071  1.00  0.00    -0.360 OA
ATOM     14  H4  UNL     1      22.513 -34.498  -1.313  1.00  0.00     0.213 HD
ENDBRANCH  12  13
BRANCH  12  15
HETATM   15  C11 UNL     1      23.544 -33.316  -3.986  1.00  0.00     0.008 A 
HETATM   16  C12 UNL     1      23.128 -33.059  -5.259  1.00  0.00     0.015 A 
HETATM   17  C13 UNL     1      23.585 -31.934  -5.965  1.00  0.00     0.032 A 
HETATM   18  C14 UNL     1      24.472 -31.070  -5.363  1.00  0.00     0.060 A 
HETATM   19  N2  UNL     1      25.078 -29.922  -5.788  1.00  0.00    -0.340 N 
HETATM   20  C21 UNL     1      24.882 -31.339  -4.085  1.00  0.00     0.061 A 
HETATM   21  C15 UNL     1      25.854 -29.479  -4.791  1.00  0.00     0.116 A 
ATOM     22  H2  UNL     1      24.960 -29.482  -6.701  1.00  0.00     0.167 HD
HETATM   23  N4  UNL     1      25.733 -30.345  -3.755  1.00  0.00    -0.340 N 
ATOM     24  H4  UNL     1      26.214 -30.258  -2.860  1.00  0.00     0.167 HD
HETATM   25  C22 UNL     1      24.431 -32.445  -3.394  1.00  0.00     0.044 A 
BRANCH  21  26
HETATM   26  C16 UNL     1      26.703 -28.297  -4.741  1.00  0.00     0.011 A 
HETATM   27  C17 UNL     1      27.850 -28.165  -5.489  1.00  0.00     0.032 A 
HETATM   28  C18 UNL     1      28.631 -27.010  -5.410  1.00  0.00     0.088 A 
HETATM   29  N3  UNL     1      28.237 -26.026  -4.583  1.00  0.00    -0.375 N 
HETATM   30  C19 UNL     1      27.125 -26.111  -3.835  1.00  0.00     0.088 A 
ATOM     31  H3  UNL     1      28.805 -25.181  -4.522  1.00  0.00     0.164 HD
HETATM   32  C20 UNL     1      26.340 -27.263  -3.910  1.00  0.00     0.032 A 
ENDBRANCH  21  26
ENDBRANCH  12  15
BRANCH   1  33
HETATM   33  C2  UNL     1      20.847 -35.459  -3.562  1.00  0.00     0.229 C 
BRANCH  33  34
HETATM   34  C1  UNL     1      20.065 -34.537  -4.403  1.00  0.00     0.239 C 
HETATM   35  O1  UNL     1      19.957 -34.716  -5.667  1.00  0.00    -0.271 OA
HETATM   36  N5  UNL     1      19.368 -33.385  -3.919  1.00  0.00    -0.329 N 
HETATM   37  C23 UNL     1      18.653 -32.583  -4.886  1.00  0.00     0.133 C 
HETATM   38  C28 UNL     1      19.489 -33.194  -2.497  1.00  0.00     0.305 C 
HETATM   39  C24 UNL     1      17.217 -32.327  -4.527  1.00  0.00     0.064 C 
HETATM   40  C25 UNL     1      17.199 -31.257  -3.516  1.00  0.00     0.013 A 
HETATM   41  C26 UNL     1      16.307 -30.234  -3.482  1.00  0.00     0.118 A 
HETATM   42  C27 UNL     1      18.066 -31.101  -2.445  1.00  0.00     0.166 A 
HETATM   43  N6  UNL     1      16.650 -29.487  -2.400  1.00  0.00    -0.309 N 
HETATM   44  N7  UNL     1      17.691 -30.011  -1.796  1.00  0.00    -0.280 N 
ATOM     45  H6  UNL     1      16.167 -28.640  -2.099  1.00  0.00     0.186 HD
ATOM     46  H7  UNL     1      18.140 -29.637  -0.960  1.00  0.00     0.189 HD
HETATM   47  O5  UNL     1      19.129 -31.888  -2.072  1.00  0.00    -0.314 OA
ENDBRANCH  33  34
ENDBRANCH   1  33
TORSDOF 5
ENDMDL
MODEL 5
REMARK VINA RESULT: -9.064708452      3.658      6.678
REMARK  5 active torsions:
REMARK  status: ('A' for Active; 'I' for Inactive)
REMARK    1  A    between atoms: C1_2  and  C2_3 
REMARK       I    between atoms: C1_2  and  N5_36 
REMARK    2  A    between atoms: C2_3  and  N1_4 
REMARK    3  A    between atoms: C10_15  and  O4_16 
REMARK    4  A    between atoms: C10_15  and  C11_18 
REMARK    5  A    between atoms: C15_24  and  C16_25 
ROOT
HETATM    1  N1  UNL     1      20.467 -34.874  -4.214  1.00  0.00    -0.328 N 
HETATM    2  C3  UNL     1      19.787 -34.980  -5.459  1.00  0.00     0.053 A 
HETATM    3  C4  UNL     1      18.510 -34.506  -5.573  1.00  0.00     0.031 A 
HETATM    4  C5  UNL     1      17.775 -34.580  -6.759  1.00  0.00     0.002 A 
HETATM    5  C6  UNL     1      18.327 -35.145  -7.864  1.00  0.00     0.002 A 
HETATM    6  C7  UNL     1      19.619 -35.632  -7.774  1.00  0.00     0.024 A 
HETATM    7  C8  UNL     1      20.327 -35.550  -6.598  1.00  0.00     0.066 A 
HETATM    8  S1  UNL     1      21.950 -36.209  -6.605  1.00  0.00     0.129 S 
HETATM    9  O2  UNL     1      22.837 -35.309  -7.710  1.00  0.00    -0.244 OA
HETATM   10  C9  UNL     1      22.535 -35.976  -4.968  1.00  0.00     0.280 C 
HETATM   11  O3  UNL     1      23.398 -36.706  -4.511  1.00  0.00    -0.277 OA
HETATM   12  C10 UNL     1      21.910 -34.847  -4.204  1.00  0.00     0.239 C 
ENDROOT
BRANCH  12  13
HETATM   13  O4  UNL     1      22.417 -34.959  -2.886  1.00  0.00    -0.360 OA
ATOM     14  H4  UNL     1      21.896 -35.560  -2.367  1.00  0.00     0.213 HD
ENDBRANCH  12  13
BRANCH  12  15
HETATM   15  C11 UNL     1      22.487 -33.583  -4.718  1.00  0.00     0.008 A 
HETATM   16  C12 UNL     1      21.809 -32.703  -5.509  1.00  0.00     0.015 A 
HETATM   17  C13 UNL     1      22.410 -31.522  -5.973  1.00  0.00     0.032 A 
HETATM   18  C14 UNL     1      23.712 -31.243  -5.624  1.00  0.00     0.060 A 
HETATM   19  N2  UNL     1      24.544 -30.199  -5.916  1.00  0.00    -0.340 N 
HETATM   20  C21 UNL     1      24.383 -32.133  -4.829  1.00  0.00     0.061 A 
HETATM   21  C15 UNL     1      25.717 -30.433  -5.312  1.00  0.00     0.116 A 
ATOM     22  H2  UNL     1      24.313 -29.388  -6.490  1.00  0.00     0.167 HD
HETATM   23  N4  UNL     1      25.615 -31.612  -4.652  1.00  0.00    -0.340 N 
ATOM     24  H4  UNL     1      26.359 -32.042  -4.102  1.00  0.00     0.167 HD
HETATM   25  C22 UNL     1      23.788 -33.293  -4.374  1.00  0.00     0.044 A 
BRANCH  21  26
HETATM   26  C16 UNL     1      26.928 -29.626  -5.310  1.00  0.00     0.011 A 
HETATM   27  C17 UNL     1      26.914 -28.250  -5.306  1.00  0.00     0.032 A 
HETATM   28  C18 UNL     1      28.102 -27.519  -5.300  1.00  0.00     0.088 A 
HETATM   29  N3  UNL     1      29.268 -28.190  -5.300  1.00  0.00    -0.375 N 
HETATM   30  C19 UNL     1      29.330 -29.531  -5.304  1.00  0.00     0.088 A 
ATOM     31  H3  UNL     1      30.139 -27.658  -5.296  1.00  0.00     0.164 HD
HETATM   32  C20 UNL     1      28.145 -30.267  -5.309  1.00  0.00     0.032 A 
ENDBRANCH  21  26
ENDBRANCH  12  15
BRANCH   1  33
HETATM   33  C2  UNL     1      19.756 -34.815  -2.965  1.00  0.00     0.229 C 
BRANCH  33  34
HETATM   34  C1  UNL     1      19.642 -33.418  -2.517  1.00  0.00     0.239 C 
HETATM   35  O1  UNL     1      20.662 -32.768  -2.091  1.00  0.00    -0.271 OA
HETATM   36  N5  UNL     1      18.427 -32.662  -2.507  1.00  0.00    -0.329 N 
HETATM   37  C23 UNL     1      18.494 -31.299  -2.026  1.00  0.00     0.133 C 
HETATM   38  C28 UNL     1      17.288 -33.395  -2.992  1.00  0.00     0.305 C 
HETATM   39  C24 UNL     1      17.905 -30.289  -2.970  1.00  0.00     0.064 C 
HETATM   40  C25 UNL     1      16.442 -30.348  -2.822  1.00  0.00     0.013 A 
HETATM   41  C26 UNL     1      15.617 -29.268  -2.801  1.00  0.00     0.118 A 
HETATM   42  C27 UNL     1      15.658 -31.483  -2.680  1.00  0.00     0.166 A 
HETATM   43  N6  UNL     1      14.364 -29.770  -2.648  1.00  0.00    -0.309 N 
HETATM   44  N7  UNL     1      14.403 -31.080  -2.579  1.00  0.00    -0.280 N 
ATOM     45  H6  UNL     1      13.513 -29.208  -2.595  1.00  0.00     0.186 HD
ATOM     46  H7  UNL     1      13.593 -31.691  -2.464  1.00  0.00     0.189 HD
HETATM   47  O5  UNL     1      16.046 -32.801  -2.645  1.00  0.00    -0.314 OA
ENDBRANCH  33  34
ENDBRANCH   1  33
TORSDOF 5
ENDMDL
