MODEL 1
REMARK VINA RESULT: -8.395494725      0.000      0.000
REMARK  7 active torsions:
REMARK  status: ('A' for Active; 'I' for Inactive)
REMARK    1  A    between atoms: S1_2  and  N1_5 
REMARK    2  A    between atoms: N1_5  and  C2_7 
REMARK    3  A    between atoms: C8_18  and  C9_19 
REMARK    4  A    between atoms: C9_19  and  C10_21 
REMARK       I    between atoms: C10_21  and  N3_23 
REMARK    5  A    between atoms: N3_23  and  C11_25 
REMARK    6  A    between atoms: N5_35  and  C18_36 
REMARK    7  A    between atoms: C23_41  and  O7_42 
ROOT
HETATM    1  C2  UNL     1      19.584 -34.275  -3.681  1.00  0.00     0.043 A 
HETATM    2  C3  UNL     1      20.354 -34.224  -2.526  1.00  0.00     0.032 A 
HETATM    3  C4  UNL     1      21.728 -34.463  -2.534  1.00  0.00     0.034 A 
HETATM    4  C5  UNL     1      22.360 -34.763  -3.730  1.00  0.00     0.065 A 
HETATM    5  C6  UNL     1      21.592 -34.812  -4.861  1.00  0.00     0.109 A 
HETATM    6  C7  UNL     1      20.232 -34.572  -4.834  1.00  0.00     0.057 A 
HETATM    7  S2  UNL     1      22.359 -35.227  -6.374  1.00  0.00     0.266 S 
HETATM    8  O3  UNL     1      22.218 -34.086  -7.366  1.00  0.00    -0.200 OA
HETATM    9  O4  UNL     1      21.748 -36.462  -6.976  1.00  0.00    -0.200 OA
HETATM   10  N2  UNL     1      24.011 -35.419  -6.059  1.00  0.00    -0.262 N 
ATOM     11  H2  UNL     1      24.639 -35.629  -6.834  1.00  0.00     0.180 HD
HETATM   12  C8  UNL     1      24.508 -35.309  -4.862  1.00  0.00     0.179 A 
HETATM   13  N5  UNL     1      23.787 -35.002  -3.702  1.00  0.00    -0.290 N 
ENDROOT
BRANCH  12  14
HETATM   14  C9  UNL     1      25.952 -35.509  -4.815  1.00  0.00     0.284 C 
HETATM   15  O5  UNL     1      26.517 -36.589  -4.618  1.00  0.00    -0.278 OA
BRANCH  14  16
HETATM   16  C10 UNL     1      26.842 -34.356  -5.013  1.00  0.00     0.301 C 
HETATM   17  O6  UNL     1      27.787 -34.109  -4.232  1.00  0.00    -0.264 OA
HETATM   18  N3  UNL     1      26.680 -33.456  -6.103  1.00  0.00    -0.300 N 
ATOM     19  H3  UNL     1      26.414 -33.792  -7.029  1.00  0.00     0.171 HD
BRANCH  18  20
HETATM   20  C11 UNL     1      26.887 -32.172  -5.877  1.00  0.00     0.152 A 
HETATM   21  N4  UNL     1      26.415 -31.445  -4.869  1.00  0.00    -0.335 N 
HETATM   22  C12 UNL     1      26.732 -30.169  -4.812  1.00  0.00     0.051 A 
ATOM     23  H4  UNL     1      25.820 -31.867  -4.156  1.00  0.00     0.168 HD
HETATM   24  C13 UNL     1      26.327 -29.244  -3.821  1.00  0.00     0.031 A 
HETATM   25  C17 UNL     1      27.531 -29.670  -5.800  1.00  0.00     0.035 A 
HETATM   26  C14 UNL     1      26.720 -27.942  -3.866  1.00  0.00     0.002 A 
HETATM   27  C15 UNL     1      27.526 -27.433  -4.860  1.00  0.00     0.002 A 
HETATM   28  C16 UNL     1      27.929 -28.323  -5.834  1.00  0.00     0.021 A 
HETATM   29  S3  UNL     1      27.799 -31.047  -6.774  1.00  0.00    -0.052 SA
ENDBRANCH  18  20
ENDBRANCH  14  16
ENDBRANCH  12  14
BRANCH  13  30
HETATM   30  C18 UNL     1      24.422 -34.851  -2.411  1.00  0.00     0.074 A 
HETATM   31  C19 UNL     1      24.618 -35.878  -1.530  1.00  0.00     0.033 A 
HETATM   32  C20 UNL     1      25.257 -35.706  -0.311  1.00  0.00     0.002 A 
HETATM   33  C21 UNL     1      25.705 -34.453   0.015  1.00  0.00     0.003 A 
HETATM   34  C22 UNL     1      25.534 -33.393  -0.831  1.00  0.00     0.039 A 
HETATM   35  C23 UNL     1      24.899 -33.589  -2.031  1.00  0.00     0.092 A 
BRANCH  35  36
HETATM   36  O7  UNL     1      24.713 -32.516  -2.917  1.00  0.00    -0.358 OA
ATOM     37  H7  UNL     1      25.120 -32.565  -3.774  1.00  0.00     0.217 HD
ENDBRANCH  35  36
ENDBRANCH  13  30
BRANCH   1  38
HETATM   38  N1  UNL     1      18.202 -34.007  -3.529  1.00  0.00    -0.285 N 
ATOM     39  H1  UNL     1      17.682 -34.608  -2.889  1.00  0.00     0.178 HD
BRANCH  38  40
HETATM   40  S1  UNL     1      17.327 -32.773  -4.317  1.00  0.00     0.227 S 
HETATM   41  C1  UNL     1      16.438 -31.828  -3.119  1.00  0.00     0.186 C 
HETATM   42  O1  UNL     1      18.308 -31.829  -4.979  1.00  0.00    -0.206 OA
HETATM   43  O2  UNL     1      16.412 -33.320  -5.382  1.00  0.00    -0.206 OA
ENDBRANCH  38  40
ENDBRANCH   1  38
TORSDOF 7
ENDMDL
MODEL 2
REMARK VINA RESULT: -8.387426894      1.396      1.488
REMARK  7 active torsions:
REMARK  status: ('A' for Active; 'I' for Inactive)
REMARK    1  A    between atoms: S1_2  and  N1_5 
REMARK    2  A    between atoms: N1_5  and  C2_7 
REMARK    3  A    between atoms: C8_18  and  C9_19 
REMARK    4  A    between atoms: C9_19  and  C10_21 
REMARK       I    between atoms: C10_21  and  N3_23 
REMARK    5  A    between atoms: N3_23  and  C11_25 
REMARK    6  A    between atoms: N5_35  and  C18_36 
REMARK    7  A    between atoms: C23_41  and  O7_42 
ROOT
HETATM    1  C2  UNL     1      18.796 -32.959  -3.110  1.00  0.00     0.043 A 
HETATM    2  C3  UNL     1      19.746 -33.068  -2.102  1.00  0.00     0.032 A 
HETATM    3  C4  UNL     1      21.057 -33.471  -2.352  1.00  0.00     0.034 A 
HETATM    4  C5  UNL     1      21.440 -33.777  -3.649  1.00  0.00     0.065 A 
HETATM    5  C6  UNL     1      20.497 -33.668  -4.633  1.00  0.00     0.109 A 
HETATM    6  C7  UNL     1      19.203 -33.267  -4.366  1.00  0.00     0.057 A 
HETATM    7  S2  UNL     1      20.944 -34.086  -6.268  1.00  0.00     0.266 S 
HETATM    8  O3  UNL     1      20.791 -32.882  -7.181  1.00  0.00    -0.200 OA
HETATM    9  O4  UNL     1      20.088 -35.202  -6.801  1.00  0.00    -0.200 OA
HETATM   10  N2  UNL     1      22.586 -34.496  -6.246  1.00  0.00    -0.262 N 
ATOM     11  H2  UNL     1      23.046 -34.736  -7.124  1.00  0.00     0.180 HD
HETATM   12  C8  UNL     1      23.283 -34.515  -5.148  1.00  0.00     0.179 A 
HETATM   13  N5  UNL     1      22.809 -34.188  -3.872  1.00  0.00    -0.290 N 
ENDROOT
BRANCH  12  14
HETATM   14  C9  UNL     1      24.678 -34.891  -5.355  1.00  0.00     0.284 C 
HETATM   15  O5  UNL     1      25.109 -36.047  -5.377  1.00  0.00    -0.278 OA
BRANCH  14  16
HETATM   16  C10 UNL     1      25.682 -33.837  -5.557  1.00  0.00     0.301 C 
HETATM   17  O6  UNL     1      26.709 -33.758  -4.850  1.00  0.00    -0.264 OA
HETATM   18  N3  UNL     1      25.543 -32.846  -6.569  1.00  0.00    -0.300 N 
ATOM     19  H3  UNL     1      25.164 -33.080  -7.487  1.00  0.00     0.171 HD
BRANCH  18  20
HETATM   20  C11 UNL     1      25.921 -31.614  -6.281  1.00  0.00     0.152 A 
HETATM   21  N4  UNL     1      25.860 -31.008  -5.099  1.00  0.00    -0.335 N 
HETATM   22  C12 UNL     1      26.289 -29.767  -5.007  1.00  0.00     0.051 A 
ATOM     23  H4  UNL     1      25.490 -31.494  -4.283  1.00  0.00     0.168 HD
HETATM   24  C13 UNL     1      26.303 -28.966  -3.841  1.00  0.00     0.031 A 
HETATM   25  C17 UNL     1      26.770 -29.177  -6.139  1.00  0.00     0.035 A 
HETATM   26  C14 UNL     1      26.771 -27.689  -3.866  1.00  0.00     0.002 A 
HETATM   27  C15 UNL     1      27.259 -27.089  -5.006  1.00  0.00     0.002 A 
HETATM   28  C16 UNL     1      27.252 -27.857  -6.151  1.00  0.00     0.021 A 
HETATM   29  S3  UNL     1      26.593 -30.422  -7.296  1.00  0.00    -0.052 SA
ENDBRANCH  18  20
ENDBRANCH  14  16
ENDBRANCH  12  14
BRANCH  13  30
HETATM   30  C18 UNL     1      23.662 -34.190  -2.704  1.00  0.00     0.074 A 
HETATM   31  C19 UNL     1      23.907 -35.294  -1.936  1.00  0.00     0.033 A 
HETATM   32  C20 UNL     1      24.753 -35.269  -0.838  1.00  0.00     0.002 A 
HETATM   33  C21 UNL     1      25.363 -34.085  -0.517  1.00  0.00     0.003 A 
HETATM   34  C22 UNL     1      25.151 -32.952  -1.252  1.00  0.00     0.039 A 
HETATM   35  C23 UNL     1      24.310 -33.004  -2.334  1.00  0.00     0.092 A 
BRANCH  35  36
HETATM   36  O7  UNL     1      24.078 -31.853  -3.105  1.00  0.00    -0.358 OA
ATOM     37  H7  UNL     1      24.380 -31.847  -4.006  1.00  0.00     0.217 HD
ENDBRANCH  35  36
ENDBRANCH  13  30
BRANCH   1  38
HETATM   38  N1  UNL     1      17.504 -32.535  -2.715  1.00  0.00    -0.285 N 
ATOM     39  H1  UNL     1      16.963 -33.178  -2.137  1.00  0.00     0.178 HD
BRANCH  38  40
HETATM   40  S1  UNL     1      16.771 -31.047  -3.116  1.00  0.00     0.227 S 
HETATM   41  C1  UNL     1      15.064 -31.095  -2.667  1.00  0.00     0.186 C 
HETATM   42  O1  UNL     1      17.412 -29.952  -2.290  1.00  0.00    -0.206 OA
HETATM   43  O2  UNL     1      16.952 -30.703  -4.571  1.00  0.00    -0.206 OA
ENDBRANCH  38  40
ENDBRANCH   1  38
TORSDOF 7
ENDMDL
MODEL 3
REMARK VINA RESULT: -8.344183704      0.631      1.085
REMARK  7 active torsions:
REMARK  status: ('A' for Active; 'I' for Inactive)
REMARK    1  A    between atoms: S1_2  and  N1_5 
REMARK    2  A    between atoms: N1_5  and  C2_7 
REMARK    3  A    between atoms: C8_18  and  C9_19 
REMARK    4  A    between atoms: C9_19  and  C10_21 
REMARK       I    between atoms: C10_21  and  N3_23 
REMARK    5  A    between atoms: N3_23  and  C11_25 
REMARK    6  A    between atoms: N5_35  and  C18_36 
REMARK    7  A    between atoms: C23_41  and  O7_42 
ROOT
HETATM    1  C2  UNL     1      19.587 -34.253  -3.745  1.00  0.00     0.043 A 
HETATM    2  C3  UNL     1      20.377 -34.076  -2.616  1.00  0.00     0.032 A 
HETATM    3  C4  UNL     1      21.752 -34.308  -2.623  1.00  0.00     0.034 A 
HETATM    4  C5  UNL     1      22.365 -34.732  -3.792  1.00  0.00     0.065 A 
HETATM    5  C6  UNL     1      21.578 -34.905  -4.896  1.00  0.00     0.109 A 
HETATM    6  C7  UNL     1      20.217 -34.669  -4.871  1.00  0.00     0.057 A 
HETATM    7  S2  UNL     1      22.320 -35.476  -6.370  1.00  0.00     0.266 S 
HETATM    8  O3  UNL     1      22.155 -34.449  -7.476  1.00  0.00    -0.200 OA
HETATM    9  O4  UNL     1      21.706 -36.772  -6.825  1.00  0.00    -0.200 OA
HETATM   10  N2  UNL     1      23.978 -35.628  -6.066  1.00  0.00    -0.262 N 
ATOM     11  H2  UNL     1      24.594 -35.917  -6.826  1.00  0.00     0.180 HD
HETATM   12  C8  UNL     1      24.496 -35.388  -4.897  1.00  0.00     0.179 A 
HETATM   13  N5  UNL     1      23.793 -34.961  -3.764  1.00  0.00    -0.290 N 
ENDROOT
BRANCH  12  14
HETATM   14  C9  UNL     1      25.942 -35.575  -4.855  1.00  0.00     0.284 C 
HETATM   15  O5  UNL     1      26.516 -36.648  -4.648  1.00  0.00    -0.278 OA
BRANCH  14  16
HETATM   16  C10 UNL     1      26.821 -34.418  -5.072  1.00  0.00     0.301 C 
HETATM   17  O6  UNL     1      27.786 -34.170  -4.316  1.00  0.00    -0.264 OA
HETATM   18  N3  UNL     1      26.626 -33.513  -6.152  1.00  0.00    -0.300 N 
ATOM     19  H3  UNL     1      26.336 -33.846  -7.072  1.00  0.00     0.171 HD
BRANCH  18  20
HETATM   20  C11 UNL     1      26.834 -32.229  -5.926  1.00  0.00     0.152 A 
HETATM   21  N4  UNL     1      26.414 -31.516  -4.885  1.00  0.00    -0.335 N 
HETATM   22  C12 UNL     1      26.723 -30.238  -4.834  1.00  0.00     0.051 A 
ATOM     23  H4  UNL     1      25.865 -31.951  -4.143  1.00  0.00     0.168 HD
HETATM   24  C13 UNL     1      26.367 -29.327  -3.812  1.00  0.00     0.031 A 
HETATM   25  C17 UNL     1      27.458 -29.722  -5.861  1.00  0.00     0.035 A 
HETATM   26  C14 UNL     1      26.744 -28.021  -3.867  1.00  0.00     0.002 A 
HETATM   27  C15 UNL     1      27.487 -27.494  -4.900  1.00  0.00     0.002 A 
HETATM   28  C16 UNL     1      27.842 -28.371  -5.905  1.00  0.00     0.021 A 
HETATM   29  S3  UNL     1      27.683 -31.087  -6.863  1.00  0.00    -0.052 SA
ENDBRANCH  18  20
ENDBRANCH  14  16
ENDBRANCH  12  14
BRANCH  13  30
HETATM   30  C18 UNL     1      24.450 -34.670  -2.508  1.00  0.00     0.074 A 
HETATM   31  C19 UNL     1      24.962 -33.447  -2.176  1.00  0.00     0.033 A 
HETATM   32  C20 UNL     1      25.561 -33.194  -0.951  1.00  0.00     0.002 A 
HETATM   33  C21 UNL     1      25.640 -34.218  -0.045  1.00  0.00     0.003 A 
HETATM   34  C22 UNL     1      25.144 -35.459  -0.327  1.00  0.00     0.039 A 
HETATM   35  C23 UNL     1      24.555 -35.684  -1.545  1.00  0.00     0.092 A 
BRANCH  35  36
HETATM   36  O7  UNL     1      24.037 -36.952  -1.859  1.00  0.00    -0.358 OA
ATOM     37  H7  UNL     1      23.923 -37.577  -1.153  1.00  0.00     0.217 HD
ENDBRANCH  35  36
ENDBRANCH  13  30
BRANCH   1  38
HETATM   38  N1  UNL     1      18.206 -33.977  -3.597  1.00  0.00    -0.285 N 
ATOM     39  H1  UNL     1      17.687 -34.554  -2.936  1.00  0.00     0.178 HD
BRANCH  38  40
HETATM   40  S1  UNL     1      17.332 -32.765  -4.421  1.00  0.00     0.227 S 
HETATM   41  C1  UNL     1      16.468 -31.766  -3.250  1.00  0.00     0.186 C 
HETATM   42  O1  UNL     1      18.314 -31.858  -5.132  1.00  0.00    -0.206 OA
HETATM   43  O2  UNL     1      16.399 -33.344  -5.453  1.00  0.00    -0.206 OA
ENDBRANCH  38  40
ENDBRANCH   1  38
TORSDOF 7
ENDMDL
MODEL 4
REMARK VINA RESULT: -8.176314433      1.877      2.039
REMARK  7 active torsions:
REMARK  status: ('A' for Active; 'I' for Inactive)
REMARK    1  A    between atoms: S1_2  and  N1_5 
REMARK    2  A    between atoms: N1_5  and  C2_7 
REMARK    3  A    between atoms: C8_18  and  C9_19 
REMARK    4  A    between atoms: C9_19  and  C10_21 
REMARK       I    between atoms: C10_21  and  N3_23 
REMARK    5  A    between atoms: N3_23  and  C11_25 
REMARK    6  A    between atoms: N5_35  and  C18_36 
REMARK    7  A    between atoms: C23_41  and  O7_42 
ROOT
HETATM    1  C2  UNL     1      18.732 -32.961  -3.060  1.00  0.00     0.043 A 
HETATM    2  C3  UNL     1      19.700 -33.080  -2.071  1.00  0.00     0.032 A 
HETATM    3  C4  UNL     1      20.994 -33.523  -2.341  1.00  0.00     0.034 A 
HETATM    4  C5  UNL     1      21.341 -33.861  -3.640  1.00  0.00     0.065 A 
HETATM    5  C6  UNL     1      20.380 -33.742  -4.606  1.00  0.00     0.109 A 
HETATM    6  C7  UNL     1      19.103 -33.300  -4.319  1.00  0.00     0.057 A 
HETATM    7  S2  UNL     1      20.781 -34.199  -6.243  1.00  0.00     0.266 S 
HETATM    8  O3  UNL     1      20.641 -33.006  -7.173  1.00  0.00    -0.200 OA
HETATM    9  O4  UNL     1      19.883 -35.299  -6.740  1.00  0.00    -0.200 OA
HETATM   10  N2  UNL     1      22.411 -34.653  -6.249  1.00  0.00    -0.262 N 
ATOM     11  H2  UNL     1      22.845 -34.920  -7.132  1.00  0.00     0.180 HD
HETATM   12  C8  UNL     1      23.131 -34.674  -5.166  1.00  0.00     0.179 A 
HETATM   13  N5  UNL     1      22.693 -34.314  -3.886  1.00  0.00    -0.290 N 
ENDROOT
BRANCH  12  14
HETATM   14  C9  UNL     1      24.509 -35.092  -5.395  1.00  0.00     0.284 C 
HETATM   15  O5  UNL     1      24.947 -36.233  -5.226  1.00  0.00    -0.278 OA
BRANCH  14  16
HETATM   16  C10 UNL     1      25.489 -34.103  -5.867  1.00  0.00     0.301 C 
HETATM   17  O6  UNL     1      26.310 -33.565  -5.094  1.00  0.00    -0.264 OA
HETATM   18  N3  UNL     1      25.559 -33.701  -7.230  1.00  0.00    -0.300 N 
ATOM     19  H3  UNL     1      25.424 -34.373  -7.986  1.00  0.00     0.171 HD
BRANCH  18  20
HETATM   20  C11 UNL     1      25.805 -32.429  -7.486  1.00  0.00     0.152 A 
HETATM   21  N4  UNL     1      25.285 -31.369  -6.875  1.00  0.00    -0.335 N 
HETATM   22  C12 UNL     1      25.656 -30.170  -7.272  1.00  0.00     0.051 A 
ATOM     23  H4  UNL     1      24.614 -31.482  -6.115  1.00  0.00     0.168 HD
HETATM   24  C13 UNL     1      25.213 -28.934  -6.745  1.00  0.00     0.031 A 
HETATM   25  C17 UNL     1      26.557 -30.092  -8.294  1.00  0.00     0.035 A 
HETATM   26  C14 UNL     1      25.669 -27.751  -7.239  1.00  0.00     0.002 A 
HETATM   27  C15 UNL     1      26.578 -27.666  -8.270  1.00  0.00     0.002 A 
HETATM   28  C16 UNL     1      27.019 -28.863  -8.795  1.00  0.00     0.021 A 
HETATM   29  S3  UNL     1      26.841 -31.739  -8.649  1.00  0.00    -0.052 SA
ENDBRANCH  18  20
ENDBRANCH  14  16
ENDBRANCH  12  14
BRANCH  13  30
HETATM   30  C18 UNL     1      23.570 -34.320  -2.735  1.00  0.00     0.074 A 
HETATM   31  C19 UNL     1      23.742 -35.396  -1.909  1.00  0.00     0.033 A 
HETATM   32  C20 UNL     1      24.613 -35.379  -0.830  1.00  0.00     0.002 A 
HETATM   33  C21 UNL     1      25.325 -34.233  -0.591  1.00  0.00     0.003 A 
HETATM   34  C22 UNL     1      25.190 -33.130  -1.386  1.00  0.00     0.039 A 
HETATM   35  C23 UNL     1      24.322 -33.172  -2.448  1.00  0.00     0.092 A 
BRANCH  35  36
HETATM   36  O7  UNL     1      24.166 -32.052  -3.280  1.00  0.00    -0.358 OA
ATOM     37  H7  UNL     1      23.708 -31.295  -2.934  1.00  0.00     0.217 HD
ENDBRANCH  35  36
ENDBRANCH  13  30
BRANCH   1  38
HETATM   38  N1  UNL     1      17.462 -32.495  -2.645  1.00  0.00    -0.285 N 
ATOM     39  H1  UNL     1      16.911 -33.117  -2.054  1.00  0.00     0.178 HD
BRANCH  38  40
HETATM   40  S1  UNL     1      16.768 -30.988  -3.043  1.00  0.00     0.227 S 
HETATM   41  C1  UNL     1      15.064 -30.986  -2.580  1.00  0.00     0.186 C 
HETATM   42  O1  UNL     1      17.446 -29.910  -2.224  1.00  0.00    -0.206 OA
HETATM   43  O2  UNL     1      16.947 -30.650  -4.501  1.00  0.00    -0.206 OA
ENDBRANCH  38  40
ENDBRANCH   1  38
TORSDOF 7
ENDMDL
MODEL 5
REMARK VINA RESULT: -8.110895441      1.819      2.079
REMARK  7 active torsions:
REMARK  status: ('A' for Active; 'I' for Inactive)
REMARK    1  A    between atoms: S1_2  and  N1_5 
REMARK    2  A    between atoms: N1_5  and  C2_7 
REMARK    3  A    between atoms: C8_18  and  C9_19 
REMARK    4  A    between atoms: C9_19  and  C10_21 
REMARK       I    between atoms: C10_21  and  N3_23 
REMARK    5  A    between atoms: N3_23  and  C11_25 
REMARK    6  A    between atoms: N5_35  and  C18_36 
REMARK    7  A    between atoms: C23_41  and  O7_42 
ROOT
HETATM    1  C2  UNL     1      18.772 -32.966  -3.333  1.00  0.00     0.043 A 
HETATM    2  C3  UNL     1      19.777 -33.063  -2.378  1.00  0.00     0.032 A 
HETATM    3  C4  UNL     1      21.100 -33.348  -2.714  1.00  0.00     0.034 A 
HETATM    4  C5  UNL     1      21.439 -33.542  -4.044  1.00  0.00     0.065 A 
HETATM    5  C6  UNL     1      20.442 -33.446  -4.974  1.00  0.00     0.109 A 
HETATM    6  C7  UNL     1      19.136 -33.163  -4.624  1.00  0.00     0.057 A 
HETATM    7  S2  UNL     1      20.836 -33.726  -6.652  1.00  0.00     0.266 S 
HETATM    8  O3  UNL     1      20.548 -32.483  -7.476  1.00  0.00    -0.200 OA
HETATM    9  O4  UNL     1      20.040 -34.870  -7.218  1.00  0.00    -0.200 OA
HETATM   10  N2  UNL     1      22.503 -34.007  -6.732  1.00  0.00    -0.262 N 
ATOM     11  H2  UNL     1      22.935 -34.156  -7.644  1.00  0.00     0.180 HD
HETATM   12  C8  UNL     1      23.254 -34.041  -5.671  1.00  0.00     0.179 A 
HETATM   13  N5  UNL     1      22.822 -33.831  -4.356  1.00  0.00    -0.290 N 
ENDROOT
BRANCH  12  14
HETATM   14  C9  UNL     1      24.660 -34.294  -5.965  1.00  0.00     0.284 C 
HETATM   15  O5  UNL     1      25.181 -35.409  -6.053  1.00  0.00    -0.278 OA
BRANCH  14  16
HETATM   16  C10 UNL     1      25.564 -33.155  -6.181  1.00  0.00     0.301 C 
HETATM   17  O6  UNL     1      26.722 -33.131  -5.709  1.00  0.00    -0.264 OA
HETATM   18  N3  UNL     1      25.174 -32.015  -6.938  1.00  0.00    -0.300 N 
ATOM     19  H3  UNL     1      24.606 -32.111  -7.780  1.00  0.00     0.171 HD
BRANCH  18  20
HETATM   20  C11 UNL     1      25.573 -30.829  -6.516  1.00  0.00     0.152 A 
HETATM   21  N4  UNL     1      25.641 -30.403  -5.258  1.00  0.00    -0.335 N 
HETATM   22  C12 UNL     1      26.068 -29.178  -5.033  1.00  0.00     0.051 A 
ATOM     23  H4  UNL     1      25.369 -31.010  -4.486  1.00  0.00     0.168 HD
HETATM   24  C13 UNL     1      26.207 -28.554  -3.771  1.00  0.00     0.031 A 
HETATM   25  C17 UNL     1      26.415 -28.419  -6.113  1.00  0.00     0.035 A 
HETATM   26  C14 UNL     1      26.660 -27.277  -3.660  1.00  0.00     0.002 A 
HETATM   27  C15 UNL     1      27.013 -26.506  -4.746  1.00  0.00     0.002 A 
HETATM   28  C16 UNL     1      26.882 -27.100  -5.984  1.00  0.00     0.021 A 
HETATM   29  S3  UNL     1      26.119 -29.487  -7.413  1.00  0.00    -0.052 SA
ENDBRANCH  18  20
ENDBRANCH  14  16
ENDBRANCH  12  14
BRANCH  13  30
HETATM   30  C18 UNL     1      23.730 -33.839  -3.230  1.00  0.00     0.074 A 
HETATM   31  C19 UNL     1      24.328 -32.721  -2.720  1.00  0.00     0.033 A 
HETATM   32  C20 UNL     1      25.173 -32.758  -1.621  1.00  0.00     0.002 A 
HETATM   33  C21 UNL     1      25.412 -33.971  -1.030  1.00  0.00     0.003 A 
HETATM   34  C22 UNL     1      24.840 -35.119  -1.500  1.00  0.00     0.039 A 
HETATM   35  C23 UNL     1      24.007 -35.055  -2.589  1.00  0.00     0.092 A 
BRANCH  35  36
HETATM   36  O7  UNL     1      23.406 -36.221  -3.090  1.00  0.00    -0.358 OA
ATOM     37  H7  UNL     1      23.969 -36.941  -3.349  1.00  0.00     0.217 HD
ENDBRANCH  35  36
ENDBRANCH  13  30
BRANCH   1  38
HETATM   38  N1  UNL     1      17.474 -32.669  -2.852  1.00  0.00    -0.285 N 
ATOM     39  H1  UNL     1      16.964 -33.425  -2.397  1.00  0.00     0.178 HD
BRANCH  38  40
HETATM   40  S1  UNL     1      16.685 -31.160  -2.965  1.00  0.00     0.227 S 
HETATM   41  C1  UNL     1      17.490 -29.997  -1.908  1.00  0.00     0.186 C 
HETATM   42  O1  UNL     1      16.830 -30.641  -4.380  1.00  0.00    -0.206 OA
HETATM   43  O2  UNL     1      15.214 -31.267  -2.654  1.00  0.00    -0.206 OA
ENDBRANCH  38  40
ENDBRANCH   1  38
TORSDOF 7
ENDMDL
