MODEL 1
REMARK VINA RESULT: -8.679500214      0.000      0.000
REMARK  10 active torsions:
REMARK  status: ('A' for Active; 'I' for Inactive)
REMARK    1  A    between atoms: C4_5  and  C5_6 
REMARK       I    between atoms: C5_6  and  N2_8 
REMARK    2  A    between atoms: N2_8  and  C6_9 
REMARK    3  A    between atoms: C9_15  and  C10_16 
REMARK    4  A    between atoms: C11_17  and  C12_18 
REMARK    5  A    between atoms: C14_21  and  C15_22 
REMARK    6  A    between atoms: C15_22  and  O3_23 
REMARK    7  A    between atoms: C19_30  and  N5_31 
REMARK    8  A    between atoms: N5_31  and  C20_33 
REMARK    9  A    between atoms: C25_38  and  O4_39 
REMARK   10  A    between atoms: O4_39  and  O5_40 
ROOT
HETATM    1  C1  UNL     1      19.057 -32.965  -2.844  1.00  0.00     0.171 C 
HETATM    2  N1  UNL     1      19.461 -33.324  -4.181  1.00  0.00    -0.263 N 
HETATM    3  C2  UNL     1      20.825 -33.267  -4.529  1.00  0.00     0.053 A 
HETATM    4  C3  UNL     1      21.620 -33.171  -3.415  1.00  0.00     0.050 A 
HETATM    5  C4  UNL     1      22.997 -33.107  -3.541  1.00  0.00     0.067 A 
HETATM    6  C9  UNL     1      23.636 -33.135  -4.742  1.00  0.00     0.035 A 
HETATM    7  C16 UNL     1      22.824 -33.234  -5.881  1.00  0.00     0.031 A 
HETATM    8  C17 UNL     1      21.450 -33.298  -5.777  1.00  0.00    -0.022 A 
HETATM    9  C18 UNL     1      20.800 -33.389  -7.100  1.00  0.00     0.118 C 
HETATM   10  C19 UNL     1      19.856 -34.511  -7.247  1.00  0.00     0.097 C 
HETATM   11  N6  UNL     1      18.798 -34.741  -6.554  1.00  0.00    -0.256 N 
ATOM     12  H6  UNL     1      18.268 -35.575  -6.808  1.00  0.00     0.181 HD
HETATM   13  S2  UNL     1      18.163 -33.808  -5.246  1.00  0.00     0.326 S 
HETATM   14  O6  UNL     1      17.501 -32.558  -5.722  1.00  0.00    -0.182 OA
HETATM   15  O7  UNL     1      17.218 -34.679  -4.478  1.00  0.00    -0.182 OA
ENDROOT
BRANCH   6  16
HETATM   16  C10 UNL     1      25.061 -33.081  -4.888  1.00  0.00    -0.059 C 
HETATM   17  C11 UNL     1      26.264 -33.002  -5.027  1.00  0.00    -0.043 C 
BRANCH  17  18
HETATM   18  C12 UNL     1      27.719 -32.884  -5.194  1.00  0.00     0.094 A 
HETATM   19  C13 UNL     1      28.265 -31.848  -5.916  1.00  0.00     0.090 A 
HETATM   20  S1  UNL     1      29.936 -32.188  -5.792  1.00  0.00    -0.084 SA
HETATM   21  C14 UNL     1      29.838 -33.605  -4.846  1.00  0.00     0.075 A 
HETATM   22  N4  UNL     1      28.535 -33.743  -4.674  1.00  0.00    -0.345 N 
ATOM     23  H4  UNL     1      28.173 -34.527  -4.132  1.00  0.00     0.167 HD
BRANCH  21  24
HETATM   24  C15 UNL     1      30.963 -34.465  -4.343  1.00  0.00     0.229 C 
BRANCH  24  25
HETATM   25  O3  UNL     1      30.956 -34.431  -2.938  1.00  0.00    -0.394 OA
ATOM     26  H3  UNL     1      30.139 -34.805  -2.631  1.00  0.00     0.209 HD
ENDBRANCH  24  25
ENDBRANCH  21  24
ENDBRANCH  17  18
ENDBRANCH   6  16
BRANCH   5  27
HETATM   27  C5  UNL     1      23.793 -32.991  -2.285  1.00  0.00     0.330 C 
HETATM   28  O1  UNL     1      24.165 -31.784  -1.993  1.00  0.00    -0.251 OA
HETATM   29  N2  UNL     1      24.105 -34.011  -1.521  1.00  0.00    -0.339 NA
BRANCH  29  30
HETATM   30  C6  UNL     1      24.399 -34.949  -0.854  1.00  0.00     0.245 A 
HETATM   31  C7  UNL     1      25.656 -35.265  -0.273  1.00  0.00     0.093 A 
HETATM   32  C8  UNL     1      25.490 -36.442   0.398  1.00  0.00     0.120 A 
HETATM   33  N3  UNL     1      24.225 -36.800   0.229  1.00  0.00    -0.269 N 
HETATM   34  O2  UNL     1      23.587 -35.951  -0.490  1.00  0.00    -0.205 OA
ATOM     35  H3  UNL     1      23.811 -37.647   0.621  1.00  0.00     0.194 HD
ENDBRANCH  29  30
ENDBRANCH   5  27
BRANCH  10  36
HETATM   36  N5  UNL     1      20.092 -35.485  -8.253  1.00  0.00    -0.343 N 
ATOM     37  H5  UNL     1      19.729 -35.305  -9.189  1.00  0.00     0.167 HD
BRANCH  36  38
HETATM   38  C20 UNL     1      20.801 -36.692  -8.035  1.00  0.00     0.070 A 
HETATM   39  C21 UNL     1      21.762 -36.789  -7.045  1.00  0.00     0.032 A 
HETATM   40  C22 UNL     1      22.463 -37.953  -6.816  1.00  0.00     0.002 A 
HETATM   41  C23 UNL     1      22.198 -39.070  -7.607  1.00  0.00     0.003 A 
HETATM   42  C24 UNL     1      21.246 -38.958  -8.580  1.00  0.00     0.042 A 
HETATM   43  C25 UNL     1      20.555 -37.789  -8.796  1.00  0.00     0.133 A 
BRANCH  43  44
HETATM   44  O4  UNL     1      19.597 -37.709  -9.791  1.00  0.00    -0.198 OA
BRANCH  44  45
HETATM   45  O5  UNL     1      18.921 -38.764 -10.209  1.00  0.00    -0.245 OA
ATOM     46  H5  UNL     1      18.891 -39.576  -9.718  1.00  0.00     0.254 HD
ENDBRANCH  44  45
ENDBRANCH  43  44
ENDBRANCH  36  38
ENDBRANCH  10  36
TORSDOF 10
ENDMDL
MODEL 2
REMARK VINA RESULT: -8.407788765      1.647      2.457
REMARK  10 active torsions:
REMARK  status: ('A' for Active; 'I' for Inactive)
REMARK    1  A    between atoms: C4_5  and  C5_6 
REMARK       I    between atoms: C5_6  and  N2_8 
REMARK    2  A    between atoms: N2_8  and  C6_9 
REMARK    3  A    between atoms: C9_15  and  C10_16 
REMARK    4  A    between atoms: C11_17  and  C12_18 
REMARK    5  A    between atoms: C14_21  and  C15_22 
REMARK    6  A    between atoms: C15_22  and  O3_23 
REMARK    7  A    between atoms: C19_30  and  N5_31 
REMARK    8  A    between atoms: N5_31  and  C20_33 
REMARK    9  A    between atoms: C25_38  and  O4_39 
REMARK   10  A    between atoms: O4_39  and  O5_40 
ROOT
HETATM    1  C1  UNL     1      19.189 -32.687  -3.085  1.00  0.00     0.171 C 
HETATM    2  N1  UNL     1      19.477 -33.246  -4.383  1.00  0.00    -0.263 N 
HETATM    3  C2  UNL     1      20.817 -33.364  -4.803  1.00  0.00     0.053 A 
HETATM    4  C3  UNL     1      21.684 -33.208  -3.752  1.00  0.00     0.050 A 
HETATM    5  C4  UNL     1      23.051 -33.292  -3.954  1.00  0.00     0.067 A 
HETATM    6  C9  UNL     1      23.609 -33.529  -5.171  1.00  0.00     0.035 A 
HETATM    7  C16 UNL     1      22.723 -33.689  -6.247  1.00  0.00     0.031 A 
HETATM    8  C17 UNL     1      21.358 -33.608  -6.067  1.00  0.00    -0.022 A 
HETATM    9  C18 UNL     1      20.621 -33.798  -7.333  1.00  0.00     0.118 C 
HETATM   10  C19 UNL     1      19.574 -34.834  -7.287  1.00  0.00     0.097 C 
HETATM   11  N6  UNL     1      18.545 -34.873  -6.519  1.00  0.00    -0.256 N 
ATOM     12  H6  UNL     1      17.928 -35.678  -6.637  1.00  0.00     0.181 HD
HETATM   13  S2  UNL     1      18.077 -33.730  -5.311  1.00  0.00     0.326 S 
HETATM   14  O6  UNL     1      17.502 -32.490  -5.910  1.00  0.00    -0.182 OA
HETATM   15  O7  UNL     1      17.108 -34.405  -4.391  1.00  0.00    -0.182 OA
ENDROOT
BRANCH   6  16
HETATM   16  C10 UNL     1      25.022 -33.631  -5.394  1.00  0.00    -0.059 C 
HETATM   17  C11 UNL     1      26.213 -33.755  -5.591  1.00  0.00    -0.043 C 
BRANCH  17  18
HETATM   18  C12 UNL     1      27.651 -33.920  -5.844  1.00  0.00     0.094 A 
HETATM   19  C13 UNL     1      28.108 -34.343  -7.071  1.00  0.00     0.090 A 
HETATM   20  S1  UNL     1      29.799 -34.360  -6.818  1.00  0.00    -0.084 SA
HETATM   21  C14 UNL     1      29.819 -33.838  -5.194  1.00  0.00     0.075 A 
HETATM   22  N4  UNL     1      28.534 -33.678  -4.930  1.00  0.00    -0.345 N 
ATOM     23  H4  UNL     1      28.239 -33.363  -4.006  1.00  0.00     0.167 HD
BRANCH  21  24
HETATM   24  C15 UNL     1      31.010 -33.620  -4.304  1.00  0.00     0.229 C 
BRANCH  24  25
HETATM   25  O3  UNL     1      30.917 -34.500  -3.212  1.00  0.00    -0.394 OA
ATOM     26  H3  UNL     1      31.762 -34.916  -3.087  1.00  0.00     0.209 HD
ENDBRANCH  24  25
ENDBRANCH  21  24
ENDBRANCH  17  18
ENDBRANCH   6  16
BRANCH   5  27
HETATM   27  C5  UNL     1      23.930 -33.099  -2.764  1.00  0.00     0.330 C 
HETATM   28  O1  UNL     1      23.922 -34.086  -1.923  1.00  0.00    -0.251 OA
HETATM   29  N2  UNL     1      24.661 -32.029  -2.563  1.00  0.00    -0.339 NA
BRANCH  29  30
HETATM   30  C6  UNL     1      25.297 -31.042  -2.383  1.00  0.00     0.245 A 
HETATM   31  C7  UNL     1      26.550 -30.679  -2.945  1.00  0.00     0.093 A 
HETATM   32  C8  UNL     1      26.868 -29.454  -2.432  1.00  0.00     0.120 A 
HETATM   33  N3  UNL     1      25.874 -29.113  -1.623  1.00  0.00    -0.269 N 
HETATM   34  O2  UNL     1      24.965 -30.016  -1.586  1.00  0.00    -0.205 OA
ATOM     35  H3  UNL     1      25.838 -28.240  -1.096  1.00  0.00     0.194 HD
ENDBRANCH  29  30
ENDBRANCH   5  27
BRANCH  10  36
HETATM   36  N5  UNL     1      19.660 -35.942  -8.170  1.00  0.00    -0.343 N 
ATOM     37  H5  UNL     1      19.003 -35.986  -8.949  1.00  0.00     0.167 HD
BRANCH  36  38
HETATM   38  C20 UNL     1      20.603 -36.990  -8.035  1.00  0.00     0.070 A 
HETATM   39  C21 UNL     1      21.483 -37.029  -6.968  1.00  0.00     0.032 A 
HETATM   40  C22 UNL     1      22.407 -38.039  -6.818  1.00  0.00     0.002 A 
HETATM   41  C23 UNL     1      22.461 -39.056  -7.771  1.00  0.00     0.003 A 
HETATM   42  C24 UNL     1      21.587 -39.003  -8.818  1.00  0.00     0.042 A 
HETATM   43  C25 UNL     1      20.669 -37.988  -8.954  1.00  0.00     0.133 A 
BRANCH  43  44
HETATM   44  O4  UNL     1      19.796 -37.964 -10.027  1.00  0.00    -0.198 OA
BRANCH  44  45
HETATM   45  O5  UNL     1      19.017 -38.987 -10.328  1.00  0.00    -0.245 OA
ATOM     46  H5  UNL     1      18.271 -39.232  -9.793  1.00  0.00     0.254 HD
ENDBRANCH  44  45
ENDBRANCH  43  44
ENDBRANCH  36  38
ENDBRANCH  10  36
TORSDOF 10
ENDMDL
MODEL 3
REMARK VINA RESULT: -8.258998980      3.197      7.797
REMARK  10 active torsions:
REMARK  status: ('A' for Active; 'I' for Inactive)
REMARK    1  A    between atoms: C4_5  and  C5_6 
REMARK       I    between atoms: C5_6  and  N2_8 
REMARK    2  A    between atoms: N2_8  and  C6_9 
REMARK    3  A    between atoms: C9_15  and  C10_16 
REMARK    4  A    between atoms: C11_17  and  C12_18 
REMARK    5  A    between atoms: C14_21  and  C15_22 
REMARK    6  A    between atoms: C15_22  and  O3_23 
REMARK    7  A    between atoms: C19_30  and  N5_31 
REMARK    8  A    between atoms: N5_31  and  C20_33 
REMARK    9  A    between atoms: C25_38  and  O4_39 
REMARK   10  A    between atoms: O4_39  and  O5_40 
ROOT
HETATM    1  C1  UNL     1      18.207 -33.425  -4.904  1.00  0.00     0.171 C 
HETATM    2  N1  UNL     1      19.382 -33.868  -4.194  1.00  0.00    -0.263 N 
HETATM    3  C2  UNL     1      20.332 -34.666  -4.862  1.00  0.00     0.053 A 
HETATM    4  C3  UNL     1      20.138 -34.641  -6.220  1.00  0.00     0.050 A 
HETATM    5  C4  UNL     1      20.972 -35.359  -7.060  1.00  0.00     0.067 A 
HETATM    6  C9  UNL     1      22.009 -36.115  -6.609  1.00  0.00     0.035 A 
HETATM    7  C16 UNL     1      22.208 -36.141  -5.221  1.00  0.00     0.031 A 
HETATM    8  C17 UNL     1      21.389 -35.433  -4.367  1.00  0.00    -0.022 A 
HETATM    9  C18 UNL     1      21.776 -35.613  -2.953  1.00  0.00     0.118 C 
HETATM   10  C19 UNL     1      21.985 -34.360  -2.207  1.00  0.00     0.097 C 
HETATM   11  N6  UNL     1      21.133 -33.420  -2.000  1.00  0.00    -0.256 N 
ATOM     12  H6  UNL     1      21.466 -32.624  -1.456  1.00  0.00     0.181 HD
HETATM   13  S2  UNL     1      19.491 -33.340  -2.532  1.00  0.00     0.326 S 
HETATM   14  O6  UNL     1      18.602 -34.234  -1.733  1.00  0.00    -0.182 OA
HETATM   15  O7  UNL     1      19.053 -31.911  -2.458  1.00  0.00    -0.182 OA
ENDROOT
BRANCH   6  16
HETATM   16  C10 UNL     1      22.888 -36.854  -7.467  1.00  0.00    -0.059 C 
HETATM   17  C11 UNL     1      23.648 -37.496  -8.162  1.00  0.00    -0.043 C 
BRANCH  17  18
HETATM   18  C12 UNL     1      24.568 -38.289  -8.989  1.00  0.00     0.094 A 
HETATM   19  C13 UNL     1      24.914 -37.876 -10.255  1.00  0.00     0.090 A 
HETATM   20  S1  UNL     1      25.972 -39.127 -10.745  1.00  0.00    -0.084 SA
HETATM   21  C14 UNL     1      25.909 -40.082  -9.333  1.00  0.00     0.075 A 
HETATM   22  N4  UNL     1      25.084 -39.396  -8.562  1.00  0.00    -0.345 N 
ATOM     23  H4  UNL     1      24.854 -39.739  -7.629  1.00  0.00     0.167 HD
BRANCH  21  24
HETATM   24  C15 UNL     1      26.619 -41.376  -9.056  1.00  0.00     0.229 C 
BRANCH  24  25
HETATM   25  O3  UNL     1      25.884 -42.092  -8.095  1.00  0.00    -0.394 OA
ATOM     26  H3  UNL     1      26.355 -42.061  -7.271  1.00  0.00     0.209 HD
ENDBRANCH  24  25
ENDBRANCH  21  24
ENDBRANCH  17  18
ENDBRANCH   6  16
BRANCH   5  27
HETATM   27  C5  UNL     1      20.690 -35.291  -8.523  1.00  0.00     0.330 C 
HETATM   28  O1  UNL     1      20.669 -34.091  -9.012  1.00  0.00    -0.251 OA
HETATM   29  N2  UNL     1      20.477 -36.345  -9.275  1.00  0.00    -0.339 NA
BRANCH  29  30
HETATM   30  C6  UNL     1      20.262 -37.308  -9.936  1.00  0.00     0.245 A 
HETATM   31  C7  UNL     1      20.970 -37.782 -11.072  1.00  0.00     0.093 A 
HETATM   32  C8  UNL     1      20.339 -38.921 -11.479  1.00  0.00     0.120 A 
HETATM   33  N3  UNL     1      19.327 -39.113 -10.644  1.00  0.00    -0.269 N 
HETATM   34  O2  UNL     1      19.271 -38.193  -9.752  1.00  0.00    -0.205 OA
ATOM     35  H3  UNL     1      18.674 -39.895 -10.704  1.00  0.00     0.194 HD
ENDBRANCH  29  30
ENDBRANCH   5  27
BRANCH  10  36
HETATM   36  N5  UNL     1      23.255 -34.104  -1.628  1.00  0.00    -0.343 N 
ATOM     37  H5  UNL     1      23.346 -34.188  -0.615  1.00  0.00     0.167 HD
BRANCH  36  38
HETATM   38  C20 UNL     1      24.405 -33.739  -2.371  1.00  0.00     0.070 A 
HETATM   39  C21 UNL     1      25.054 -34.653  -3.182  1.00  0.00     0.032 A 
HETATM   40  C22 UNL     1      26.172 -34.319  -3.913  1.00  0.00     0.002 A 
HETATM   41  C23 UNL     1      26.670 -33.018  -3.833  1.00  0.00     0.003 A 
HETATM   42  C24 UNL     1      26.019 -32.128  -3.029  1.00  0.00     0.042 A 
HETATM   43  C25 UNL     1      24.903 -32.477  -2.305  1.00  0.00     0.133 A 
BRANCH  43  44
HETATM   44  O4  UNL     1      24.266 -31.551  -1.498  1.00  0.00    -0.198 OA
BRANCH  44  45
HETATM   45  O5  UNL     1      24.671 -30.298  -1.405  1.00  0.00    -0.245 OA
ATOM     46  H5  UNL     1      24.122 -29.611  -1.043  1.00  0.00     0.254 HD
ENDBRANCH  44  45
ENDBRANCH  43  44
ENDBRANCH  36  38
ENDBRANCH  10  36
TORSDOF 10
ENDMDL
MODEL 4
REMARK VINA RESULT: -8.223386539      1.373      1.660
REMARK  10 active torsions:
REMARK  status: ('A' for Active; 'I' for Inactive)
REMARK    1  A    between atoms: C4_5  and  C5_6 
REMARK       I    between atoms: C5_6  and  N2_8 
REMARK    2  A    between atoms: N2_8  and  C6_9 
REMARK    3  A    between atoms: C9_15  and  C10_16 
REMARK    4  A    between atoms: C11_17  and  C12_18 
REMARK    5  A    between atoms: C14_21  and  C15_22 
REMARK    6  A    between atoms: C15_22  and  O3_23 
REMARK    7  A    between atoms: C19_30  and  N5_31 
REMARK    8  A    between atoms: N5_31  and  C20_33 
REMARK    9  A    between atoms: C25_38  and  O4_39 
REMARK   10  A    between atoms: O4_39  and  O5_40 
ROOT
HETATM    1  C1  UNL     1      19.184 -33.059  -2.707  1.00  0.00     0.171 C 
HETATM    2  N1  UNL     1      19.596 -33.173  -4.084  1.00  0.00    -0.263 N 
HETATM    3  C2  UNL     1      20.957 -33.009  -4.413  1.00  0.00     0.053 A 
HETATM    4  C3  UNL     1      21.751 -33.073  -3.296  1.00  0.00     0.050 A 
HETATM    5  C4  UNL     1      23.124 -32.940  -3.405  1.00  0.00     0.067 A 
HETATM    6  C9  UNL     1      23.760 -32.741  -4.592  1.00  0.00     0.035 A 
HETATM    7  C16 UNL     1      22.948 -32.676  -5.734  1.00  0.00     0.031 A 
HETATM    8  C17 UNL     1      21.579 -32.806  -5.647  1.00  0.00    -0.022 A 
HETATM    9  C18 UNL     1      20.928 -32.696  -6.968  1.00  0.00     0.118 C 
HETATM   10  C19 UNL     1      20.024 -33.810  -7.305  1.00  0.00     0.097 C 
HETATM   11  N6  UNL     1      18.977 -34.191  -6.664  1.00  0.00    -0.256 N 
ATOM     12  H6  UNL     1      18.477 -34.989  -7.057  1.00  0.00     0.181 HD
HETATM   13  S2  UNL     1      18.313 -33.516  -5.220  1.00  0.00     0.326 S 
HETATM   14  O6  UNL     1      17.606 -32.228  -5.479  1.00  0.00    -0.182 OA
HETATM   15  O7  UNL     1      17.403 -34.537  -4.612  1.00  0.00    -0.182 OA
ENDROOT
BRANCH   6  16
HETATM   16  C10 UNL     1      25.182 -32.613  -4.722  1.00  0.00    -0.059 C 
HETATM   17  C11 UNL     1      26.383 -32.519  -4.868  1.00  0.00    -0.043 C 
BRANCH  17  18
HETATM   18  C12 UNL     1      27.834 -32.403  -5.066  1.00  0.00     0.094 A 
HETATM   19  C13 UNL     1      28.372 -31.329  -5.736  1.00  0.00     0.090 A 
HETATM   20  S1  UNL     1      30.043 -31.690  -5.677  1.00  0.00    -0.084 SA
HETATM   21  C14 UNL     1      29.955 -33.162  -4.819  1.00  0.00     0.075 A 
HETATM   22  N4  UNL     1      28.655 -33.300  -4.622  1.00  0.00    -0.345 N 
ATOM     23  H4  UNL     1      28.299 -34.114  -4.121  1.00  0.00     0.167 HD
BRANCH  21  24
HETATM   24  C15 UNL     1      31.083 -34.061  -4.401  1.00  0.00     0.229 C 
BRANCH  24  25
HETATM   25  O3  UNL     1      30.891 -34.423  -3.057  1.00  0.00    -0.394 OA
ATOM     26  H3  UNL     1      30.595 -35.325  -3.026  1.00  0.00     0.209 HD
ENDBRANCH  24  25
ENDBRANCH  21  24
ENDBRANCH  17  18
ENDBRANCH   6  16
BRANCH   5  27
HETATM   27  C5  UNL     1      23.920 -33.009  -2.145  1.00  0.00     0.330 C 
HETATM   28  O1  UNL     1      24.421 -31.876  -1.763  1.00  0.00    -0.251 OA
HETATM   29  N2  UNL     1      24.111 -34.113  -1.462  1.00  0.00    -0.339 NA
BRANCH  29  30
HETATM   30  C6  UNL     1      24.295 -35.126  -0.870  1.00  0.00     0.245 A 
HETATM   31  C7  UNL     1      23.338 -36.031  -0.341  1.00  0.00     0.093 A 
HETATM   32  C8  UNL     1      24.041 -37.041   0.250  1.00  0.00     0.120 A 
HETATM   33  N3  UNL     1      25.326 -36.757   0.084  1.00  0.00    -0.269 N 
HETATM   34  O2  UNL     1      25.486 -35.658  -0.558  1.00  0.00    -0.205 OA
ATOM     35  H3  UNL     1      26.091 -37.339   0.424  1.00  0.00     0.194 HD
ENDBRANCH  29  30
ENDBRANCH   5  27
BRANCH  10  36
HETATM   36  N5  UNL     1      20.292 -34.591  -8.460  1.00  0.00    -0.343 N 
ATOM     37  H5  UNL     1      20.193 -34.146  -9.373  1.00  0.00     0.167 HD
BRANCH  36  38
HETATM   38  C20 UNL     1      20.688 -35.950  -8.422  1.00  0.00     0.070 A 
HETATM   39  C21 UNL     1      19.810 -36.963  -8.765  1.00  0.00     0.032 A 
HETATM   40  C22 UNL     1      20.175 -38.290  -8.735  1.00  0.00     0.002 A 
HETATM   41  C23 UNL     1      21.471 -38.628  -8.345  1.00  0.00     0.003 A 
HETATM   42  C24 UNL     1      22.326 -37.618  -8.010  1.00  0.00     0.042 A 
HETATM   43  C25 UNL     1      21.947 -36.296  -8.045  1.00  0.00     0.133 A 
BRANCH  43  44
HETATM   44  O4  UNL     1      22.837 -35.296  -7.699  1.00  0.00    -0.198 OA
BRANCH  44  45
HETATM   45  O5  UNL     1      24.145 -35.480  -7.709  1.00  0.00    -0.245 OA
ATOM     46  H5  UNL     1      24.689 -35.224  -8.445  1.00  0.00     0.254 HD
ENDBRANCH  44  45
ENDBRANCH  43  44
ENDBRANCH  36  38
ENDBRANCH  10  36
TORSDOF 10
ENDMDL
MODEL 5
REMARK VINA RESULT: -8.054951696      3.214      8.114
REMARK  10 active torsions:
REMARK  status: ('A' for Active; 'I' for Inactive)
REMARK    1  A    between atoms: C4_5  and  C5_6 
REMARK       I    between atoms: C5_6  and  N2_8 
REMARK    2  A    between atoms: N2_8  and  C6_9 
REMARK    3  A    between atoms: C9_15  and  C10_16 
REMARK    4  A    between atoms: C11_17  and  C12_18 
REMARK    5  A    between atoms: C14_21  and  C15_22 
REMARK    6  A    between atoms: C15_22  and  O3_23 
REMARK    7  A    between atoms: C19_30  and  N5_31 
REMARK    8  A    between atoms: N5_31  and  C20_33 
REMARK    9  A    between atoms: C25_38  and  O4_39 
REMARK   10  A    between atoms: O4_39  and  O5_40 
ROOT
HETATM    1  C1  UNL     1      18.624 -33.787  -4.676  1.00  0.00     0.171 C 
HETATM    2  N1  UNL     1      19.877 -34.211  -4.103  1.00  0.00    -0.263 N 
HETATM    3  C2  UNL     1      20.814 -34.884  -4.912  1.00  0.00     0.053 A 
HETATM    4  C3  UNL     1      20.507 -34.756  -6.243  1.00  0.00     0.050 A 
HETATM    5  C4  UNL     1      21.308 -35.343  -7.206  1.00  0.00     0.067 A 
HETATM    6  C9  UNL     1      22.422 -36.064  -6.908  1.00  0.00     0.035 A 
HETATM    7  C16 UNL     1      22.738 -36.196  -5.547  1.00  0.00     0.031 A 
HETATM    8  C17 UNL     1      21.952 -35.620  -4.572  1.00  0.00    -0.022 A 
HETATM    9  C18 UNL     1      22.465 -35.893  -3.215  1.00  0.00     0.118 C 
HETATM   10  C19 UNL     1      22.661 -34.698  -2.376  1.00  0.00     0.097 C 
HETATM   11  N6  UNL     1      21.775 -33.838  -2.020  1.00  0.00    -0.256 N 
ATOM     12  H6  UNL     1      22.105 -33.071  -1.433  1.00  0.00     0.181 HD
HETATM   13  S2  UNL     1      20.093 -33.822  -2.412  1.00  0.00     0.326 S 
HETATM   14  O6  UNL     1      19.327 -34.837  -1.631  1.00  0.00    -0.182 OA
HETATM   15  O7  UNL     1      19.579 -32.436  -2.176  1.00  0.00    -0.182 OA
ENDROOT
BRANCH   6  16
HETATM   16  C10 UNL     1      23.269 -36.668  -7.895  1.00  0.00    -0.059 C 
HETATM   17  C11 UNL     1      23.957 -37.201  -8.740  1.00  0.00    -0.043 C 
BRANCH  17  18
HETATM   18  C12 UNL     1      24.772 -37.851  -9.775  1.00  0.00     0.094 A 
HETATM   19  C13 UNL     1      26.034 -38.318  -9.491  1.00  0.00     0.090 A 
HETATM   20  S1  UNL     1      26.512 -38.958 -11.003  1.00  0.00    -0.084 SA
HETATM   21  C14 UNL     1      25.100 -38.596 -11.890  1.00  0.00     0.075 A 
HETATM   22  N4  UNL     1      24.339 -38.006 -10.985  1.00  0.00    -0.345 N 
ATOM     23  H4  UNL     1      23.409 -37.674 -11.240  1.00  0.00     0.167 HD
BRANCH  21  24
HETATM   24  C15 UNL     1      24.813 -38.884 -13.336  1.00  0.00     0.229 C 
BRANCH  24  25
HETATM   25  O3  UNL     1      23.539 -38.380 -13.647  1.00  0.00    -0.394 OA
ATOM     26  H3  UNL     1      23.426 -37.548 -13.202  1.00  0.00     0.209 HD
ENDBRANCH  24  25
ENDBRANCH  21  24
ENDBRANCH  17  18
ENDBRANCH   6  16
BRANCH   5  27
HETATM   27  C5  UNL     1      20.902 -35.169  -8.631  1.00  0.00     0.330 C 
HETATM   28  O1  UNL     1      20.634 -33.947  -8.969  1.00  0.00    -0.251 OA
HETATM   29  N2  UNL     1      20.816 -36.156  -9.491  1.00  0.00    -0.339 NA
BRANCH  29  30
HETATM   30  C6  UNL     1      20.719 -37.065 -10.250  1.00  0.00     0.245 A 
HETATM   31  C7  UNL     1      19.893 -38.216 -10.155  1.00  0.00     0.093 A 
HETATM   32  C8  UNL     1      20.138 -38.965 -11.269  1.00  0.00     0.120 A 
HETATM   33  N3  UNL     1      21.045 -38.307 -11.977  1.00  0.00    -0.269 N 
HETATM   34  O2  UNL     1      21.388 -37.212 -11.403  1.00  0.00    -0.205 OA
ATOM     35  H3  UNL     1      21.423 -38.630 -12.868  1.00  0.00     0.194 HD
ENDBRANCH  29  30
ENDBRANCH   5  27
BRANCH  10  36
HETATM   36  N5  UNL     1      23.958 -34.409  -1.876  1.00  0.00    -0.343 N 
ATOM     37  H5  UNL     1      24.175 -34.685  -0.918  1.00  0.00     0.167 HD
BRANCH  36  38
HETATM   38  C20 UNL     1      24.969 -33.762  -2.627  1.00  0.00     0.070 A 
HETATM   39  C21 UNL     1      25.795 -34.473  -3.480  1.00  0.00     0.032 A 
HETATM   40  C22 UNL     1      26.784 -33.863  -4.219  1.00  0.00     0.002 A 
HETATM   41  C23 UNL     1      26.962 -32.484  -4.106  1.00  0.00     0.003 A 
HETATM   42  C24 UNL     1      26.140 -31.797  -3.261  1.00  0.00     0.042 A 
HETATM   43  C25 UNL     1      25.156 -32.420  -2.529  1.00  0.00     0.133 A 
BRANCH  43  44
HETATM   44  O4  UNL     1      24.339 -31.694  -1.681  1.00  0.00    -0.198 OA
BRANCH  44  45
HETATM   45  O5  UNL     1      24.602 -30.444  -1.345  1.00  0.00    -0.245 OA
ATOM     46  H5  UNL     1      25.455 -30.049  -1.482  1.00  0.00     0.254 HD
ENDBRANCH  44  45
ENDBRANCH  43  44
ENDBRANCH  36  38
ENDBRANCH  10  36
TORSDOF 10
ENDMDL
