MODEL 1
REMARK VINA RESULT: -7.435464867      0.000      0.000
REMARK  5 active torsions:
REMARK  status: ('A' for Active; 'I' for Inactive)
REMARK    1  A    between atoms: N5_12  and  N6_14 
REMARK    2  A    between atoms: C6_18  and  N7_19 
REMARK    3  A    between atoms: N7_19  and  C7_21 
REMARK    4  A    between atoms: C7_21  and  C8_22 
REMARK    5  A    between atoms: C8_22  and  N8_23 
ROOT
HETATM    1  C1  UNL     1      -7.232  33.617  17.475  1.00  0.00     0.179 C 
HETATM    2  N1  UNL     1      -8.259  32.656  17.136  1.00  0.00    -0.279 N 
HETATM    3  N2  UNL     1      -8.848  32.485  15.989  1.00  0.00    -0.281 N 
ATOM      4  H2  UNL     1      -8.661  33.020  15.141  1.00  0.00     0.189 HD
HETATM    5  C2  UNL     1      -9.738  31.490  16.102  1.00  0.00     0.139 A 
HETATM    6  N3  UNL     1     -10.610  30.899  15.251  1.00  0.00    -0.337 N 
ATOM      7  H3  UNL     1     -10.645  31.243  14.291  1.00  0.00     0.168 HD
HETATM    8  C3  UNL     1     -11.422  29.900  15.583  1.00  0.00     0.183 A 
HETATM    9  N4  UNL     1     -11.380  29.443  16.843  1.00  0.00    -0.337 N 
ATOM     10  H4  UNL     1     -11.998  28.677  17.111  1.00  0.00     0.168 HD
HETATM   11  C4  UNL     1     -10.542  29.967  17.774  1.00  0.00     0.138 A 
HETATM   12  N5  UNL     1     -10.558  29.481  18.954  1.00  0.00    -0.291 N 
ATOM     13  H5  UNL     1      -9.936  29.862  19.667  1.00  0.00     0.188 HD
HETATM   14  C5  UNL     1      -9.715  30.999  17.397  1.00  0.00     0.100 A 
HETATM   15  C6  UNL     1      -8.761  31.748  18.076  1.00  0.00     0.135 A 
ENDROOT
BRANCH  15  16
HETATM   16  N7  UNL     1      -8.388  31.682  19.242  1.00  0.00    -0.373 N 
ATOM     17  H7  UNL     1      -7.426  31.359  19.150  1.00  0.00     0.161 HD
BRANCH  16  18
HETATM   18  C7  UNL     1      -8.534  31.797  20.573  1.00  0.00     0.148 C 
BRANCH  18  19
HETATM   19  C8  UNL     1      -7.776  33.026  21.125  1.00  0.00     0.249 C 
BRANCH  19  20
HETATM   20  N8  UNL     1      -7.854  32.975  22.572  1.00  0.00    -0.078 N 
ATOM     21  H83 UNL     1      -7.935  33.898  22.999  1.00  0.00     0.274 HD
ATOM     22  H82 UNL     1      -8.738  32.594  22.909  1.00  0.00     0.274 HD
ATOM     23  H81 UNL     1      -7.044  32.452  22.905  1.00  0.00     0.274 HD
ENDBRANCH  19  20
ENDBRANCH  18  19
ENDBRANCH  16  18
ENDBRANCH  15  16
BRANCH  12  24
HETATM   24  N6  UNL     1     -11.416  28.440  19.274  1.00  0.00    -0.344 N 
ATOM     25  H62 UNL     1     -12.419  28.576  19.153  1.00  0.00     0.176 HD
ATOM     26  H61 UNL     1     -11.047  27.555  19.623  1.00  0.00     0.176 HD
ENDBRANCH  12  24
TORSDOF 5
ENDMDL
MODEL 2
REMARK VINA RESULT: -6.983706313      1.274      3.248
REMARK  5 active torsions:
REMARK  status: ('A' for Active; 'I' for Inactive)
REMARK    1  A    between atoms: N5_12  and  N6_14 
REMARK    2  A    between atoms: C6_18  and  N7_19 
REMARK    3  A    between atoms: N7_19  and  C7_21 
REMARK    4  A    between atoms: C7_21  and  C8_22 
REMARK    5  A    between atoms: C8_22  and  N8_23 
ROOT
HETATM    1  C1  UNL     1      -8.514  31.387  20.429  1.00  0.00     0.179 C 
HETATM    2  N1  UNL     1      -9.224  31.057  19.212  1.00  0.00    -0.279 N 
HETATM    3  N2  UNL     1     -10.249  30.268  19.072  1.00  0.00    -0.281 N 
ATOM      4  H2  UNL     1     -10.711  29.757  19.823  1.00  0.00     0.189 HD
HETATM    5  C2  UNL     1     -10.600  30.238  17.779  1.00  0.00     0.139 A 
HETATM    6  N3  UNL     1     -11.567  29.603  17.076  1.00  0.00    -0.337 N 
ATOM      7  H3  UNL     1     -12.207  28.996  17.588  1.00  0.00     0.168 HD
HETATM    8  C3  UNL     1     -11.739  29.720  15.763  1.00  0.00     0.183 A 
HETATM    9  N4  UNL     1     -10.901  30.517  15.083  1.00  0.00    -0.337 N 
ATOM     10  H4  UNL     1     -11.022  30.616  14.076  1.00  0.00     0.168 HD
HETATM   11  C4  UNL     1      -9.898  31.199  15.694  1.00  0.00     0.138 A 
HETATM   12  N5  UNL     1      -9.139  31.938  14.983  1.00  0.00    -0.291 N 
ATOM     13  H5  UNL     1      -8.379  32.457  15.424  1.00  0.00     0.188 HD
HETATM   14  C5  UNL     1      -9.748  31.055  17.054  1.00  0.00     0.100 A 
HETATM   15  C6  UNL     1      -8.853  31.591  17.972  1.00  0.00     0.135 A 
ENDROOT
BRANCH  15  16
HETATM   16  N7  UNL     1      -7.919  32.366  17.804  1.00  0.00    -0.373 N 
ATOM     17  H7  UNL     1      -7.129  31.736  17.663  1.00  0.00     0.161 HD
BRANCH  16  18
HETATM   18  C7  UNL     1      -7.348  33.579  17.702  1.00  0.00     0.148 C 
BRANCH  18  19
HETATM   19  C8  UNL     1      -7.330  34.316  19.062  1.00  0.00     0.249 C 
BRANCH  19  20
HETATM   20  N8  UNL     1      -6.079  33.989  19.720  1.00  0.00    -0.078 N 
ATOM     21  H83 UNL     1      -6.211  33.481  20.594  1.00  0.00     0.274 HD
ATOM     22  H82 UNL     1      -5.548  33.271  19.228  1.00  0.00     0.274 HD
ATOM     23  H81 UNL     1      -5.558  34.858  19.838  1.00  0.00     0.274 HD
ENDBRANCH  19  20
ENDBRANCH  18  19
ENDBRANCH  16  18
ENDBRANCH  15  16
BRANCH  12  24
HETATM   24  N6  UNL     1      -9.340  32.042  13.615  1.00  0.00    -0.344 N 
ATOM     25  H62 UNL     1      -9.574  32.953  13.221  1.00  0.00     0.176 HD
ATOM     26  H61 UNL     1      -9.256  31.221  13.016  1.00  0.00     0.176 HD
ENDBRANCH  12  24
TORSDOF 5
ENDMDL
MODEL 3
REMARK VINA RESULT: -6.806950632      1.448      3.638
REMARK  5 active torsions:
REMARK  status: ('A' for Active; 'I' for Inactive)
REMARK    1  A    between atoms: N5_12  and  N6_14 
REMARK    2  A    between atoms: C6_18  and  N7_19 
REMARK    3  A    between atoms: N7_19  and  C7_21 
REMARK    4  A    between atoms: C7_21  and  C8_22 
REMARK    5  A    between atoms: C8_22  and  N8_23 
ROOT
HETATM    1  C1  UNL     1      -8.861  31.894  20.270  1.00  0.00     0.179 C 
HETATM    2  N1  UNL     1      -9.492  31.380  19.073  1.00  0.00    -0.279 N 
HETATM    3  N2  UNL     1     -10.359  30.414  18.977  1.00  0.00    -0.281 N 
ATOM      4  H2  UNL     1     -10.726  29.867  19.755  1.00  0.00     0.189 HD
HETATM    5  C2  UNL     1     -10.690  30.256  17.689  1.00  0.00     0.139 A 
HETATM    6  N3  UNL     1     -11.524  29.422  17.022  1.00  0.00    -0.337 N 
ATOM      7  H3  UNL     1     -12.048  28.737  17.566  1.00  0.00     0.168 HD
HETATM    8  C3  UNL     1     -11.706  29.439  15.705  1.00  0.00     0.183 A 
HETATM    9  N4  UNL     1     -11.021  30.338  14.983  1.00  0.00    -0.337 N 
ATOM     10  H4  UNL     1     -11.151  30.362  13.972  1.00  0.00     0.168 HD
HETATM   11  C4  UNL     1     -10.159  31.219  15.555  1.00  0.00     0.138 A 
HETATM   12  N5  UNL     1      -9.542  32.045  14.804  1.00  0.00    -0.291 N 
ATOM     13  H5  UNL     1      -8.890  32.714  15.215  1.00  0.00     0.188 HD
HETATM   14  C5  UNL     1      -9.995  31.174  16.919  1.00  0.00     0.100 A 
HETATM   15  C6  UNL     1      -9.216  31.907  17.806  1.00  0.00     0.135 A 
ENDROOT
BRANCH  15  16
HETATM   16  N7  UNL     1      -8.435  32.828  17.596  1.00  0.00    -0.373 N 
ATOM     17  H7  UNL     1      -8.028  32.990  18.517  1.00  0.00     0.161 HD
BRANCH  16  18
HETATM   18  C7  UNL     1      -7.812  33.745  16.836  1.00  0.00     0.148 C 
BRANCH  18  19
HETATM   19  C8  UNL     1      -6.451  33.225  16.317  1.00  0.00     0.249 C 
BRANCH  19  20
HETATM   20  N8  UNL     1      -5.648  32.872  17.472  1.00  0.00    -0.078 N 
ATOM     21  H83 UNL     1      -6.132  33.030  18.356  1.00  0.00     0.274 HD
ATOM     22  H82 UNL     1      -5.516  31.865  17.570  1.00  0.00     0.274 HD
ATOM     23  H81 UNL     1      -4.768  33.383  17.404  1.00  0.00     0.274 HD
ENDBRANCH  19  20
ENDBRANCH  18  19
ENDBRANCH  16  18
ENDBRANCH  15  16
BRANCH  12  24
HETATM   24  N6  UNL     1      -9.749  32.041  13.433  1.00  0.00    -0.344 N 
ATOM     25  H62 UNL     1      -9.759  32.931  12.935  1.00  0.00     0.176 HD
ATOM     26  H61 UNL     1      -9.891  31.163  12.934  1.00  0.00     0.176 HD
ENDBRANCH  12  24
TORSDOF 5
ENDMDL
MODEL 4
REMARK VINA RESULT: -6.788877137      1.355      4.271
REMARK  5 active torsions:
REMARK  status: ('A' for Active; 'I' for Inactive)
REMARK    1  A    between atoms: N5_12  and  N6_14 
REMARK    2  A    between atoms: C6_18  and  N7_19 
REMARK    3  A    between atoms: N7_19  and  C7_21 
REMARK    4  A    between atoms: C7_21  and  C8_22 
REMARK    5  A    between atoms: C8_22  and  N8_23 
ROOT
HETATM    1  C1  UNL     1     -11.669  29.849  15.751  1.00  0.00     0.179 C 
HETATM    2  N1  UNL     1     -10.633  30.696  16.301  1.00  0.00    -0.279 N 
HETATM    3  N2  UNL     1      -9.922  31.594  15.685  1.00  0.00    -0.281 N 
ATOM      4  H2  UNL     1      -9.997  31.834  14.696  1.00  0.00     0.189 HD
HETATM    5  C2  UNL     1      -9.075  32.152  16.559  1.00  0.00     0.139 A 
HETATM    6  N3  UNL     1      -8.126  33.115  16.476  1.00  0.00    -0.337 N 
ATOM      7  H3  UNL     1      -7.973  33.554  15.568  1.00  0.00     0.168 HD
HETATM    8  C3  UNL     1      -7.381  33.525  17.498  1.00  0.00     0.183 A 
HETATM    9  N4  UNL     1      -7.577  32.951  18.694  1.00  0.00    -0.337 N 
ATOM     10  H4  UNL     1      -7.013  33.257  19.486  1.00  0.00     0.168 HD
HETATM   11  C4  UNL     1      -8.504  31.977  18.884  1.00  0.00     0.138 A 
HETATM   12  N5  UNL     1      -8.634  31.476  20.051  1.00  0.00    -0.291 N 
ATOM     13  H5  UNL     1      -9.324  30.743  20.214  1.00  0.00     0.188 HD
HETATM   14  C5  UNL     1      -9.257  31.575  17.806  1.00  0.00     0.100 A 
HETATM   15  C6  UNL     1     -10.264  30.631  17.650  1.00  0.00     0.135 A 
ENDROOT
BRANCH  15  16
HETATM   16  N7  UNL     1     -10.769  29.872  18.469  1.00  0.00    -0.373 N 
ATOM     17  H7  UNL     1     -11.580  30.399  18.791  1.00  0.00     0.161 HD
BRANCH  16  18
HETATM   18  C7  UNL     1     -10.855  28.736  19.183  1.00  0.00     0.148 C 
BRANCH  18  19
HETATM   19  C8  UNL     1      -9.550  27.911  19.101  1.00  0.00     0.249 C 
BRANCH  19  20
HETATM   20  N8  UNL     1      -9.875  26.542  19.454  1.00  0.00    -0.078 N 
ATOM     21  H83 UNL     1     -10.685  26.472  20.069  1.00  0.00     0.274 HD
ATOM     22  H82 UNL     1     -10.256  26.010  18.671  1.00  0.00     0.274 HD
ATOM     23  H81 UNL     1      -9.036  26.119  19.850  1.00  0.00     0.274 HD
ENDBRANCH  19  20
ENDBRANCH  18  19
ENDBRANCH  16  18
ENDBRANCH  15  16
BRANCH  12  24
HETATM   24  N6  UNL     1      -7.844  31.923  21.100  1.00  0.00    -0.344 N 
ATOM     25  H62 UNL     1      -8.282  32.098  22.004  1.00  0.00     0.176 HD
ATOM     26  H61 UNL     1      -6.844  32.072  20.967  1.00  0.00     0.176 HD
ENDBRANCH  12  24
TORSDOF 5
ENDMDL
MODEL 5
REMARK VINA RESULT: -6.731965784      1.645      3.427
REMARK  5 active torsions:
REMARK  status: ('A' for Active; 'I' for Inactive)
REMARK    1  A    between atoms: N5_12  and  N6_14 
REMARK    2  A    between atoms: C6_18  and  N7_19 
REMARK    3  A    between atoms: N7_19  and  C7_21 
REMARK    4  A    between atoms: C7_21  and  C8_22 
REMARK    5  A    between atoms: C8_22  and  N8_23 
ROOT
HETATM    1  C1  UNL     1      -9.482  31.823  13.645  1.00  0.00     0.179 C 
HETATM    2  N1  UNL     1      -9.613  31.179  14.934  1.00  0.00    -0.279 N 
HETATM    3  N2  UNL     1     -10.137  30.018  15.199  1.00  0.00    -0.281 N 
ATOM      4  H2  UNL     1     -10.542  29.379  14.514  1.00  0.00     0.189 HD
HETATM    5  C2  UNL     1     -10.059  29.797  16.518  1.00  0.00     0.139 A 
HETATM    6  N3  UNL     1     -10.437  28.782  17.331  1.00  0.00    -0.337 N 
ATOM      7  H3  UNL     1     -10.888  27.973  16.905  1.00  0.00     0.168 HD
HETATM    8  C3  UNL     1     -10.258  28.771  18.649  1.00  0.00     0.183 A 
HETATM    9  N4  UNL     1      -9.665  29.832  19.216  1.00  0.00    -0.337 N 
ATOM     10  H4  UNL     1      -9.522  29.836  20.226  1.00  0.00     0.168 HD
HETATM   11  C4  UNL     1      -9.249  30.901  18.489  1.00  0.00     0.138 A 
HETATM   12  N5  UNL     1      -8.694  31.876  19.098  1.00  0.00    -0.291 N 
ATOM     13  H5  UNL     1      -8.375  32.688  18.569  1.00  0.00     0.188 HD
HETATM   14  C5  UNL     1      -9.450  30.881  17.129  1.00  0.00     0.100 A 
HETATM   15  C6  UNL     1      -9.157  31.782  16.112  1.00  0.00     0.135 A 
ENDROOT
BRANCH  15  16
HETATM   16  N7  UNL     1      -8.618  32.881  16.162  1.00  0.00    -0.373 N 
ATOM     17  H7  UNL     1      -9.411  33.520  16.110  1.00  0.00     0.161 HD
BRANCH  16  18
HETATM   18  C7  UNL     1      -7.571  33.720  16.247  1.00  0.00     0.148 C 
BRANCH  18  19
HETATM   19  C8  UNL     1      -6.314  33.008  16.798  1.00  0.00     0.249 C 
BRANCH  19  20
HETATM   20  N8  UNL     1      -6.198  33.349  18.203  1.00  0.00    -0.078 N 
ATOM     21  H83 UNL     1      -6.922  32.918  18.778  1.00  0.00     0.274 HD
ATOM     22  H82 UNL     1      -5.394  32.912  18.652  1.00  0.00     0.274 HD
ATOM     23  H81 UNL     1      -6.187  34.367  18.272  1.00  0.00     0.274 HD
ENDBRANCH  19  20
ENDBRANCH  18  19
ENDBRANCH  16  18
ENDBRANCH  15  16
BRANCH  12  24
HETATM   24  N6  UNL     1      -8.519  31.838  20.473  1.00  0.00    -0.344 N 
ATOM     25  H62 UNL     1      -7.911  32.531  20.910  1.00  0.00     0.176 HD
ATOM     26  H61 UNL     1      -8.992  31.131  21.035  1.00  0.00     0.176 HD
ENDBRANCH  12  24
TORSDOF 5
ENDMDL
