MODEL 1
REMARK VINA RESULT: -7.970641474      0.000      0.000
REMARK  5 active torsions:
REMARK  status: ('A' for Active; 'I' for Inactive)
REMARK    1  A    between atoms: N2_4  and  O1_6 
REMARK    2  A    between atoms: O1_6  and  C1_7 
REMARK    3  A    between atoms: C1_7  and  C2_9 
REMARK    4  A    between atoms: C3_10  and  C4_11 
REMARK    5  A    between atoms: C5_16  and  N5_17 
ROOT
HETATM    1  C2  UNL     1     -10.244  31.562  16.975  1.00  0.00     0.142 A 
HETATM    2  C3  UNL     1      -9.429  31.751  15.867  1.00  0.00     0.136 A 
HETATM    3  N4  UNL     1      -8.205  32.282  16.065  1.00  0.00    -0.186 N 
ATOM      4  H4  UNL     1      -7.606  32.421  15.252  1.00  0.00     0.184 HD
HETATM    5  C5  UNL     1      -7.727  32.638  17.270  1.00  0.00     0.679 A 
HETATM    6  N6  UNL     1      -8.514  32.455  18.341  1.00  0.00    -0.155 N 
ATOM      7  H6  UNL     1      -8.174  32.717  19.266  1.00  0.00     0.187 HD
HETATM    8  C6  UNL     1      -9.741  31.933  18.211  1.00  0.00     0.278 A 
HETATM    9  O4  UNL     1     -10.453  31.775  19.237  1.00  0.00    -0.266 OA
ENDROOT
BRANCH   1  10
HETATM   10  C1  UNL     1     -11.574  30.990  16.815  1.00  0.00     0.324 C 
HETATM   11  O2  UNL     1     -12.505  31.662  16.301  1.00  0.00    -0.257 OA
BRANCH  10  12
HETATM   12  O1  UNL     1     -11.872  29.698  17.216  1.00  0.00    -0.179 OA
BRANCH  12  13
HETATM   13  N2  UNL     1     -11.834  29.259  18.496  1.00  0.00    -0.205 N 
HETATM   14  N1  UNL     1     -10.907  28.629  19.042  1.00  0.00    -0.325 N 
ATOM     15  H12 UNL     1     -10.102  28.431  18.448  1.00  0.00     0.178 HD
ATOM     16  H11 UNL     1     -10.879  28.298  20.007  1.00  0.00     0.178 HD
ATOM     17  H2  UNL     1     -12.648  29.466  19.075  1.00  0.00     0.216 HD
ENDBRANCH  12  13
ENDBRANCH  10  12
ENDBRANCH   1  10
BRANCH   2  18
HETATM   18  C4  UNL     1      -9.850  31.402  14.524  1.00  0.00     0.283 C 
HETATM   19  N3  UNL     1     -10.265  30.077  14.253  1.00  0.00    -0.056 NA
HETATM   20  O3  UNL     1      -9.832  32.285  13.638  1.00  0.00    -0.269 OA
ENDBRANCH   2  18
BRANCH   5  21
HETATM   21  N5  UNL     1      -6.554  33.145  17.450  1.00  0.00    -0.234 N 
ATOM     22  H52 UNL     1      -6.132  33.675  16.687  1.00  0.00     0.174 HD
ATOM     23  H51 UNL     1      -6.024  33.045  18.316  1.00  0.00     0.174 HD
ENDBRANCH   5  21
TORSDOF 5
ENDMDL
MODEL 2
REMARK VINA RESULT: -7.739318433      1.900      3.308
REMARK  5 active torsions:
REMARK  status: ('A' for Active; 'I' for Inactive)
REMARK    1  A    between atoms: N2_4  and  O1_6 
REMARK    2  A    between atoms: O1_6  and  C1_7 
REMARK    3  A    between atoms: C1_7  and  C2_9 
REMARK    4  A    between atoms: C3_10  and  C4_11 
REMARK    5  A    between atoms: C5_16  and  N5_17 
ROOT
HETATM    1  C2  UNL     1      -9.536  31.233  16.048  1.00  0.00     0.142 A 
HETATM    2  C3  UNL     1      -9.227  30.871  17.351  1.00  0.00     0.136 A 
HETATM    3  N4  UNL     1      -8.283  31.583  17.999  1.00  0.00    -0.186 N 
ATOM      4  H4  UNL     1      -8.055  31.317  18.957  1.00  0.00     0.184 HD
HETATM    5  C5  UNL     1      -7.622  32.622  17.458  1.00  0.00     0.679 A 
HETATM    6  N6  UNL     1      -7.921  32.972  16.198  1.00  0.00    -0.155 N 
ATOM      7  H6  UNL     1      -7.435  33.758  15.765  1.00  0.00     0.187 HD
HETATM    8  C6  UNL     1      -8.850  32.304  15.500  1.00  0.00     0.278 A 
HETATM    9  O4  UNL     1      -9.106  32.660  14.320  1.00  0.00    -0.266 OA
ENDROOT
BRANCH   1  10
HETATM   10  C1  UNL     1     -10.551  30.498  15.305  1.00  0.00     0.324 C 
HETATM   11  O2  UNL     1     -10.224  29.678  14.409  1.00  0.00    -0.257 OA
BRANCH  10  12
HETATM   12  O1  UNL     1     -11.905  30.664  15.548  1.00  0.00    -0.179 OA
BRANCH  12  13
HETATM   13  N2  UNL     1     -12.443  31.694  16.242  1.00  0.00    -0.205 N 
HETATM   14  N1  UNL     1     -13.420  32.392  15.907  1.00  0.00    -0.325 N 
ATOM     15  H12 UNL     1     -13.846  32.149  15.012  1.00  0.00     0.178 HD
ATOM     16  H11 UNL     1     -13.826  33.168  16.430  1.00  0.00     0.178 HD
ATOM     17  H2  UNL     1     -12.004  31.922  17.134  1.00  0.00     0.216 HD
ENDBRANCH  12  13
ENDBRANCH  10  12
ENDBRANCH   1  10
BRANCH   2  18
HETATM   18  C4  UNL     1      -9.880  29.765  18.027  1.00  0.00     0.283 C 
HETATM   19  N3  UNL     1      -9.283  28.483  17.985  1.00  0.00    -0.056 NA
HETATM   20  O3  UNL     1     -10.956  29.977  18.628  1.00  0.00    -0.269 OA
ENDBRANCH   2  18
BRANCH   5  21
HETATM   21  N5  UNL     1      -6.720  33.297  18.086  1.00  0.00    -0.234 N 
ATOM     22  H52 UNL     1      -6.863  34.300  18.211  1.00  0.00     0.174 HD
ATOM     23  H51 UNL     1      -5.869  32.883  18.466  1.00  0.00     0.174 HD
ENDBRANCH   5  21
TORSDOF 5
ENDMDL
MODEL 3
REMARK VINA RESULT: -7.645933050      1.715      3.498
REMARK  5 active torsions:
REMARK  status: ('A' for Active; 'I' for Inactive)
REMARK    1  A    between atoms: N2_4  and  O1_6 
REMARK    2  A    between atoms: O1_6  and  C1_7 
REMARK    3  A    between atoms: C1_7  and  C2_9 
REMARK    4  A    between atoms: C3_10  and  C4_11 
REMARK    5  A    between atoms: C5_16  and  N5_17 
ROOT
HETATM    1  C2  UNL     1      -9.492  31.488  16.903  1.00  0.00     0.142 A 
HETATM    2  C3  UNL     1      -8.605  32.429  16.399  1.00  0.00     0.136 A 
HETATM    3  N4  UNL     1      -8.568  32.611  15.063  1.00  0.00    -0.186 N 
ATOM      4  H4  UNL     1      -7.916  33.302  14.692  1.00  0.00     0.184 HD
HETATM    5  C5  UNL     1      -9.337  31.936  14.191  1.00  0.00     0.679 A 
HETATM    6  N6  UNL     1     -10.194  31.026  14.679  1.00  0.00    -0.155 N 
ATOM      7  H6  UNL     1     -10.789  30.501  14.037  1.00  0.00     0.187 HD
HETATM    8  C6  UNL     1     -10.279  30.798  15.996  1.00  0.00     0.278 A 
HETATM    9  O4  UNL     1     -11.094  29.937  16.419  1.00  0.00    -0.266 OA
ENDROOT
BRANCH   1  10
HETATM   10  C1  UNL     1      -9.573  31.255  18.339  1.00  0.00     0.324 C 
HETATM   11  O2  UNL     1     -10.276  31.997  19.072  1.00  0.00    -0.257 OA
BRANCH  10  12
HETATM   12  O1  UNL     1      -8.887  30.221  18.956  1.00  0.00    -0.179 OA
BRANCH  12  13
HETATM   13  N2  UNL     1      -9.329  28.944  19.038  1.00  0.00    -0.205 N 
HETATM   14  N1  UNL     1     -10.515  28.561  19.029  1.00  0.00    -0.325 N 
ATOM     15  H12 UNL     1     -11.214  29.301  18.952  1.00  0.00     0.178 HD
ATOM     16  H11 UNL     1     -10.848  27.599  19.090  1.00  0.00     0.178 HD
ATOM     17  H2  UNL     1      -8.616  28.218  19.114  1.00  0.00     0.216 HD
ENDBRANCH  12  13
ENDBRANCH  10  12
ENDBRANCH   1  10
BRANCH   2  18
HETATM   18  C4  UNL     1      -7.730  33.209  17.253  1.00  0.00     0.283 C 
HETATM   19  N3  UNL     1      -8.239  34.367  17.888  1.00  0.00    -0.056 NA
HETATM   20  O3  UNL     1      -6.546  32.836  17.404  1.00  0.00    -0.269 OA
ENDBRANCH   2  18
BRANCH   5  21
HETATM   21  N5  UNL     1      -9.294  32.117  12.915  1.00  0.00    -0.234 N 
ATOM     22  H52 UNL     1     -10.157  32.016  12.380  1.00  0.00     0.174 HD
ATOM     23  H51 UNL     1      -8.441  32.357  12.408  1.00  0.00     0.174 HD
ENDBRANCH   5  21
TORSDOF 5
ENDMDL
MODEL 4
REMARK VINA RESULT: -7.472789917      2.120      3.525
REMARK  5 active torsions:
REMARK  status: ('A' for Active; 'I' for Inactive)
REMARK    1  A    between atoms: N2_4  and  O1_6 
REMARK    2  A    between atoms: O1_6  and  C1_7 
REMARK    3  A    between atoms: C1_7  and  C2_9 
REMARK    4  A    between atoms: C3_10  and  C4_11 
REMARK    5  A    between atoms: C5_16  and  N5_17 
ROOT
HETATM    1  C2  UNL     1      -9.683  31.176  17.145  1.00  0.00     0.142 A 
HETATM    2  C3  UNL     1      -9.882  30.611  18.397  1.00  0.00     0.136 A 
HETATM    3  N4  UNL     1      -9.261  31.175  19.452  1.00  0.00    -0.186 N 
ATOM      4  H4  UNL     1      -9.406  30.760  20.372  1.00  0.00     0.184 HD
HETATM    5  C5  UNL     1      -8.460  32.252  19.365  1.00  0.00     0.679 A 
HETATM    6  N6  UNL     1      -8.268  32.799  18.155  1.00  0.00    -0.155 N 
ATOM      7  H6  UNL     1      -7.665  33.617  18.062  1.00  0.00     0.187 HD
HETATM    8  C6  UNL     1      -8.856  32.285  17.066  1.00  0.00     0.278 A 
HETATM    9  O4  UNL     1      -8.654  32.822  15.947  1.00  0.00    -0.266 OA
ENDROOT
BRANCH   1  10
HETATM   10  C1  UNL     1     -10.333  30.605  15.973  1.00  0.00     0.324 C 
HETATM   11  O2  UNL     1      -9.796  29.664  15.334  1.00  0.00    -0.257 OA
BRANCH  10  12
HETATM   12  O1  UNL     1     -11.556  31.066  15.513  1.00  0.00    -0.179 OA
BRANCH  12  13
HETATM   13  N2  UNL     1     -12.459  31.738  16.264  1.00  0.00    -0.205 N 
HETATM   14  N1  UNL     1     -13.469  32.344  15.855  1.00  0.00    -0.325 N 
ATOM     15  H12 UNL     1     -13.614  32.321  14.845  1.00  0.00     0.178 HD
ATOM     16  H11 UNL     1     -14.150  32.850  16.421  1.00  0.00     0.178 HD
ATOM     17  H2  UNL     1     -12.297  31.751  17.271  1.00  0.00     0.216 HD
ENDBRANCH  12  13
ENDBRANCH  10  12
ENDBRANCH   1  10
BRANCH   2  18
HETATM   18  C4  UNL     1     -10.725  29.448  18.600  1.00  0.00     0.283 C 
HETATM   19  N3  UNL     1     -10.127  28.217  18.959  1.00  0.00    -0.056 NA
HETATM   20  O3  UNL     1     -11.961  29.566  18.450  1.00  0.00    -0.269 OA
ENDBRANCH   2  18
BRANCH   5  21
HETATM   21  N5  UNL     1      -7.870  32.785  20.381  1.00  0.00    -0.234 N 
ATOM     22  H52 UNL     1      -7.733  33.796  20.387  1.00  0.00     0.174 HD
ATOM     23  H51 UNL     1      -7.533  32.250  21.181  1.00  0.00     0.174 HD
ENDBRANCH   5  21
TORSDOF 5
ENDMDL
MODEL 5
REMARK VINA RESULT: -7.455729570      1.562      1.883
REMARK  5 active torsions:
REMARK  status: ('A' for Active; 'I' for Inactive)
REMARK    1  A    between atoms: N2_4  and  O1_6 
REMARK    2  A    between atoms: O1_6  and  C1_7 
REMARK    3  A    between atoms: C1_7  and  C2_9 
REMARK    4  A    between atoms: C3_10  and  C4_11 
REMARK    5  A    between atoms: C5_16  and  N5_17 
ROOT
HETATM    1  C2  UNL     1      -9.250  30.999  17.770  1.00  0.00     0.142 A 
HETATM    2  C3  UNL     1      -9.089  32.027  16.851  1.00  0.00     0.136 A 
HETATM    3  N4  UNL     1      -8.504  33.166  17.273  1.00  0.00    -0.186 N 
ATOM      4  H4  UNL     1      -8.385  33.921  16.599  1.00  0.00     0.184 HD
HETATM    5  C5  UNL     1      -8.067  33.366  18.529  1.00  0.00     0.679 A 
HETATM    6  N6  UNL     1      -8.223  32.372  19.417  1.00  0.00    -0.155 N 
ATOM      7  H6  UNL     1      -7.899  32.499  20.376  1.00  0.00     0.187 HD
HETATM    8  C6  UNL     1      -8.798  31.215  19.061  1.00  0.00     0.278 A 
HETATM    9  O4  UNL     1      -8.928  30.304  19.919  1.00  0.00    -0.266 OA
ENDROOT
BRANCH   1  10
HETATM   10  C1  UNL     1      -9.875  29.747  17.364  1.00  0.00     0.324 C 
HETATM   11  O2  UNL     1      -9.209  28.857  16.775  1.00  0.00    -0.257 OA
BRANCH  10  12
HETATM   12  O1  UNL     1     -11.214  29.481  17.605  1.00  0.00    -0.179 OA
BRANCH  12  13
HETATM   13  N2  UNL     1     -11.706  28.987  18.765  1.00  0.00    -0.205 N 
HETATM   14  N1  UNL     1     -11.152  28.165  19.521  1.00  0.00    -0.325 N 
ATOM     15  H12 UNL     1     -10.234  27.841  19.219  1.00  0.00     0.178 HD
ATOM     16  H11 UNL     1     -11.524  27.793  20.396  1.00  0.00     0.178 HD
ATOM     17  H2  UNL     1     -12.626  29.323  19.051  1.00  0.00     0.216 HD
ENDBRANCH  12  13
ENDBRANCH  10  12
ENDBRANCH   1  10
BRANCH   2  18
HETATM   18  C4  UNL     1      -9.527  31.913  15.473  1.00  0.00     0.283 C 
HETATM   19  N3  UNL     1      -8.557  31.848  14.445  1.00  0.00    -0.056 NA
HETATM   20  O3  UNL     1     -10.754  31.878  15.231  1.00  0.00    -0.269 OA
ENDBRANCH   2  18
BRANCH   5  21
HETATM   21  N5  UNL     1      -7.508  34.460  18.923  1.00  0.00    -0.234 N 
ATOM     22  H52 UNL     1      -6.684  34.792  18.421  1.00  0.00     0.174 HD
ATOM     23  H51 UNL     1      -7.846  35.013  19.711  1.00  0.00     0.174 HD
ENDBRANCH   5  21
TORSDOF 5
ENDMDL
