MODEL 1
REMARK VINA RESULT: -7.446917630      0.000      0.000
REMARK  5 active torsions:
REMARK  status: ('A' for Active; 'I' for Inactive)
REMARK    1  A    between atoms: O1_2  and  C2_3 
REMARK    2  A    between atoms: C3_6  and  N2_7 
REMARK    3  A    between atoms: N2_7  and  N3_9 
REMARK    4  A    between atoms: C6_13  and  N4_14 
REMARK    5  A    between atoms: C7_20  and  N6_21 
ROOT
HETATM    1  C2  UNL     1      -8.142  33.144  18.318  1.00  0.00     0.252 A 
HETATM    2  N1  UNL     1      -9.270  32.482  17.991  1.00  0.00    -0.152 N 
ATOM      3  H1  UNL     1      -9.662  32.566  17.053  1.00  0.00     0.188 HD
HETATM    4  C3  UNL     1      -9.880  31.702  18.923  1.00  0.00     0.714 A 
HETATM    5  N5  UNL     1      -9.345  31.609  20.150  1.00  0.00    -0.021 N 
ATOM      6  H5  UNL     1      -9.806  31.023  20.846  1.00  0.00     0.203 HD
HETATM    7  C7  UNL     1      -8.204  32.273  20.497  1.00  0.00     0.693 A 
HETATM    8  N7  UNL     1      -7.626  33.032  19.555  1.00  0.00    -0.154 N 
ATOM      9  H7  UNL     1      -6.772  33.539  19.783  1.00  0.00     0.188 HD
ENDROOT
BRANCH   4  10
HETATM   10  N2  UNL     1     -10.946  31.061  18.658  1.00  0.00    -0.124 N 
ATOM     11  H2  UNL     1     -11.606  30.925  19.424  1.00  0.00     0.206 HD
BRANCH  10  12
HETATM   12  N3  UNL     1     -11.294  30.533  17.433  1.00  0.00    -0.215 N 
HETATM   13  C4  UNL     1     -11.997  31.017  16.312  1.00  0.00     0.244 C 
HETATM   14  O2  UNL     1     -12.898  31.873  16.179  1.00  0.00    -0.271 OA
HETATM   15  C5  UNL     1     -11.197  30.087  15.470  1.00  0.00     0.161 C 
HETATM   16  C6  UNL     1     -11.111  29.284  16.751  1.00  0.00     0.316 C 
BRANCH  16  17
HETATM   17  N4  UNL     1      -9.860  28.611  16.977  1.00  0.00    -0.056 N 
ATOM     18  H43 UNL     1      -9.107  29.297  17.045  1.00  0.00     0.276 HD
ATOM     19  H42 UNL     1      -9.842  28.224  17.920  1.00  0.00     0.276 HD
ATOM     20  H41 UNL     1      -9.607  27.889  16.304  1.00  0.00     0.276 HD
ENDBRANCH  16  17
ENDBRANCH  10  12
ENDBRANCH   4  10
BRANCH   1  21
HETATM   21  O1  UNL     1      -7.462  33.961  17.413  1.00  0.00    -0.326 OA
HETATM   22  C1  UNL     1      -7.547  33.691  16.016  1.00  0.00     0.213 C 
ENDBRANCH   1  21
BRANCH   7  23
HETATM   23  N6  UNL     1      -7.741  32.142  21.690  1.00  0.00    -0.234 N 
ATOM     24  H62 UNL     1      -7.928  32.802  22.445  1.00  0.00     0.174 HD
ATOM     25  H61 UNL     1      -7.153  31.338  21.909  1.00  0.00     0.174 HD
ENDBRANCH   7  23
TORSDOF 5
ENDMDL
MODEL 2
REMARK VINA RESULT: -7.315859098      2.176      3.121
REMARK  5 active torsions:
REMARK  status: ('A' for Active; 'I' for Inactive)
REMARK    1  A    between atoms: O1_2  and  C2_3 
REMARK    2  A    between atoms: C3_6  and  N2_7 
REMARK    3  A    between atoms: N2_7  and  N3_9 
REMARK    4  A    between atoms: C6_13  and  N4_14 
REMARK    5  A    between atoms: C7_20  and  N6_21 
ROOT
HETATM    1  C2  UNL     1      -7.779  33.591  19.955  1.00  0.00     0.252 A 
HETATM    2  N1  UNL     1      -8.768  32.679  19.861  1.00  0.00    -0.152 N 
ATOM      3  H1  UNL     1      -9.454  32.585  20.610  1.00  0.00     0.188 HD
HETATM    4  C3  UNL     1      -8.840  31.885  18.758  1.00  0.00     0.714 A 
HETATM    5  N5  UNL     1      -7.926  32.027  17.787  1.00  0.00    -0.021 N 
ATOM      6  H5  UNL     1      -7.984  31.429  16.963  1.00  0.00     0.203 HD
HETATM    7  C7  UNL     1      -6.919  32.945  17.868  1.00  0.00     0.693 A 
HETATM    8  N7  UNL     1      -6.875  33.712  18.966  1.00  0.00    -0.154 N 
ATOM      9  H7  UNL     1      -6.136  34.408  19.055  1.00  0.00     0.188 HD
ENDROOT
BRANCH   4  10
HETATM   10  N2  UNL     1      -9.757  31.011  18.629  1.00  0.00    -0.124 N 
ATOM     11  H2  UNL     1     -10.157  30.632  19.487  1.00  0.00     0.206 HD
BRANCH  10  12
HETATM   12  N3  UNL     1     -10.258  30.529  17.440  1.00  0.00    -0.215 N 
HETATM   13  C4  UNL     1     -10.096  29.333  16.711  1.00  0.00     0.244 C 
HETATM   14  O2  UNL     1      -9.161  28.507  16.631  1.00  0.00    -0.271 OA
HETATM   15  C5  UNL     1     -11.460  29.544  16.156  1.00  0.00     0.161 C 
HETATM   16  C6  UNL     1     -11.150  31.002  16.420  1.00  0.00     0.316 C 
BRANCH  16  17
HETATM   17  N4  UNL     1     -12.260  31.800  16.865  1.00  0.00    -0.056 N 
ATOM     18  H43 UNL     1     -12.041  32.224  17.766  1.00  0.00     0.276 HD
ATOM     19  H42 UNL     1     -12.341  32.634  16.284  1.00  0.00     0.276 HD
ATOM     20  H41 UNL     1     -13.163  31.329  16.918  1.00  0.00     0.276 HD
ENDBRANCH  16  17
ENDBRANCH  10  12
ENDBRANCH   4  10
BRANCH   1  21
HETATM   21  O1  UNL     1      -7.643  34.439  21.055  1.00  0.00    -0.326 OA
HETATM   22  C1  UNL     1      -6.426  34.444  21.797  1.00  0.00     0.213 C 
ENDBRANCH   1  21
BRANCH   7  23
HETATM   23  N6  UNL     1      -6.072  33.032  16.903  1.00  0.00    -0.234 N 
ATOM     24  H62 UNL     1      -6.161  32.520  16.025  1.00  0.00     0.174 HD
ATOM     25  H61 UNL     1      -5.262  33.642  17.007  1.00  0.00     0.174 HD
ENDBRANCH   7  23
TORSDOF 5
ENDMDL
MODEL 3
REMARK VINA RESULT: -7.308107223      1.783      4.882
REMARK  5 active torsions:
REMARK  status: ('A' for Active; 'I' for Inactive)
REMARK    1  A    between atoms: O1_2  and  C2_3 
REMARK    2  A    between atoms: C3_6  and  N2_7 
REMARK    3  A    between atoms: N2_7  and  N3_9 
REMARK    4  A    between atoms: C6_13  and  N4_14 
REMARK    5  A    between atoms: C7_20  and  N6_21 
ROOT
HETATM    1  C2  UNL     1      -9.598  30.367  16.671  1.00  0.00     0.252 A 
HETATM    2  N1  UNL     1      -9.505  31.383  17.553  1.00  0.00    -0.152 N 
ATOM      3  H1  UNL     1      -9.413  32.344  17.223  1.00  0.00     0.188 HD
HETATM    4  C3  UNL     1      -9.533  31.113  18.886  1.00  0.00     0.714 A 
HETATM    5  N5  UNL     1      -9.653  29.841  19.295  1.00  0.00    -0.021 N 
ATOM      6  H5  UNL     1      -9.673  29.644  20.295  1.00  0.00     0.203 HD
HETATM    7  C7  UNL     1      -9.748  28.802  18.415  1.00  0.00     0.693 A 
HETATM    8  N7  UNL     1      -9.718  29.101  17.108  1.00  0.00    -0.154 N 
ATOM      9  H7  UNL     1      -9.789  28.347  16.426  1.00  0.00     0.188 HD
ENDROOT
BRANCH   4  10
HETATM   10  N2  UNL     1      -9.447  32.041  19.753  1.00  0.00    -0.124 N 
ATOM     11  H2  UNL     1     -10.284  32.237  20.303  1.00  0.00     0.206 HD
BRANCH  10  12
HETATM   12  N3  UNL     1      -8.333  32.806  20.018  1.00  0.00    -0.215 N 
HETATM   13  C4  UNL     1      -7.606  33.776  19.299  1.00  0.00     0.244 C 
HETATM   14  O2  UNL     1      -7.426  33.969  18.076  1.00  0.00    -0.271 OA
HETATM   15  C5  UNL     1      -7.213  34.378  20.602  1.00  0.00     0.161 C 
HETATM   16  C6  UNL     1      -7.420  32.968  21.113  1.00  0.00     0.316 C 
BRANCH  16  17
HETATM   17  N4  UNL     1      -7.983  32.865  22.433  1.00  0.00    -0.056 N 
ATOM     18  H43 UNL     1      -8.450  33.738  22.678  1.00  0.00     0.276 HD
ATOM     19  H42 UNL     1      -8.779  32.228  22.419  1.00  0.00     0.276 HD
ATOM     20  H41 UNL     1      -7.342  32.597  23.178  1.00  0.00     0.276 HD
ENDBRANCH  16  17
ENDBRANCH  10  12
ENDBRANCH   4  10
BRANCH   1  21
HETATM   21  O1  UNL     1      -9.577  30.569  15.290  1.00  0.00    -0.326 OA
HETATM   22  C1  UNL     1      -9.260  31.857  14.769  1.00  0.00     0.213 C 
ENDBRANCH   1  21
BRANCH   7  23
HETATM   23  N6  UNL     1      -9.861  27.604  18.870  1.00  0.00    -0.234 N 
ATOM     24  H62 UNL     1     -10.242  27.383  19.790  1.00  0.00     0.174 HD
ATOM     25  H61 UNL     1      -9.557  26.822  18.290  1.00  0.00     0.174 HD
ENDBRANCH   7  23
TORSDOF 5
ENDMDL
MODEL 4
REMARK VINA RESULT: -7.178323763      1.422      1.830
REMARK  5 active torsions:
REMARK  status: ('A' for Active; 'I' for Inactive)
REMARK    1  A    between atoms: O1_2  and  C2_3 
REMARK    2  A    between atoms: C3_6  and  N2_7 
REMARK    3  A    between atoms: N2_7  and  N3_9 
REMARK    4  A    between atoms: C6_13  and  N4_14 
REMARK    5  A    between atoms: C7_20  and  N6_21 
ROOT
HETATM    1  C2  UNL     1      -7.704  33.101  18.555  1.00  0.00     0.252 A 
HETATM    2  N1  UNL     1      -8.719  32.327  18.121  1.00  0.00    -0.152 N 
ATOM      3  H1  UNL     1      -8.917  32.251  17.123  1.00  0.00     0.188 HD
HETATM    4  C3  UNL     1      -9.477  31.651  19.026  1.00  0.00     0.714 A 
HETATM    5  N5  UNL     1      -9.198  31.768  20.333  1.00  0.00    -0.021 N 
ATOM      6  H5  UNL     1      -9.769  31.260  21.007  1.00  0.00     0.203 HD
HETATM    7  C7  UNL     1      -8.175  32.548  20.788  1.00  0.00     0.693 A 
HETATM    8  N7  UNL     1      -7.446  33.201  19.872  1.00  0.00    -0.154 N 
ATOM      9  H7  UNL     1      -6.673  33.790  20.181  1.00  0.00     0.188 HD
ENDROOT
BRANCH   4  10
HETATM   10  N2  UNL     1     -10.445  30.910  18.659  1.00  0.00    -0.124 N 
ATOM     11  H2  UNL     1     -11.082  30.589  19.388  1.00  0.00     0.206 HD
BRANCH  10  12
HETATM   12  N3  UNL     1     -10.712  30.499  17.371  1.00  0.00    -0.215 N 
HETATM   13  C4  UNL     1     -10.387  29.359  16.610  1.00  0.00     0.244 C 
HETATM   14  O2  UNL     1      -9.427  28.558  16.647  1.00  0.00    -0.271 OA
HETATM   15  C5  UNL     1     -11.636  29.580  15.833  1.00  0.00     0.161 C 
HETATM   16  C6  UNL     1     -11.422  31.023  16.240  1.00  0.00     0.316 C 
BRANCH  16  17
HETATM   17  N4  UNL     1     -12.618  31.768  16.528  1.00  0.00    -0.056 N 
ATOM     18  H43 UNL     1     -13.368  31.472  15.904  1.00  0.00     0.276 HD
ATOM     19  H42 UNL     1     -13.000  31.474  17.427  1.00  0.00     0.276 HD
ATOM     20  H41 UNL     1     -12.534  32.784  16.507  1.00  0.00     0.276 HD
ENDBRANCH  16  17
ENDBRANCH  10  12
ENDBRANCH   4  10
BRANCH   1  21
HETATM   21  O1  UNL     1      -6.886  33.823  17.686  1.00  0.00    -0.326 OA
HETATM   22  C1  UNL     1      -6.881  33.508  16.295  1.00  0.00     0.213 C 
ENDBRANCH   1  21
BRANCH   7  23
HETATM   23  N6  UNL     1      -7.958  32.619  22.054  1.00  0.00    -0.234 N 
ATOM     24  H62 UNL     1      -7.750  31.809  22.639  1.00  0.00     0.174 HD
ATOM     25  H61 UNL     1      -7.993  33.529  22.514  1.00  0.00     0.174 HD
ENDBRANCH   7  23
TORSDOF 5
ENDMDL
MODEL 5
REMARK VINA RESULT: -7.137429028      2.458      5.467
REMARK  5 active torsions:
REMARK  status: ('A' for Active; 'I' for Inactive)
REMARK    1  A    between atoms: O1_2  and  C2_3 
REMARK    2  A    between atoms: C3_6  and  N2_7 
REMARK    3  A    between atoms: N2_7  and  N3_9 
REMARK    4  A    between atoms: C6_13  and  N4_14 
REMARK    5  A    between atoms: C7_20  and  N6_21 
ROOT
HETATM    1  C2  UNL     1      -9.793  29.110  18.570  1.00  0.00     0.252 A 
HETATM    2  N1  UNL     1      -9.136  29.963  19.380  1.00  0.00    -0.152 N 
ATOM      3  H1  UNL     1      -8.372  29.630  19.967  1.00  0.00     0.188 HD
HETATM    4  C3  UNL     1      -9.504  31.273  19.409  1.00  0.00     0.714 A 
HETATM    5  N5  UNL     1     -10.513  31.687  18.628  1.00  0.00    -0.021 N 
ATOM      6  H5  UNL     1     -10.785  32.669  18.653  1.00  0.00     0.203 HD
HETATM    7  C7  UNL     1     -11.188  30.835  17.802  1.00  0.00     0.693 A 
HETATM    8  N7  UNL     1     -10.801  29.552  17.797  1.00  0.00    -0.154 N 
ATOM      9  H7  UNL     1     -11.286  28.891  17.189  1.00  0.00     0.188 HD
ENDROOT
BRANCH   4  10
HETATM   10  N2  UNL     1      -8.911  32.113  20.159  1.00  0.00    -0.124 N 
ATOM     11  H2  UNL     1      -9.070  32.026  21.163  1.00  0.00     0.206 HD
BRANCH  10  12
HETATM   12  N3  UNL     1      -8.076  33.127  19.744  1.00  0.00    -0.215 N 
HETATM   13  C4  UNL     1      -7.362  34.150  20.400  1.00  0.00     0.244 C 
HETATM   14  O2  UNL     1      -7.555  34.770  21.469  1.00  0.00    -0.271 OA
HETATM   15  C5  UNL     1      -6.376  34.109  19.287  1.00  0.00     0.161 C 
HETATM   16  C6  UNL     1      -7.562  33.603  18.492  1.00  0.00     0.316 C 
BRANCH  16  17
HETATM   17  N4  UNL     1      -7.262  32.601  17.505  1.00  0.00    -0.056 N 
ATOM     18  H43 UNL     1      -7.724  31.725  17.751  1.00  0.00     0.276 HD
ATOM     19  H42 UNL     1      -7.740  32.823  16.632  1.00  0.00     0.276 HD
ATOM     20  H41 UNL     1      -6.274  32.428  17.321  1.00  0.00     0.276 HD
ENDBRANCH  16  17
ENDBRANCH  10  12
ENDBRANCH   4  10
BRANCH   1  21
HETATM   21  O1  UNL     1      -9.471  27.754  18.489  1.00  0.00    -0.326 OA
HETATM   22  C1  UNL     1      -9.779  26.888  19.578  1.00  0.00     0.213 C 
ENDBRANCH   1  21
BRANCH   7  23
HETATM   23  N6  UNL     1     -12.148  31.294  17.078  1.00  0.00    -0.234 N 
ATOM     24  H62 UNL     1     -12.280  32.285  16.877  1.00  0.00     0.174 HD
ATOM     25  H61 UNL     1     -12.822  30.643  16.676  1.00  0.00     0.174 HD
ENDBRANCH   7  23
TORSDOF 5
ENDMDL
