MODEL 1
REMARK VINA RESULT: -7.722511447      0.000      0.000
REMARK  3 active torsions:
REMARK  status: ('A' for Active; 'I' for Inactive)
REMARK    1  A    between atoms: C3_3  and  N1_4 
REMARK    2  A    between atoms: N2_6  and  C4_8 
REMARK    3  A    between atoms: N6_20  and  C9_21 
ROOT
HETATM    1  C1  UNL     1      30.296   8.197  27.947  1.00  0.00     0.071 C 
HETATM    2  C2  UNL     1      31.659   7.816  27.516  1.00  0.00     0.037 A 
HETATM    3  C3  UNL     1      32.247   8.173  26.324  1.00  0.00     0.094 A 
HETATM    4  C7  UNL     1      33.492   7.616  26.335  1.00  0.00     0.079 A 
HETATM    5 CL1  UNL     1      34.689   7.752  25.047  1.00  0.00    -0.080 Cl
HETATM    6  C8  UNL     1      33.631   6.948  27.506  1.00  0.00     0.117 A 
HETATM    7  N6  UNL     1      32.500   7.065  28.247  1.00  0.00    -0.352 N 
ENDROOT
BRANCH   3   8
HETATM    8  N1  UNL     1      31.620   8.967  25.325  1.00  0.00    -0.283 N 
HETATM    9  N2  UNL     1      31.366  10.202  25.465  1.00  0.00    -0.130 N 
ATOM     10  H2  UNL     1      31.597  10.714  26.317  1.00  0.00     0.205 HD
ATOM     11  H1  UNL     1      31.361   8.519  24.446  1.00  0.00     0.187 HD
BRANCH   9  12
HETATM   12  C4  UNL     1      30.727  10.831  24.338  1.00  0.00     0.715 A 
HETATM   13  N3  UNL     1      29.424  10.848  24.069  1.00  0.00    -0.128 N 
HETATM   14  N4  UNL     1      29.177  11.510  22.961  1.00  0.00    -0.261 N 
ATOM     15  H3  UNL     1      28.711  10.406  24.649  1.00  0.00     0.205 HD
HETATM   16  C5  UNL     1      30.368  11.926  22.512  1.00  0.00     0.207 A 
ATOM     17  H4  UNL     1      28.265  11.672  22.533  1.00  0.00     0.190 HD
HETATM   18  S1  UNL     1      30.595  12.793  21.159  1.00  0.00    -0.038 SA
HETATM   19  N5  UNL     1      31.345  11.525  23.336  1.00  0.00    -0.158 N 
HETATM   20  C6  UNL     1      32.772  11.730  23.269  1.00  0.00     0.178 C 
ENDBRANCH   9  12
ENDBRANCH   3   8
BRANCH   7  21
HETATM   21  C9  UNL     1      32.280   6.497  29.534  1.00  0.00     0.092 C 
HETATM   22  C10 UNL     1      32.916   7.310  30.666  1.00  0.00     0.053 C 
HETATM   23  C11 UNL     1      32.805   6.439  31.907  1.00  0.00     0.234 C 
HETATM   24  N7  UNL     1      31.672   5.542  31.848  1.00  0.00    -0.075 N 
HETATM   25  C12 UNL     1      31.857   4.500  30.853  1.00  0.00     0.234 C 
ATOM     26  H72 UNL     1      31.464   5.146  32.765  1.00  0.00     0.277 HD
ATOM     27  H71 UNL     1      30.803   6.052  31.693  1.00  0.00     0.277 HD
HETATM   28  C13 UNL     1      32.658   5.044  29.659  1.00  0.00     0.053 C 
ENDBRANCH   7  21
TORSDOF 3
ENDMDL
MODEL 2
REMARK VINA RESULT: -7.700863357      3.607      8.254
REMARK  3 active torsions:
REMARK  status: ('A' for Active; 'I' for Inactive)
REMARK    1  A    between atoms: C3_3  and  N1_4 
REMARK    2  A    between atoms: N2_6  and  C4_8 
REMARK    3  A    between atoms: N6_20  and  C9_21 
ROOT
HETATM    1  C1  UNL     1      33.532   8.974  23.798  1.00  0.00     0.071 C 
HETATM    2  C2  UNL     1      32.405   9.369  24.670  1.00  0.00     0.037 A 
HETATM    3  C3  UNL     1      32.051   8.746  25.846  1.00  0.00     0.094 A 
HETATM    4  C7  UNL     1      30.968   9.426  26.323  1.00  0.00     0.079 A 
HETATM    5 CL1  UNL     1      30.098   9.056  27.811  1.00  0.00    -0.080 Cl
HETATM    6  C8  UNL     1      30.695  10.425  25.448  1.00  0.00     0.117 A 
HETATM    7  N6  UNL     1      31.579  10.399  24.420  1.00  0.00    -0.352 N 
ENDROOT
BRANCH   3   8
HETATM    8  N1  UNL     1      32.725   7.620  26.393  1.00  0.00    -0.283 N 
HETATM    9  N2  UNL     1      33.644   7.705  27.263  1.00  0.00    -0.130 N 
ATOM     10  H2  UNL     1      33.965   8.601  27.632  1.00  0.00     0.205 HD
ATOM     11  H1  UNL     1      32.454   6.692  26.068  1.00  0.00     0.187 HD
BRANCH   9  12
HETATM   12  C4  UNL     1      34.203   6.449  27.692  1.00  0.00     0.715 A 
HETATM   13  N3  UNL     1      34.938   5.614  26.963  1.00  0.00    -0.128 N 
HETATM   14  N4  UNL     1      35.288   4.557  27.660  1.00  0.00    -0.261 N 
ATOM     15  H3  UNL     1      35.196   5.775  25.989  1.00  0.00     0.205 HD
HETATM   16  C5  UNL     1      34.755   4.729  28.876  1.00  0.00     0.207 A 
ATOM     17  H4  UNL     1      35.851   3.768  27.340  1.00  0.00     0.190 HD
HETATM   18  S1  UNL     1      34.904   3.685  30.109  1.00  0.00    -0.038 SA
HETATM   19  N5  UNL     1      34.079   5.885  28.931  1.00  0.00    -0.158 N 
HETATM   20  C6  UNL     1      33.345   6.492  30.015  1.00  0.00     0.178 C 
ENDBRANCH   9  12
ENDBRANCH   3   8
BRANCH   7  21
HETATM   21  C9  UNL     1      31.603  11.295  23.313  1.00  0.00     0.092 C 
HETATM   22  C10 UNL     1      32.710  12.348  23.417  1.00  0.00     0.053 C 
HETATM   23  C11 UNL     1      32.427  13.351  22.310  1.00  0.00     0.234 C 
HETATM   24  N7  UNL     1      31.732  12.751  21.192  1.00  0.00    -0.075 N 
HETATM   25  C12 UNL     1      30.367  12.393  21.532  1.00  0.00     0.234 C 
ATOM     26  H72 UNL     1      31.764  13.354  20.369  1.00  0.00     0.277 HD
ATOM     27  H71 UNL     1      32.245  11.950  20.823  1.00  0.00     0.277 HD
HETATM   28  C13 UNL     1      30.284  11.954  23.002  1.00  0.00     0.053 C 
ENDBRANCH   7  21
TORSDOF 3
ENDMDL
MODEL 3
REMARK VINA RESULT: -7.327822714      4.626      8.208
REMARK  3 active torsions:
REMARK  status: ('A' for Active; 'I' for Inactive)
REMARK    1  A    between atoms: C3_3  and  N1_4 
REMARK    2  A    between atoms: N2_6  and  C4_8 
REMARK    3  A    between atoms: N6_20  and  C9_21 
ROOT
HETATM    1  C1  UNL     1      34.262   8.361  23.234  1.00  0.00     0.071 C 
HETATM    2  C2  UNL     1      33.593   8.339  24.553  1.00  0.00     0.037 A 
HETATM    3  C3  UNL     1      33.865   7.452  25.570  1.00  0.00     0.094 A 
HETATM    4  C7  UNL     1      33.029   7.785  26.596  1.00  0.00     0.079 A 
HETATM    5 CL1  UNL     1      32.948   6.972  28.159  1.00  0.00    -0.080 Cl
HETATM    6  C8  UNL     1      32.286   8.843  26.190  1.00  0.00     0.117 A 
HETATM    7  N6  UNL     1      32.627   9.195  24.925  1.00  0.00    -0.352 N 
ENDROOT
BRANCH   3   8
HETATM    8  N1  UNL     1      34.838   6.418  25.495  1.00  0.00    -0.283 N 
HETATM    9  N2  UNL     1      34.657   5.324  24.880  1.00  0.00    -0.130 N 
ATOM     10  H2  UNL     1      33.787   5.111  24.390  1.00  0.00     0.205 HD
ATOM     11  H1  UNL     1      35.732   6.565  25.963  1.00  0.00     0.187 HD
BRANCH   9  12
HETATM   12  C4  UNL     1      35.764   4.404  24.920  1.00  0.00     0.715 A 
HETATM   13  N3  UNL     1      36.850   4.432  24.152  1.00  0.00    -0.128 N 
HETATM   14  N4  UNL     1      37.667   3.447  24.449  1.00  0.00    -0.261 N 
ATOM     15  H3  UNL     1      37.025   5.128  23.427  1.00  0.00     0.205 HD
HETATM   16  C5  UNL     1      37.076   2.770  25.442  1.00  0.00     0.207 A 
ATOM     17  H4  UNL     1      38.566   3.241  24.012  1.00  0.00     0.190 HD
HETATM   18  S1  UNL     1      37.695   1.454  26.162  1.00  0.00    -0.038 SA
HETATM   19  N5  UNL     1      35.902   3.333  25.758  1.00  0.00    -0.158 N 
HETATM   20  C6  UNL     1      34.921   2.964  26.750  1.00  0.00     0.178 C 
ENDBRANCH   9  12
ENDBRANCH   3   8
BRANCH   7  21
HETATM   21  C9  UNL     1      32.058  10.261  24.170  1.00  0.00     0.092 C 
HETATM   22  C10 UNL     1      32.943  11.510  24.135  1.00  0.00     0.053 C 
HETATM   23  C11 UNL     1      32.084  12.604  23.522  1.00  0.00     0.234 C 
HETATM   24  N7  UNL     1      31.082  12.074  22.623  1.00  0.00    -0.075 N 
HETATM   25  C12 UNL     1      30.049  11.342  23.334  1.00  0.00     0.234 C 
ATOM     26  H72 UNL     1      30.680  12.809  22.040  1.00  0.00     0.277 HD
ATOM     27  H71 UNL     1      31.505  11.503  21.892  1.00  0.00     0.277 HD
HETATM   28  C13 UNL     1      30.649  10.630  24.557  1.00  0.00     0.053 C 
ENDBRANCH   7  21
TORSDOF 3
ENDMDL
MODEL 4
REMARK VINA RESULT: -7.282423985      4.503      8.182
REMARK  3 active torsions:
REMARK  status: ('A' for Active; 'I' for Inactive)
REMARK    1  A    between atoms: C3_3  and  N1_4 
REMARK    2  A    between atoms: N2_6  and  C4_8 
REMARK    3  A    between atoms: N6_20  and  C9_21 
ROOT
HETATM    1  C1  UNL     1      34.682   8.959  23.145  1.00  0.00     0.071 C 
HETATM    2  C2  UNL     1      33.686   8.963  24.239  1.00  0.00     0.037 A 
HETATM    3  C3  UNL     1      33.574   8.000  25.218  1.00  0.00     0.094 A 
HETATM    4  C7  UNL     1      32.537   8.391  26.015  1.00  0.00     0.079 A 
HETATM    5 CL1  UNL     1      31.949   7.523  27.433  1.00  0.00    -0.080 Cl
HETATM    6  C8  UNL     1      32.054   9.554  25.515  1.00  0.00     0.117 A 
HETATM    7  N6  UNL     1      32.758   9.918  24.415  1.00  0.00    -0.352 N 
ENDROOT
BRANCH   3   8
HETATM    8  N1  UNL     1      34.408   6.853  25.316  1.00  0.00    -0.283 N 
HETATM    9  N2  UNL     1      34.335   5.861  24.530  1.00  0.00    -0.130 N 
ATOM     10  H2  UNL     1      33.662   5.819  23.764  1.00  0.00     0.205 HD
ATOM     11  H1  UNL     1      35.105   6.828  26.061  1.00  0.00     0.187 HD
BRANCH   9  12
HETATM   12  C4  UNL     1      35.268   4.796  24.795  1.00  0.00     0.715 A 
HETATM   13  N3  UNL     1      35.344   4.062  25.902  1.00  0.00    -0.128 N 
HETATM   14  N4  UNL     1      36.309   3.174  25.818  1.00  0.00    -0.261 N 
ATOM     15  H3  UNL     1      34.733   4.174  26.710  1.00  0.00     0.205 HD
HETATM   16  C5  UNL     1      36.865   3.354  24.612  1.00  0.00     0.207 A 
ATOM     17  H4  UNL     1      36.579   2.490  26.525  1.00  0.00     0.190 HD
HETATM   18  S1  UNL     1      38.111   2.492  24.029  1.00  0.00    -0.038 SA
HETATM   19  N5  UNL     1      36.247   4.345  23.956  1.00  0.00    -0.158 N 
HETATM   20  C6  UNL     1      36.489   4.894  22.643  1.00  0.00     0.178 C 
ENDBRANCH   9  12
ENDBRANCH   3   8
BRANCH   7  21
HETATM   21  C9  UNL     1      32.536  11.083  23.625  1.00  0.00     0.092 C 
HETATM   22  C10 UNL     1      33.455  12.248  24.004  1.00  0.00     0.053 C 
HETATM   23  C11 UNL     1      32.914  13.456  23.257  1.00  0.00     0.234 C 
HETATM   24  N7  UNL     1      32.238  13.086  22.033  1.00  0.00    -0.075 N 
HETATM   25  C12 UNL     1      30.987  12.397  22.293  1.00  0.00     0.234 C 
ATOM     26  H72 UNL     1      32.097  13.894  21.427  1.00  0.00     0.277 HD
ATOM     27  H71 UNL     1      32.845  12.535  21.426  1.00  0.00     0.277 HD
HETATM   28  C13 UNL     1      31.104  11.546  23.567  1.00  0.00     0.053 C 
ENDBRANCH   7  21
TORSDOF 3
ENDMDL
MODEL 5
REMARK VINA RESULT: -7.229290437      4.991      8.392
REMARK  3 active torsions:
REMARK  status: ('A' for Active; 'I' for Inactive)
REMARK    1  A    between atoms: C3_3  and  N1_4 
REMARK    2  A    between atoms: N2_6  and  C4_8 
REMARK    3  A    between atoms: N6_20  and  C9_21 
ROOT
HETATM    1  C1  UNL     1      34.227   7.394  22.885  1.00  0.00     0.071 C 
HETATM    2  C2  UNL     1      34.041   7.541  24.346  1.00  0.00     0.037 A 
HETATM    3  C3  UNL     1      34.447   6.631  25.296  1.00  0.00     0.094 A 
HETATM    4  C7  UNL     1      34.082   7.157  26.502  1.00  0.00     0.079 A 
HETATM    5 CL1  UNL     1      34.358   6.406  28.074  1.00  0.00    -0.080 Cl
HETATM    6  C8  UNL     1      33.477   8.345  26.263  1.00  0.00     0.117 A 
HETATM    7  N6  UNL     1      33.445   8.594  24.930  1.00  0.00    -0.352 N 
ENDROOT
BRANCH   3   8
HETATM    8  N1  UNL     1      35.110   5.408  25.006  1.00  0.00    -0.283 N 
HETATM    9  N2  UNL     1      35.152   4.423  25.804  1.00  0.00    -0.130 N 
ATOM     10  H2  UNL     1      34.705   4.445  26.722  1.00  0.00     0.205 HD
ATOM     11  H1  UNL     1      35.578   5.317  24.104  1.00  0.00     0.187 HD
BRANCH   9  12
HETATM   12  C4  UNL     1      35.873   3.272  25.325  1.00  0.00     0.715 A 
HETATM   13  N3  UNL     1      37.179   3.048  25.439  1.00  0.00    -0.128 N 
HETATM   14  N4  UNL     1      37.513   1.901  24.893  1.00  0.00    -0.261 N 
ATOM     15  H3  UNL     1      37.836   3.684  25.891  1.00  0.00     0.205 HD
HETATM   16  C5  UNL     1      36.375   1.379  24.416  1.00  0.00     0.207 A 
ATOM     17  H4  UNL     1      38.447   1.492  24.843  1.00  0.00     0.190 HD
HETATM   18  S1  UNL     1      36.261  -0.044  23.644  1.00  0.00    -0.038 SA
HETATM   19  N5  UNL     1      35.345   2.199  24.665  1.00  0.00    -0.158 N 
HETATM   20  C6  UNL     1      33.943   2.067  24.346  1.00  0.00     0.178 C 
ENDBRANCH   9  12
ENDBRANCH   3   8
BRANCH   7  21
HETATM   21  C9  UNL     1      32.888   9.747  24.306  1.00  0.00     0.092 C 
HETATM   22  C10 UNL     1      33.883  10.904  24.185  1.00  0.00     0.053 C 
HETATM   23  C11 UNL     1      33.063  12.106  23.745  1.00  0.00     0.234 C 
HETATM   24  N7  UNL     1      31.893  11.722  22.985  1.00  0.00    -0.075 N 
HETATM   25  C12 UNL     1      30.903  11.059  23.814  1.00  0.00     0.234 C 
ATOM     26  H72 UNL     1      31.491  12.521  22.495  1.00  0.00     0.277 HD
ATOM     27  H71 UNL     1      32.146  11.150  22.180  1.00  0.00     0.277 HD
HETATM   28  C13 UNL     1      31.595  10.231  24.909  1.00  0.00     0.053 C 
ENDBRANCH   7  21
TORSDOF 3
ENDMDL
