MODEL 1
REMARK VINA RESULT: -8.195056338      0.000      0.000
REMARK  5 active torsions:
REMARK  status: ('A' for Active; 'I' for Inactive)
REMARK    1  A    between atoms: N1_2  and  C2_4 
REMARK    2  A    between atoms: C6_14  and  N4_15 
REMARK    3  A    between atoms: N4_15  and  C7_17 
REMARK    4  A    between atoms: C10_20  and  N5_21 
REMARK    5  A    between atoms: N5_21  and  N6_23 
ROOT
HETATM    1  C2  UNL     1      35.887   6.704  21.258  1.00  0.00     0.680 A 
HETATM    2  N2  UNL     1      36.246   5.480  21.668  1.00  0.00    -0.183 N 
ATOM      3  H2  UNL     1      36.747   4.865  21.027  1.00  0.00     0.185 HD
HETATM    4  C3  UNL     1      35.954   5.036  22.932  1.00  0.00     0.123 A 
HETATM    5  S1  UNL     1      36.213   3.604  23.834  1.00  0.00    -0.039 SA
HETATM    6  C4  UNL     1      35.463   4.079  25.293  1.00  0.00     0.148 A 
HETATM    7 CL1  UNL     1      35.263   3.195  26.806  1.00  0.00    -0.056 Cl
HETATM    8  N3  UNL     1      35.056   5.302  25.016  1.00  0.00    -0.336 N 
ATOM      9  H3  UNL     1      34.561   5.847  25.722  1.00  0.00     0.167 HD
HETATM   10  C5  UNL     1      35.286   5.816  23.833  1.00  0.00     0.113 A 
HETATM   11  C6  UNL     1      34.915   7.097  23.393  1.00  0.00     0.147 A 
HETATM   12  N8  UNL     1      35.230   7.464  22.151  1.00  0.00    -0.175 N 
ATOM     13  H8  UNL     1      34.950   8.399  21.854  1.00  0.00     0.186 HD
ENDROOT
BRANCH  11  14
HETATM   14  N4  UNL     1      34.237   7.995  24.237  1.00  0.00    -0.369 N 
ATOM     15  H4  UNL     1      34.622   8.163  25.166  1.00  0.00     0.161 HD
BRANCH  14  16
HETATM   16  C7  UNL     1      33.024   8.695  23.864  1.00  0.00     0.083 C 
HETATM   17  C8  UNL     1      31.897   8.232  24.718  1.00  0.00     0.027 C 
HETATM   18  C9  UNL     1      31.520   9.223  25.818  1.00  0.00     0.029 C 
HETATM   19  C10 UNL     1      31.072  10.467  25.057  1.00  0.00     0.101 C 
HETATM   20  C11 UNL     1      32.268  11.064  24.410  1.00  0.00     0.029 C 
HETATM   21  C12 UNL     1      33.250  10.168  23.791  1.00  0.00     0.027 C 
BRANCH  19  22
HETATM   22  N5  UNL     1      30.155  10.035  24.019  1.00  0.00    -0.318 N 
ATOM     23  H5  UNL     1      30.119   9.063  23.713  1.00  0.00     0.182 HD
BRANCH  22  24
HETATM   24  N6  UNL     1      29.422  10.889  23.523  1.00  0.00    -0.253 N 
HETATM   25  N7  UNL     1      29.096  11.796  22.749  1.00  0.00    -0.331 N 
ATOM     26  H72 UNL     1      29.960  11.861  22.210  1.00  0.00     0.178 HD
ATOM     27  H71 UNL     1      28.488  12.505  22.337  1.00  0.00     0.178 HD
ATOM     28  H6  UNL     1      28.578  10.789  24.088  1.00  0.00     0.207 HD
ENDBRANCH  22  24
ENDBRANCH  19  22
ENDBRANCH  14  16
ENDBRANCH  11  14
BRANCH   1  29
HETATM   29  N1  UNL     1      36.155   7.127  20.077  1.00  0.00    -0.230 N 
HETATM   30  C1  UNL     1      36.113   6.318  18.898  1.00  0.00     0.165 C 
ATOM     31  H1  UNL     1      36.417   8.107  19.972  1.00  0.00     0.177 HD
ENDBRANCH   1  29
TORSDOF 5
ENDMDL
MODEL 2
REMARK VINA RESULT: -7.741409230      1.735      1.973
REMARK  5 active torsions:
REMARK  status: ('A' for Active; 'I' for Inactive)
REMARK    1  A    between atoms: N1_2  and  C2_4 
REMARK    2  A    between atoms: C6_14  and  N4_15 
REMARK    3  A    between atoms: N4_15  and  C7_17 
REMARK    4  A    between atoms: C10_20  and  N5_21 
REMARK    5  A    between atoms: N5_21  and  N6_23 
ROOT
HETATM    1  C2  UNL     1      35.470   5.338  20.181  1.00  0.00     0.680 A 
HETATM    2  N2  UNL     1      36.393   4.393  20.407  1.00  0.00    -0.183 N 
ATOM      3  H2  UNL     1      36.703   3.804  19.635  1.00  0.00     0.185 HD
HETATM    4  C3  UNL     1      36.928   4.202  21.655  1.00  0.00     0.123 A 
HETATM    5  S1  UNL     1      38.082   3.153  22.360  1.00  0.00    -0.039 SA
HETATM    6  C4  UNL     1      38.017   3.740  23.963  1.00  0.00     0.148 A 
HETATM    7 CL1  UNL     1      38.903   3.224  25.398  1.00  0.00    -0.056 Cl
HETATM    8  N3  UNL     1      37.120   4.704  23.875  1.00  0.00    -0.336 N 
ATOM      9  H3  UNL     1      36.871   5.245  24.702  1.00  0.00     0.167 HD
HETATM   10  C5  UNL     1      36.550   4.963  22.724  1.00  0.00     0.113 A 
HETATM   11  C6  UNL     1      35.583   5.950  22.476  1.00  0.00     0.147 A 
HETATM   12  N8  UNL     1      35.104   6.081  21.239  1.00  0.00    -0.175 N 
ATOM     13  H8  UNL     1      34.403   6.805  21.083  1.00  0.00     0.186 HD
ENDROOT
BRANCH  11  14
HETATM   14  N4  UNL     1      35.127   6.804  23.496  1.00  0.00    -0.369 N 
ATOM     15  H4  UNL     1      35.666   6.849  24.361  1.00  0.00     0.161 HD
BRANCH  14  16
HETATM   16  C7  UNL     1      33.937   7.624  23.392  1.00  0.00     0.083 C 
HETATM   17  C8  UNL     1      32.891   7.105  24.314  1.00  0.00     0.027 C 
HETATM   18  C9  UNL     1      32.731   7.938  25.585  1.00  0.00     0.029 C 
HETATM   19  C10 UNL     1      32.292   9.308  25.075  1.00  0.00     0.101 C 
HETATM   20  C11 UNL     1      33.442   9.924  24.366  1.00  0.00     0.029 C 
HETATM   21  C12 UNL     1      34.267   9.075  23.500  1.00  0.00     0.027 C 
BRANCH  19  22
HETATM   22  N5  UNL     1      31.223   9.094  24.117  1.00  0.00    -0.318 N 
ATOM     23  H5  UNL     1      31.301   8.390  23.384  1.00  0.00     0.182 HD
BRANCH  22  24
HETATM   24  N6  UNL     1      30.219   9.796  24.227  1.00  0.00    -0.253 N 
HETATM   25  N7  UNL     1      29.369  10.625  23.883  1.00  0.00    -0.331 N 
ATOM     26  H72 UNL     1      29.734  10.848  22.957  1.00  0.00     0.178 HD
ATOM     27  H71 UNL     1      28.536  11.207  23.974  1.00  0.00     0.178 HD
ATOM     28  H6  UNL     1      29.891   9.542  25.159  1.00  0.00     0.207 HD
ENDBRANCH  22  24
ENDBRANCH  19  22
ENDBRANCH  14  16
ENDBRANCH  11  14
BRANCH   1  29
HETATM   29  N1  UNL     1      34.963   5.523  19.017  1.00  0.00    -0.230 N 
HETATM   30  C1  UNL     1      35.712   5.910  17.860  1.00  0.00     0.165 C 
ATOM     31  H1  UNL     1      33.958   5.386  18.908  1.00  0.00     0.177 HD
ENDBRANCH   1  29
TORSDOF 5
ENDMDL
MODEL 3
REMARK VINA RESULT: -7.659323221      2.858      6.405
REMARK  5 active torsions:
REMARK  status: ('A' for Active; 'I' for Inactive)
REMARK    1  A    between atoms: N1_2  and  C2_4 
REMARK    2  A    between atoms: C6_14  and  N4_15 
REMARK    3  A    between atoms: N4_15  and  C7_17 
REMARK    4  A    between atoms: C10_20  and  N5_21 
REMARK    5  A    between atoms: N5_21  and  N6_23 
ROOT
HETATM    1  C2  UNL     1      31.153  11.067  24.280  1.00  0.00     0.680 A 
HETATM    2  N2  UNL     1      30.472  10.730  25.384  1.00  0.00    -0.183 N 
ATOM      3  H2  UNL     1      29.634  11.253  25.632  1.00  0.00     0.185 HD
HETATM    4  C3  UNL     1      30.880   9.695  26.185  1.00  0.00     0.123 A 
HETATM    5  S1  UNL     1      30.332   8.956  27.629  1.00  0.00    -0.039 SA
HETATM    6  C4  UNL     1      31.544   7.763  27.784  1.00  0.00     0.148 A 
HETATM    7 CL1  UNL     1      31.766   6.524  29.019  1.00  0.00    -0.056 Cl
HETATM    8  N3  UNL     1      32.302   7.991  26.728  1.00  0.00    -0.336 N 
ATOM      9  H3  UNL     1      33.125   7.414  26.557  1.00  0.00     0.167 HD
HETATM   10  C5  UNL     1      31.995   8.959  25.901  1.00  0.00     0.113 A 
HETATM   11  C6  UNL     1      32.701   9.321  24.742  1.00  0.00     0.147 A 
HETATM   12  N8  UNL     1      32.249  10.338  24.008  1.00  0.00    -0.175 N 
ATOM     13  H8  UNL     1      32.778  10.583  23.171  1.00  0.00     0.186 HD
ENDROOT
BRANCH  11  14
HETATM   14  N4  UNL     1      33.856   8.627  24.339  1.00  0.00    -0.369 N 
ATOM     15  H4  UNL     1      34.692   8.711  24.917  1.00  0.00     0.161 HD
BRANCH  14  16
HETATM   16  C7  UNL     1      33.928   7.801  23.151  1.00  0.00     0.083 C 
HETATM   17  C8  UNL     1      35.347   7.442  22.878  1.00  0.00     0.027 C 
HETATM   18  C9  UNL     1      35.699   6.008  23.273  1.00  0.00     0.029 C 
HETATM   19  C10 UNL     1      34.802   5.150  22.386  1.00  0.00     0.101 C 
HETATM   20  C11 UNL     1      33.400   5.329  22.841  1.00  0.00     0.029 C 
HETATM   21  C12 UNL     1      32.951   6.675  23.213  1.00  0.00     0.027 C 
BRANCH  19  22
HETATM   22  N5  UNL     1      34.915   5.659  21.032  1.00  0.00    -0.318 N 
ATOM     23  H5  UNL     1      35.588   6.386  20.792  1.00  0.00     0.182 HD
BRANCH  22  24
HETATM   24  N6  UNL     1      34.166   5.176  20.184  1.00  0.00    -0.253 N 
HETATM   25  N7  UNL     1      33.780   4.873  19.049  1.00  0.00    -0.331 N 
ATOM     26  H72 UNL     1      34.554   5.262  18.511  1.00  0.00     0.178 HD
ATOM     27  H71 UNL     1      33.159   4.472  18.346  1.00  0.00     0.178 HD
ATOM     28  H6  UNL     1      33.413   4.802  20.763  1.00  0.00     0.207 HD
ENDBRANCH  22  24
ENDBRANCH  19  22
ENDBRANCH  14  16
ENDBRANCH  11  14
BRANCH   1  29
HETATM   29  N1  UNL     1      30.779  12.034  23.524  1.00  0.00    -0.230 N 
HETATM   30  C1  UNL     1      29.706  11.955  22.581  1.00  0.00     0.165 C 
ATOM     31  H1  UNL     1      31.281  12.919  23.600  1.00  0.00     0.177 HD
ENDBRANCH   1  29
TORSDOF 5
ENDMDL
MODEL 4
REMARK VINA RESULT: -7.658485160      2.159      3.728
REMARK  5 active torsions:
REMARK  status: ('A' for Active; 'I' for Inactive)
REMARK    1  A    between atoms: N1_2  and  C2_4 
REMARK    2  A    between atoms: C6_14  and  N4_15 
REMARK    3  A    between atoms: N4_15  and  C7_17 
REMARK    4  A    between atoms: C10_20  and  N5_21 
REMARK    5  A    between atoms: N5_21  and  N6_23 
ROOT
HETATM    1  C2  UNL     1      34.727   6.247  26.078  1.00  0.00     0.680 A 
HETATM    2  N2  UNL     1      35.107   5.314  25.196  1.00  0.00    -0.183 N 
ATOM      3  H2  UNL     1      35.279   4.362  25.518  1.00  0.00     0.185 HD
HETATM    4  C3  UNL     1      35.269   5.612  23.867  1.00  0.00     0.123 A 
HETATM    5  S1  UNL     1      35.724   4.760  22.453  1.00  0.00    -0.039 SA
HETATM    6  C4  UNL     1      35.611   6.044  21.332  1.00  0.00     0.148 A 
HETATM    7 CL1  UNL     1      35.911   6.064  19.595  1.00  0.00    -0.056 Cl
HETATM    8  N3  UNL     1      35.233   7.052  22.094  1.00  0.00    -0.336 N 
ATOM      9  H3  UNL     1      35.082   7.973  21.684  1.00  0.00     0.167 HD
HETATM   10  C5  UNL     1      35.052   6.868  23.379  1.00  0.00     0.113 A 
HETATM   11  C6  UNL     1      34.654   7.839  24.312  1.00  0.00     0.147 A 
HETATM   12  N8  UNL     1      34.516   7.481  25.590  1.00  0.00    -0.175 N 
ATOM     13  H8  UNL     1      34.226   8.203  26.249  1.00  0.00     0.186 HD
ENDROOT
BRANCH  11  14
HETATM   14  N4  UNL     1      34.386   9.164  23.925  1.00  0.00    -0.369 N 
ATOM     15  H4  UNL     1      35.170   9.815  23.870  1.00  0.00     0.161 HD
BRANCH  14  16
HETATM   16  C7  UNL     1      33.064   9.660  23.601  1.00  0.00     0.083 C 
HETATM   17  C8  UNL     1      32.041   8.876  24.345  1.00  0.00     0.027 C 
HETATM   18  C9  UNL     1      31.463   9.617  25.550  1.00  0.00     0.029 C 
HETATM   19  C10 UNL     1      30.788  10.843  24.940  1.00  0.00     0.101 C 
HETATM   20  C11 UNL     1      31.850  11.742  24.423  1.00  0.00     0.029 C 
HETATM   21  C12 UNL     1      32.996  11.145  23.729  1.00  0.00     0.027 C 
BRANCH  19  22
HETATM   22  N5  UNL     1      29.985  10.386  23.821  1.00  0.00    -0.318 N 
ATOM     23  H5  UNL     1      29.947   9.400  23.563  1.00  0.00     0.182 HD
BRANCH  22  24
HETATM   24  N6  UNL     1      29.353  11.236  23.196  1.00  0.00    -0.253 N 
HETATM   25  N7  UNL     1      29.107  12.015  22.268  1.00  0.00    -0.331 N 
ATOM     26  H72 UNL     1      29.924  11.828  21.686  1.00  0.00     0.178 HD
ATOM     27  H71 UNL     1      28.582  12.720  21.750  1.00  0.00     0.178 HD
ATOM     28  H6  UNL     1      28.553  11.390  23.811  1.00  0.00     0.207 HD
ENDBRANCH  22  24
ENDBRANCH  19  22
ENDBRANCH  14  16
ENDBRANCH  11  14
BRANCH   1  29
HETATM   29  N1  UNL     1      34.573   5.978  27.323  1.00  0.00    -0.230 N 
HETATM   30  C1  UNL     1      33.864   6.807  28.250  1.00  0.00     0.165 C 
ATOM     31  H1  UNL     1      34.984   5.114  27.677  1.00  0.00     0.177 HD
ENDBRANCH   1  29
TORSDOF 5
ENDMDL
MODEL 5
REMARK VINA RESULT: -7.566773440      2.171      3.597
REMARK  5 active torsions:
REMARK  status: ('A' for Active; 'I' for Inactive)
REMARK    1  A    between atoms: N1_2  and  C2_4 
REMARK    2  A    between atoms: C6_14  and  N4_15 
REMARK    3  A    between atoms: N4_15  and  C7_17 
REMARK    4  A    between atoms: C10_20  and  N5_21 
REMARK    5  A    between atoms: N5_21  and  N6_23 
ROOT
HETATM    1  C2  UNL     1      35.259   4.610  24.984  1.00  0.00     0.680 A 
HETATM    2  N2  UNL     1      35.573   4.024  23.821  1.00  0.00    -0.183 N 
ATOM      3  H2  UNL     1      35.757   3.021  23.800  1.00  0.00     0.185 HD
HETATM    4  C3  UNL     1      35.652   4.744  22.657  1.00  0.00     0.123 A 
HETATM    5  S1  UNL     1      36.008   4.411  21.015  1.00  0.00    -0.039 SA
HETATM    6  C4  UNL     1      35.835   5.991  20.390  1.00  0.00     0.148 A 
HETATM    7 CL1  UNL     1      36.023   6.585  18.740  1.00  0.00    -0.056 Cl
HETATM    8  N3  UNL     1      35.515   6.687  21.464  1.00  0.00    -0.336 N 
ATOM      9  H3  UNL     1      35.346   7.690  21.390  1.00  0.00     0.167 HD
HETATM   10  C5  UNL     1      35.415   6.089  22.625  1.00  0.00     0.113 A 
HETATM   11  C6  UNL     1      35.087   6.693  23.849  1.00  0.00     0.147 A 
HETATM   12  N8  UNL     1      35.027   5.933  24.943  1.00  0.00    -0.175 N 
ATOM     13  H8  UNL     1      34.787   6.394  25.821  1.00  0.00     0.186 HD
ENDROOT
BRANCH  11  14
HETATM   14  N4  UNL     1      34.807   8.068  23.937  1.00  0.00    -0.369 N 
ATOM     15  H4  UNL     1      35.568   8.697  24.196  1.00  0.00     0.161 HD
BRANCH  14  16
HETATM   16  C7  UNL     1      33.502   8.645  23.684  1.00  0.00     0.083 C 
HETATM   17  C8  UNL     1      32.494   8.012  24.577  1.00  0.00     0.027 C 
HETATM   18  C9  UNL     1      32.087   8.893  25.757  1.00  0.00     0.029 C 
HETATM   19  C10 UNL     1      31.454  10.118  25.102  1.00  0.00     0.101 C 
HETATM   20  C11 UNL     1      32.530  10.881  24.420  1.00  0.00     0.029 C 
HETATM   21  C12 UNL     1      33.559  10.136  23.687  1.00  0.00     0.027 C 
BRANCH  19  22
HETATM   22  N5  UNL     1      30.521   9.641  24.099  1.00  0.00    -0.318 N 
ATOM     23  H5  UNL     1      30.580   8.694  23.727  1.00  0.00     0.182 HD
BRANCH  22  24
HETATM   24  N6  UNL     1      29.654  10.426  23.717  1.00  0.00    -0.253 N 
HETATM   25  N7  UNL     1      29.194  11.418  23.140  1.00  0.00    -0.331 N 
ATOM     26  H72 UNL     1      30.063  11.799  22.766  1.00  0.00     0.178 HD
ATOM     27  H71 UNL     1      28.475  12.069  22.823  1.00  0.00     0.178 HD
ATOM     28  H6  UNL     1      28.811  10.009  24.112  1.00  0.00     0.207 HD
ENDBRANCH  22  24
ENDBRANCH  19  22
ENDBRANCH  14  16
ENDBRANCH  11  14
BRANCH   1  29
HETATM   29  N1  UNL     1      35.183   3.944  26.078  1.00  0.00    -0.230 N 
HETATM   30  C1  UNL     1      35.126   2.516  26.154  1.00  0.00     0.165 C 
ATOM     31  H1  UNL     1      35.161   4.467  26.953  1.00  0.00     0.177 HD
ENDBRANCH   1  29
TORSDOF 5
ENDMDL
