MODEL 1
REMARK VINA RESULT: -7.681631431      0.000      0.000
REMARK  6 active torsions:
REMARK  status: ('A' for Active; 'I' for Inactive)
REMARK    1  A    between atoms: N1_6  and  N2_7 
REMARK    2  A    between atoms: N2_7  and  C6_9 
REMARK    3  A    between atoms: C6_9  and  S1_13 
REMARK    4  A    between atoms: S1_13  and  C7_14 
REMARK    5  A    between atoms: C7_14  and  C8_15 
REMARK    6  A    between atoms: C9_17  and  C10_18 
ROOT
HETATM    1  C6  UNL     1      33.879   6.659  22.924  1.00  0.00     0.154 C 
HETATM    2  N3  UNL     1      32.979   6.069  22.252  1.00  0.00    -0.379 N 
ATOM      3  H31 UNL     1      32.043   5.958  22.642  1.00  0.00     0.158 HD
ATOM      4  H32 UNL     1      33.190   5.713  21.319  1.00  0.00     0.158 HD
ENDROOT
BRANCH   1   5
HETATM    5  N2  UNL     1      35.193   6.814  22.376  1.00  0.00    -0.259 N 
ATOM      6  H2  UNL     1      35.493   7.699  21.969  1.00  0.00     0.191 HD
BRANCH   5   7
HETATM    7  N1  UNL     1      36.060   5.701  22.419  1.00  0.00    -0.199 N 
HETATM    8  C4  UNL     1      36.328   4.865  21.430  1.00  0.00     0.050 A 
HETATM    9  C3  UNL     1      37.255   3.928  21.940  1.00  0.00     0.054 A 
HETATM   10  C5  UNL     1      35.813   4.812  20.044  1.00  0.00     0.072 C 
HETATM   11  C2  UNL     1      37.505   4.258  23.250  1.00  0.00     0.026 A 
HETATM   12  C1  UNL     1      38.405   3.573  24.221  1.00  0.00     0.070 C 
HETATM   13  N5  UNL     1      36.750   5.356  23.508  1.00  0.00    -0.284 N 
ATOM     14  H5  UNL     1      36.716   5.846  24.402  1.00  0.00     0.188 HD
ENDBRANCH   5   7
ENDBRANCH   1   5
BRANCH   1  15
HETATM   15  S1  UNL     1      33.514   7.277  24.548  1.00  0.00    -0.086 SA
BRANCH  15  16
HETATM   16  C7  UNL     1      31.742   7.748  24.655  1.00  0.00     0.150 C 
BRANCH  16  17
HETATM   17  C8  UNL     1      31.767   9.256  24.628  1.00  0.00     0.103 A 
HETATM   18  O1  UNL     1      32.433  10.016  23.813  1.00  0.00    -0.297 OA
HETATM   19  C9  UNL     1      32.272  11.285  24.020  1.00  0.00     0.133 A 
HETATM   20  N4  UNL     1      31.431  11.364  25.057  1.00  0.00    -0.328 N 
HETATM   21  C14 UNL     1      31.083  10.127  25.478  1.00  0.00     0.136 A 
ATOM     22  H4  UNL     1      31.099  12.235  25.472  1.00  0.00     0.168 HD
HETATM   23 CL1  UNL     1      30.044   9.625  26.758  1.00  0.00    -0.062 Cl
BRANCH  19  24
HETATM   24  C10 UNL     1      32.931  12.350  23.216  1.00  0.00     0.014 C 
HETATM   25  C11 UNL     1      32.893  13.682  23.967  1.00  0.00     0.023 C 
HETATM   26  C12 UNL     1      32.270  12.572  21.896  1.00  0.00     0.023 C 
HETATM   27  C13 UNL     1      34.393  12.002  23.074  1.00  0.00     0.023 C 
ENDBRANCH  19  24
ENDBRANCH  16  17
ENDBRANCH  15  16
ENDBRANCH   1  15
TORSDOF 6
ENDMDL
MODEL 2
REMARK VINA RESULT: -7.634818986      1.245      1.325
REMARK  6 active torsions:
REMARK  status: ('A' for Active; 'I' for Inactive)
REMARK    1  A    between atoms: N1_6  and  N2_7 
REMARK    2  A    between atoms: N2_7  and  C6_9 
REMARK    3  A    between atoms: C6_9  and  S1_13 
REMARK    4  A    between atoms: S1_13  and  C7_14 
REMARK    5  A    between atoms: C7_14  and  C8_15 
REMARK    6  A    between atoms: C9_17  and  C10_18 
ROOT
HETATM    1  C6  UNL     1      34.444   7.089  24.823  1.00  0.00     0.154 C 
HETATM    2  N3  UNL     1      34.301   7.002  26.081  1.00  0.00    -0.379 N 
ATOM      3  H31 UNL     1      33.365   6.996  26.487  1.00  0.00     0.158 HD
ATOM      4  H32 UNL     1      35.121   6.929  26.683  1.00  0.00     0.158 HD
ENDROOT
BRANCH   1   5
HETATM    5  N2  UNL     1      35.757   7.098  24.253  1.00  0.00    -0.259 N 
ATOM      6  H2  UNL     1      36.375   7.901  24.366  1.00  0.00     0.191 HD
BRANCH   5   7
HETATM    7  N1  UNL     1      36.170   5.958  23.530  1.00  0.00    -0.199 N 
HETATM    8  C4  UNL     1      36.227   5.829  22.215  1.00  0.00     0.050 A 
HETATM    9  C3  UNL     1      36.710   4.526  21.963  1.00  0.00     0.054 A 
HETATM   10  C5  UNL     1      35.869   6.776  21.136  1.00  0.00     0.072 C 
HETATM   11  C2  UNL     1      36.925   3.917  23.176  1.00  0.00     0.026 A 
HETATM   12  C1  UNL     1      37.424   2.539  23.445  1.00  0.00     0.070 C 
HETATM   13  N5  UNL     1      36.581   4.833  24.117  1.00  0.00    -0.284 N 
ATOM     14  H5  UNL     1      36.630   4.683  25.125  1.00  0.00     0.188 HD
ENDBRANCH   5   7
ENDBRANCH   1   5
BRANCH   1  15
HETATM   15  S1  UNL     1      33.017   7.216  23.773  1.00  0.00    -0.086 SA
BRANCH  15  16
HETATM   16  C7  UNL     1      31.564   7.764  24.754  1.00  0.00     0.150 C 
BRANCH  16  17
HETATM   17  C8  UNL     1      31.643   9.270  24.708  1.00  0.00     0.103 A 
HETATM   18  O1  UNL     1      32.324   9.995  23.874  1.00  0.00    -0.297 OA
HETATM   19  C9  UNL     1      32.213  11.272  24.068  1.00  0.00     0.133 A 
HETATM   20  N4  UNL     1      31.391  11.394  25.117  1.00  0.00    -0.328 N 
HETATM   21  C14 UNL     1      31.005  10.175  25.558  1.00  0.00     0.136 A 
ATOM     22  H4  UNL     1      31.098  12.281  25.526  1.00  0.00     0.168 HD
HETATM   23 CL1  UNL     1      29.969   9.727  26.859  1.00  0.00    -0.062 Cl
BRANCH  19  24
HETATM   24  C10 UNL     1      32.897  12.302  23.240  1.00  0.00     0.014 C 
HETATM   25  C11 UNL     1      32.897  13.650  23.965  1.00  0.00     0.023 C 
HETATM   26  C12 UNL     1      32.237  12.516  21.918  1.00  0.00     0.023 C 
HETATM   27  C13 UNL     1      34.349  11.913  23.102  1.00  0.00     0.023 C 
ENDBRANCH  19  24
ENDBRANCH  16  17
ENDBRANCH  15  16
ENDBRANCH   1  15
TORSDOF 6
ENDMDL
MODEL 3
REMARK VINA RESULT: -7.599062938      1.362      1.593
REMARK  6 active torsions:
REMARK  status: ('A' for Active; 'I' for Inactive)
REMARK    1  A    between atoms: N1_6  and  N2_7 
REMARK    2  A    between atoms: N2_7  and  C6_9 
REMARK    3  A    between atoms: C6_9  and  S1_13 
REMARK    4  A    between atoms: S1_13  and  C7_14 
REMARK    5  A    between atoms: C7_14  and  C8_15 
REMARK    6  A    between atoms: C9_17  and  C10_18 
ROOT
HETATM    1  C6  UNL     1      34.353   7.173  24.186  1.00  0.00     0.154 C 
HETATM    2  N3  UNL     1      35.086   8.198  24.038  1.00  0.00    -0.379 N 
ATOM      3  H31 UNL     1      34.720   9.020  23.557  1.00  0.00     0.158 HD
ATOM      4  H32 UNL     1      36.037   8.204  24.408  1.00  0.00     0.158 HD
ENDROOT
BRANCH   1   5
HETATM    5  N2  UNL     1      34.868   6.019  24.860  1.00  0.00    -0.259 N 
ATOM      6  H2  UNL     1      34.725   5.887  25.861  1.00  0.00     0.191 HD
BRANCH   5   7
HETATM    7  N1  UNL     1      35.580   5.072  24.095  1.00  0.00    -0.199 N 
HETATM    8  C4  UNL     1      35.082   4.015  23.475  1.00  0.00     0.050 A 
HETATM    9  C3  UNL     1      36.168   3.380  22.833  1.00  0.00     0.054 A 
HETATM   10  C5  UNL     1      33.697   3.497  23.412  1.00  0.00     0.072 C 
HETATM   11  C2  UNL     1      37.300   4.109  23.107  1.00  0.00     0.026 A 
HETATM   12  C1  UNL     1      38.700   3.847  22.665  1.00  0.00     0.070 C 
HETATM   13  N5  UNL     1      36.896   5.144  23.887  1.00  0.00    -0.284 N 
ATOM     14  H5  UNL     1      37.508   5.870  24.259  1.00  0.00     0.188 HD
ENDBRANCH   5   7
ENDBRANCH   1   5
BRANCH   1  15
HETATM   15  S1  UNL     1      32.699   7.163  23.541  1.00  0.00    -0.086 SA
BRANCH  15  16
HETATM   16  C7  UNL     1      31.524   7.759  24.820  1.00  0.00     0.150 C 
BRANCH  16  17
HETATM   17  C8  UNL     1      31.635   9.261  24.742  1.00  0.00     0.103 A 
HETATM   18  O1  UNL     1      32.361   9.954  23.918  1.00  0.00    -0.297 OA
HETATM   19  C9  UNL     1      32.268  11.237  24.079  1.00  0.00     0.133 A 
HETATM   20  N4  UNL     1      31.411  11.399  25.093  1.00  0.00    -0.328 N 
HETATM   21  C14 UNL     1      30.984  10.199  25.548  1.00  0.00     0.136 A 
ATOM     22  H4  UNL     1      31.121  12.300  25.471  1.00  0.00     0.168 HD
HETATM   23 CL1  UNL     1      29.892   9.801  26.819  1.00  0.00    -0.062 Cl
BRANCH  19  24
HETATM   24  C10 UNL     1      33.003  12.233  23.254  1.00  0.00     0.014 C 
HETATM   25  C11 UNL     1      33.095  13.569  23.995  1.00  0.00     0.023 C 
HETATM   26  C12 UNL     1      32.340  12.504  21.944  1.00  0.00     0.023 C 
HETATM   27  C13 UNL     1      34.426  11.758  23.091  1.00  0.00     0.023 C 
ENDBRANCH  19  24
ENDBRANCH  16  17
ENDBRANCH  15  16
ENDBRANCH   1  15
TORSDOF 6
ENDMDL
MODEL 4
REMARK VINA RESULT: -7.553115867      1.450      1.902
REMARK  6 active torsions:
REMARK  status: ('A' for Active; 'I' for Inactive)
REMARK    1  A    between atoms: N1_6  and  N2_7 
REMARK    2  A    between atoms: N2_7  and  C6_9 
REMARK    3  A    between atoms: C6_9  and  S1_13 
REMARK    4  A    between atoms: S1_13  and  C7_14 
REMARK    5  A    between atoms: C7_14  and  C8_15 
REMARK    6  A    between atoms: C9_17  and  C10_18 
ROOT
HETATM    1  C6  UNL     1      34.282   7.106  25.876  1.00  0.00     0.154 C 
HETATM    2  N3  UNL     1      34.677   6.116  26.565  1.00  0.00    -0.379 N 
ATOM      3  H31 UNL     1      34.199   5.879  27.434  1.00  0.00     0.158 HD
ATOM      4  H32 UNL     1      35.466   5.554  26.245  1.00  0.00     0.158 HD
ENDROOT
BRANCH   1   5
HETATM    5  N2  UNL     1      34.954   7.440  24.656  1.00  0.00    -0.259 N 
ATOM      6  H2  UNL     1      35.167   8.409  24.420  1.00  0.00     0.191 HD
BRANCH   5   7
HETATM    7  N1  UNL     1      35.312   6.384  23.791  1.00  0.00    -0.199 N 
HETATM    8  C4  UNL     1      34.539   5.794  22.895  1.00  0.00     0.050 A 
HETATM    9  C3  UNL     1      35.336   4.812  22.265  1.00  0.00     0.054 A 
HETATM   10  C5  UNL     1      33.118   6.019  22.548  1.00  0.00     0.072 C 
HETATM   11  C2  UNL     1      36.587   4.862  22.832  1.00  0.00     0.026 A 
HETATM   12  C1  UNL     1      37.780   4.025  22.518  1.00  0.00     0.070 C 
HETATM   13  N5  UNL     1      36.532   5.844  23.768  1.00  0.00    -0.284 N 
ATOM     14  H5  UNL     1      37.309   6.127  24.365  1.00  0.00     0.188 HD
ENDBRANCH   5   7
ENDBRANCH   1   5
BRANCH   1  15
HETATM   15  S1  UNL     1      32.910   8.085  26.433  1.00  0.00    -0.086 SA
BRANCH  15  16
HETATM   16  C7  UNL     1      31.600   8.118  25.146  1.00  0.00     0.150 C 
BRANCH  16  17
HETATM   17  C8  UNL     1      31.551   9.563  24.715  1.00  0.00     0.103 A 
HETATM   18  O1  UNL     1      32.475  10.227  24.089  1.00  0.00    -0.297 OA
HETATM   19  C9  UNL     1      32.167  11.463  23.847  1.00  0.00     0.133 A 
HETATM   20  N4  UNL     1      30.941  11.622  24.358  1.00  0.00    -0.328 N 
HETATM   21  C14 UNL     1      30.507  10.468  24.913  1.00  0.00     0.136 A 
ATOM     22  H4  UNL     1      30.409  12.492  24.332  1.00  0.00     0.168 HD
HETATM   23 CL1  UNL     1      29.026  10.090  25.709  1.00  0.00    -0.062 Cl
BRANCH  19  24
HETATM   24  C10 UNL     1      33.062  12.419  23.142  1.00  0.00     0.014 C 
HETATM   25  C11 UNL     1      33.147  13.736  23.918  1.00  0.00     0.023 C 
HETATM   26  C12 UNL     1      32.587  12.752  21.766  1.00  0.00     0.023 C 
HETATM   27  C13 UNL     1      34.461  11.852  23.145  1.00  0.00     0.023 C 
ENDBRANCH  19  24
ENDBRANCH  16  17
ENDBRANCH  15  16
ENDBRANCH   1  15
TORSDOF 6
ENDMDL
MODEL 5
REMARK VINA RESULT: -7.527543720      1.219      1.357
REMARK  6 active torsions:
REMARK  status: ('A' for Active; 'I' for Inactive)
REMARK    1  A    between atoms: N1_6  and  N2_7 
REMARK    2  A    between atoms: N2_7  and  C6_9 
REMARK    3  A    between atoms: C6_9  and  S1_13 
REMARK    4  A    between atoms: S1_13  and  C7_14 
REMARK    5  A    between atoms: C7_14  and  C8_15 
REMARK    6  A    between atoms: C9_17  and  C10_18 
ROOT
HETATM    1  C6  UNL     1      35.139   6.070  22.072  1.00  0.00     0.154 C 
HETATM    2  N3  UNL     1      34.189   5.543  21.416  1.00  0.00    -0.379 N 
ATOM      3  H31 UNL     1      33.222   5.771  21.650  1.00  0.00     0.158 HD
ATOM      4  H32 UNL     1      34.392   4.900  20.651  1.00  0.00     0.158 HD
ENDROOT
BRANCH   1   5
HETATM    5  N2  UNL     1      36.496   5.750  21.744  1.00  0.00    -0.259 N 
ATOM      6  H2  UNL     1      37.027   6.320  21.087  1.00  0.00     0.191 HD
BRANCH   5   7
HETATM    7  N1  UNL     1      37.073   4.620  22.361  1.00  0.00    -0.199 N 
HETATM    8  C4  UNL     1      37.132   3.392  21.875  1.00  0.00     0.050 A 
HETATM    9  C3  UNL     1      37.812   2.613  22.837  1.00  0.00     0.054 A 
HETATM   10  C5  UNL     1      36.614   2.830  20.607  1.00  0.00     0.072 C 
HETATM   11  C2  UNL     1      38.138   3.437  23.888  1.00  0.00     0.026 A 
HETATM   12  C1  UNL     1      38.853   3.091  25.149  1.00  0.00     0.070 C 
HETATM   13  N5  UNL     1      37.666   4.666  23.556  1.00  0.00    -0.284 N 
ATOM     14  H5  UNL     1      37.752   5.501  24.135  1.00  0.00     0.188 HD
ENDBRANCH   5   7
ENDBRANCH   1   5
BRANCH   1  15
HETATM   15  S1  UNL     1      34.785   7.189  23.405  1.00  0.00    -0.086 SA
BRANCH  15  16
HETATM   16  C7  UNL     1      32.976   7.242  23.715  1.00  0.00     0.150 C 
BRANCH  16  17
HETATM   17  C8  UNL     1      32.706   8.692  24.033  1.00  0.00     0.103 A 
HETATM   18  O1  UNL     1      33.134   9.731  23.383  1.00  0.00    -0.297 OA
HETATM   19  C9  UNL     1      32.751  10.864  23.883  1.00  0.00     0.133 A 
HETATM   20  N4  UNL     1      32.011  10.540  24.950  1.00  0.00    -0.328 N 
HETATM   21  C14 UNL     1      31.949   9.197  25.092  1.00  0.00     0.136 A 
ATOM     22  H4  UNL     1      31.558  11.212  25.569  1.00  0.00     0.168 HD
HETATM   23 CL1  UNL     1      31.151   8.226  26.271  1.00  0.00    -0.062 Cl
BRANCH  19  24
HETATM   24  C10 UNL     1      33.113  12.190  23.314  1.00  0.00     0.014 C 
HETATM   25  C11 UNL     1      32.641  13.312  24.241  1.00  0.00     0.023 C 
HETATM   26  C12 UNL     1      32.495  12.436  21.978  1.00  0.00     0.023 C 
HETATM   27  C13 UNL     1      34.619  12.296  23.279  1.00  0.00     0.023 C 
ENDBRANCH  19  24
ENDBRANCH  16  17
ENDBRANCH  15  16
ENDBRANCH   1  15
TORSDOF 6
ENDMDL
