MODEL 1
REMARK VINA RESULT: -8.107016831      0.000      0.000
REMARK  6 active torsions:
REMARK  status: ('A' for Active; 'I' for Inactive)
REMARK    1  A    between atoms: C4_4  and  C5_5 
REMARK    2  A    between atoms: C5_5  and  N1_6 
REMARK    3  A    between atoms: C8_9  and  N2_10 
REMARK    4  A    between atoms: C9_11  and  O1_12 
REMARK    5  A    between atoms: C11_15  and  N3_16 
REMARK    6  A    between atoms: C16_21  and  O2_22 
ROOT
HETATM    1  N1  UNL     1      33.100   5.381  27.786  1.00  0.00    -0.366 N 
HETATM    2  C6  UNL     1      34.092   6.270  27.223  1.00  0.00     0.126 C 
HETATM    3  C7  UNL     1      33.521   7.423  26.468  1.00  0.00     0.046 C 
HETATM    4  C8  UNL     1      32.045   7.534  26.781  1.00  0.00     0.103 C 
HETATM    5  C17 UNL     1      31.401   6.265  26.206  1.00  0.00     0.104 C 
HETATM    6  C18 UNL     1      31.886   5.159  27.078  1.00  0.00     0.106 C 
HETATM    7  N4  UNL     1      31.268   4.032  27.215  1.00  0.00    -0.212 N 
ATOM      8  H4  UNL     1      31.631   3.296  27.821  1.00  0.00     0.201 HD
HETATM    9  F1  UNL     1      30.123   3.871  26.522  1.00  0.00    -0.100 F 
ENDROOT
BRANCH   4  10
HETATM   10  N2  UNL     1      31.440   8.726  26.274  1.00  0.00    -0.301 N 
HETATM   11  C9  UNL     1      30.415   9.380  26.845  1.00  0.00     0.146 A 
HETATM   12  C10 UNL     1      30.106  10.490  26.062  1.00  0.00     0.089 A 
HETATM   13  C11 UNL     1      30.991  10.490  24.979  1.00  0.00     0.086 A 
HETATM   14  C16 UNL     1      31.795   9.379  25.157  1.00  0.00     0.172 A 
BRANCH  11  15
HETATM   15  O1  UNL     1      29.749   9.035  28.020  1.00  0.00    -0.346 OA
ATOM     16  H1  UNL     1      29.343   9.628  28.642  1.00  0.00     0.219 HD
ENDBRANCH  11  15
BRANCH  13  17
HETATM   17  N3  UNL     1      31.047  11.436  23.922  1.00  0.00    -0.377 N 
HETATM   18  C12 UNL     1      30.122  11.625  22.832  1.00  0.00     0.123 C 
HETATM   19  C13 UNL     1      30.882  12.353  21.746  1.00  0.00     0.021 C 
HETATM   20  C14 UNL     1      32.310  12.364  22.248  1.00  0.00     0.021 C 
HETATM   21  C15 UNL     1      32.098  12.420  23.753  1.00  0.00     0.123 C 
ENDBRANCH  13  17
BRANCH  14  22
HETATM   22  O2  UNL     1      32.827   8.970  24.324  1.00  0.00    -0.344 OA
ATOM     23  H2  UNL     1      33.027   9.383  23.492  1.00  0.00     0.219 HD
ENDBRANCH  14  22
ENDBRANCH   4  10
BRANCH   1  24
HETATM   24  C5  UNL     1      33.389   4.759  29.039  1.00  0.00     0.151 C 
BRANCH  24  25
HETATM   25  C4  UNL     1      33.199   5.588  30.226  1.00  0.00    -0.005 C 
HETATM   26  C2  UNL     1      32.234   5.338  31.065  1.00  0.00    -0.090 C 
HETATM   27  C1  UNL     1      31.314   4.209  30.832  1.00  0.00     0.042 C 
HETATM   28  C3  UNL     1      32.048   6.179  32.261  1.00  0.00     0.042 C 
ENDBRANCH  24  25
ENDBRANCH   1  24
TORSDOF 6
ENDMDL
MODEL 2
REMARK VINA RESULT: -8.032864167      2.270      3.407
REMARK  6 active torsions:
REMARK  status: ('A' for Active; 'I' for Inactive)
REMARK    1  A    between atoms: C4_4  and  C5_5 
REMARK    2  A    between atoms: C5_5  and  N1_6 
REMARK    3  A    between atoms: C8_9  and  N2_10 
REMARK    4  A    between atoms: C9_11  and  O1_12 
REMARK    5  A    between atoms: C11_15  and  N3_16 
REMARK    6  A    between atoms: C16_21  and  O2_22 
ROOT
HETATM    1  N1  UNL     1      32.405   4.991  29.263  1.00  0.00    -0.366 N 
HETATM    2  C6  UNL     1      31.448   4.704  28.216  1.00  0.00     0.126 C 
HETATM    3  C7  UNL     1      31.296   5.798  27.212  1.00  0.00     0.046 C 
HETATM    4  C8  UNL     1      32.436   6.779  27.377  1.00  0.00     0.103 C 
HETATM    5  C17 UNL     1      32.240   7.416  28.759  1.00  0.00     0.104 C 
HETATM    6  C18 UNL     1      32.542   6.327  29.730  1.00  0.00     0.106 C 
HETATM    7  N4  UNL     1      32.912   6.539  30.950  1.00  0.00    -0.212 N 
ATOM      8  H4  UNL     1      33.110   5.767  31.587  1.00  0.00     0.201 HD
HETATM    9  F1  UNL     1      33.027   7.823  31.344  1.00  0.00    -0.100 F 
ENDROOT
BRANCH   4  10
HETATM   10  N2  UNL     1      32.505   7.756  26.335  1.00  0.00    -0.301 N 
HETATM   11  C9  UNL     1      33.526   7.904  25.475  1.00  0.00     0.146 A 
HETATM   12  C10 UNL     1      33.229   8.955  24.611  1.00  0.00     0.089 A 
HETATM   13  C11 UNL     1      31.973   9.449  24.978  1.00  0.00     0.086 A 
HETATM   14  C16 UNL     1      31.568   8.673  26.049  1.00  0.00     0.172 A 
BRANCH  11  15
HETATM   15  O1  UNL     1      34.699   7.153  25.429  1.00  0.00    -0.346 OA
ATOM     16  H1  UNL     1      35.201   6.924  24.655  1.00  0.00     0.219 HD
ENDBRANCH  11  15
BRANCH  13  17
HETATM   17  N3  UNL     1      31.267  10.522  24.373  1.00  0.00    -0.377 N 
HETATM   18  C12 UNL     1      29.906  10.550  23.898  1.00  0.00     0.123 C 
HETATM   19  C13 UNL     1      29.823  11.687  22.904  1.00  0.00     0.021 C 
HETATM   20  C14 UNL     1      31.261  12.130  22.737  1.00  0.00     0.021 C 
HETATM   21  C15 UNL     1      31.825  11.835  24.119  1.00  0.00     0.123 C 
ENDBRANCH  13  17
BRANCH  14  22
HETATM   22  O2  UNL     1      30.375   8.796  26.747  1.00  0.00    -0.344 OA
ATOM     23  H2  UNL     1      29.602   9.224  26.397  1.00  0.00     0.219 HD
ENDBRANCH  14  22
ENDBRANCH   4  10
BRANCH   1  24
HETATM   24  C5  UNL     1      33.173   3.906  29.787  1.00  0.00     0.151 C 
BRANCH  24  25
HETATM   25  C4  UNL     1      34.271   3.434  28.948  1.00  0.00    -0.005 C 
HETATM   26  C2  UNL     1      35.432   3.152  29.468  1.00  0.00    -0.090 C 
HETATM   27  C1  UNL     1      35.659   3.304  30.917  1.00  0.00     0.042 C 
HETATM   28  C3  UNL     1      36.536   2.676  28.615  1.00  0.00     0.042 C 
ENDBRANCH  24  25
ENDBRANCH   1  24
TORSDOF 6
ENDMDL
MODEL 3
REMARK VINA RESULT: -7.990366255      1.266      2.164
REMARK  6 active torsions:
REMARK  status: ('A' for Active; 'I' for Inactive)
REMARK    1  A    between atoms: C4_4  and  C5_5 
REMARK    2  A    between atoms: C5_5  and  N1_6 
REMARK    3  A    between atoms: C8_9  and  N2_10 
REMARK    4  A    between atoms: C9_11  and  O1_12 
REMARK    5  A    between atoms: C11_15  and  N3_16 
REMARK    6  A    between atoms: C16_21  and  O2_22 
ROOT
HETATM    1  N1  UNL     1      32.293   5.809  29.315  1.00  0.00    -0.366 N 
HETATM    2  C6  UNL     1      33.506   6.597  29.299  1.00  0.00     0.126 C 
HETATM    3  C7  UNL     1      33.719   7.364  28.037  1.00  0.00     0.046 C 
HETATM    4  C8  UNL     1      32.431   7.371  27.242  1.00  0.00     0.103 C 
HETATM    5  C17 UNL     1      32.185   5.912  26.837  1.00  0.00     0.104 C 
HETATM    6  C18 UNL     1      31.836   5.214  28.106  1.00  0.00     0.106 C 
HETATM    7  N4  UNL     1      31.154   4.117  28.155  1.00  0.00    -0.212 N 
ATOM      8  H4  UNL     1      30.935   3.667  29.044  1.00  0.00     0.201 HD
HETATM    9  F1  UNL     1      30.745   3.594  26.982  1.00  0.00    -0.100 F 
ENDROOT
BRANCH   4  10
HETATM   10  N2  UNL     1      32.460   8.249  26.115  1.00  0.00    -0.301 N 
HETATM   11  C9  UNL     1      33.425   8.283  25.180  1.00  0.00     0.146 A 
HETATM   12  C10 UNL     1      33.103   9.265  24.246  1.00  0.00     0.089 A 
HETATM   13  C11 UNL     1      31.891   9.836  24.648  1.00  0.00     0.086 A 
HETATM   14  C16 UNL     1      31.535   9.172  25.809  1.00  0.00     0.172 A 
BRANCH  11  15
HETATM   15  O1  UNL     1      34.568   7.487  25.126  1.00  0.00    -0.346 OA
ATOM     16  H1  UNL     1      35.332   7.621  24.577  1.00  0.00     0.219 HD
ENDBRANCH  11  15
BRANCH  13  17
HETATM   17  N3  UNL     1      31.180  10.877  23.996  1.00  0.00    -0.377 N 
HETATM   18  C12 UNL     1      29.809  10.889  23.550  1.00  0.00     0.123 C 
HETATM   19  C13 UNL     1      29.712  11.966  22.492  1.00  0.00     0.021 C 
HETATM   20  C14 UNL     1      31.149  12.386  22.269  1.00  0.00     0.021 C 
HETATM   21  C15 UNL     1      31.742  12.169  23.653  1.00  0.00     0.123 C 
ENDBRANCH  13  17
BRANCH  14  22
HETATM   22  O2  UNL     1      30.397   9.402  26.569  1.00  0.00    -0.344 OA
ATOM     23  H2  UNL     1      30.027  10.264  26.716  1.00  0.00     0.219 HD
ENDBRANCH  14  22
ENDBRANCH   4  10
BRANCH   1  24
HETATM   24  C5  UNL     1      31.604   5.660  30.558  1.00  0.00     0.151 C 
BRANCH  24  25
HETATM   25  C4  UNL     1      32.287   6.188  31.736  1.00  0.00    -0.005 C 
HETATM   26  C2  UNL     1      32.124   5.633  32.904  1.00  0.00    -0.090 C 
HETATM   27  C1  UNL     1      31.246   4.458  33.058  1.00  0.00     0.042 C 
HETATM   28  C3  UNL     1      32.816   6.171  34.089  1.00  0.00     0.042 C 
ENDBRANCH  24  25
ENDBRANCH   1  24
TORSDOF 6
ENDMDL
MODEL 4
REMARK VINA RESULT: -7.985817838      2.126      3.083
REMARK  6 active torsions:
REMARK  status: ('A' for Active; 'I' for Inactive)
REMARK    1  A    between atoms: C4_4  and  C5_5 
REMARK    2  A    between atoms: C5_5  and  N1_6 
REMARK    3  A    between atoms: C8_9  and  N2_10 
REMARK    4  A    between atoms: C9_11  and  O1_12 
REMARK    5  A    between atoms: C11_15  and  N3_16 
REMARK    6  A    between atoms: C16_21  and  O2_22 
ROOT
HETATM    1  N1  UNL     1      33.274   5.413  27.996  1.00  0.00    -0.366 N 
HETATM    2  C6  UNL     1      32.355   5.092  26.926  1.00  0.00     0.126 C 
HETATM    3  C7  UNL     1      31.572   6.258  26.423  1.00  0.00     0.046 C 
HETATM    4  C8  UNL     1      32.197   7.533  26.946  1.00  0.00     0.103 C 
HETATM    5  C17 UNL     1      32.007   7.495  28.469  1.00  0.00     0.104 C 
HETATM    6  C18 UNL     1      32.914   6.413  28.942  1.00  0.00     0.106 C 
HETATM    7  N4  UNL     1      33.377   6.344  30.147  1.00  0.00    -0.212 N 
ATOM      8  H4  UNL     1      33.996   5.586  30.436  1.00  0.00     0.201 HD
HETATM    9  F1  UNL     1      33.006   7.314  31.006  1.00  0.00    -0.100 F 
ENDROOT
BRANCH   4  10
HETATM   10  N2  UNL     1      31.653   8.719  26.362  1.00  0.00    -0.301 N 
HETATM   11  C9  UNL     1      30.509   9.315  26.736  1.00  0.00     0.146 A 
HETATM   12  C10 UNL     1      30.313  10.440  25.938  1.00  0.00     0.089 A 
HETATM   13  C11 UNL     1      31.392  10.509  25.051  1.00  0.00     0.086 A 
HETATM   14  C16 UNL     1      32.193   9.423  25.355  1.00  0.00     0.172 A 
BRANCH  11  15
HETATM   15  O1  UNL     1      29.641   8.905  27.747  1.00  0.00    -0.346 OA
ATOM     16  H1  UNL     1      29.571   9.269  28.622  1.00  0.00     0.219 HD
ENDBRANCH  11  15
BRANCH  13  17
HETATM   17  N3  UNL     1      31.614  11.492  24.052  1.00  0.00    -0.377 N 
HETATM   18  C12 UNL     1      30.863  11.736  22.845  1.00  0.00     0.123 C 
HETATM   19  C13 UNL     1      31.783  12.492  21.913  1.00  0.00     0.021 C 
HETATM   20  C14 UNL     1      33.122  12.462  22.620  1.00  0.00     0.021 C 
HETATM   21  C15 UNL     1      32.688  12.466  24.078  1.00  0.00     0.123 C 
ENDBRANCH  13  17
BRANCH  14  22
HETATM   22  O2  UNL     1      33.385   9.081  24.731  1.00  0.00    -0.344 OA
ATOM     23  H2  UNL     1      33.528   8.254  24.287  1.00  0.00     0.219 HD
ENDBRANCH  14  22
ENDBRANCH   4  10
BRANCH   1  24
HETATM   24  C5  UNL     1      34.512   4.702  28.056  1.00  0.00     0.151 C 
BRANCH  24  25
HETATM   25  C4  UNL     1      34.623   3.535  27.186  1.00  0.00    -0.005 C 
HETATM   26  C2  UNL     1      35.543   2.635  27.393  1.00  0.00    -0.090 C 
HETATM   27  C1  UNL     1      36.491   2.779  28.514  1.00  0.00     0.042 C 
HETATM   28  C3  UNL     1      35.650   1.460  26.510  1.00  0.00     0.042 C 
ENDBRANCH  24  25
ENDBRANCH   1  24
TORSDOF 6
ENDMDL
MODEL 5
REMARK VINA RESULT: -7.983606498      2.293      3.325
REMARK  6 active torsions:
REMARK  status: ('A' for Active; 'I' for Inactive)
REMARK    1  A    between atoms: C4_4  and  C5_5 
REMARK    2  A    between atoms: C5_5  and  N1_6 
REMARK    3  A    between atoms: C8_9  and  N2_10 
REMARK    4  A    between atoms: C9_11  and  O1_12 
REMARK    5  A    between atoms: C11_15  and  N3_16 
REMARK    6  A    between atoms: C16_21  and  O2_22 
ROOT
HETATM    1  N1  UNL     1      32.740   4.890  28.958  1.00  0.00    -0.366 N 
HETATM    2  C6  UNL     1      31.770   4.603  27.924  1.00  0.00     0.126 C 
HETATM    3  C7  UNL     1      31.218   5.814  27.251  1.00  0.00     0.046 C 
HETATM    4  C8  UNL     1      32.076   7.009  27.606  1.00  0.00     0.103 C 
HETATM    5  C17 UNL     1      31.892   7.218  29.116  1.00  0.00     0.104 C 
HETATM    6  C18 UNL     1      32.582   6.061  29.751  1.00  0.00     0.106 C 
HETATM    7  N4  UNL     1      33.031   6.073  30.963  1.00  0.00    -0.212 N 
ATOM      8  H4  UNL     1      33.498   5.261  31.365  1.00  0.00     0.201 HD
HETATM    9  F1  UNL     1      32.856   7.206  31.672  1.00  0.00    -0.100 F 
ENDROOT
BRANCH   4  10
HETATM   10  N2  UNL     1      31.761   8.183  26.854  1.00  0.00    -0.301 N 
HETATM   11  C9  UNL     1      30.677   8.955  27.035  1.00  0.00     0.146 A 
HETATM   12  C10 UNL     1      30.719  10.002  26.117  1.00  0.00     0.089 A 
HETATM   13  C11 UNL     1      31.883   9.839  25.360  1.00  0.00     0.086 A 
HETATM   14  C16 UNL     1      32.493   8.700  25.855  1.00  0.00     0.172 A 
BRANCH  11  15
HETATM   15  O1  UNL     1      29.662   8.769  27.972  1.00  0.00    -0.346 OA
ATOM     16  H1  UNL     1      28.904   9.324  28.112  1.00  0.00     0.219 HD
ENDBRANCH  11  15
BRANCH  13  17
HETATM   17  N3  UNL     1      32.339  10.673  24.305  1.00  0.00    -0.377 N 
HETATM   18  C12 UNL     1      33.690  10.895  23.851  1.00  0.00     0.123 C 
HETATM   19  C13 UNL     1      33.681  12.210  23.105  1.00  0.00     0.021 C 
HETATM   20  C14 UNL     1      32.294  12.762  23.358  1.00  0.00     0.021 C 
HETATM   21  C15 UNL     1      31.479  11.482  23.464  1.00  0.00     0.123 C 
ENDBRANCH  13  17
BRANCH  14  22
HETATM   22  O2  UNL     1      33.685   8.147  25.408  1.00  0.00    -0.344 OA
ATOM     23  H2  UNL     1      33.734   7.474  24.739  1.00  0.00     0.219 HD
ENDBRANCH  14  22
ENDBRANCH   4  10
BRANCH   1  24
HETATM   24  C5  UNL     1      33.821   3.974  29.139  1.00  0.00     0.151 C 
BRANCH  24  25
HETATM   25  C4  UNL     1      33.933   2.909  28.146  1.00  0.00    -0.005 C 
HETATM   26  C2  UNL     1      35.100   2.449  27.792  1.00  0.00    -0.090 C 
HETATM   27  C1  UNL     1      36.332   2.996  28.390  1.00  0.00     0.042 C 
HETATM   28  C3  UNL     1      35.205   1.374  26.789  1.00  0.00     0.042 C 
ENDBRANCH  24  25
ENDBRANCH   1  24
TORSDOF 6
ENDMDL
