MODEL 1
REMARK VINA RESULT: -8.702973224      0.000      0.000
REMARK  5 active torsions:
REMARK  status: ('A' for Active; 'I' for Inactive)
REMARK    1  A    between atoms: C2_2  and  N1_11 
REMARK    2  A    between atoms: C3_3  and  C4_4 
REMARK    3  A    between atoms: N1_11  and  C10_13 
REMARK    4  A    between atoms: C11_14  and  S1_15 
REMARK    5  A    between atoms: S1_15  and  C12_16 
ROOT
HETATM    1  C10 UNL     1      33.885   7.194  25.974  1.00  0.00     0.092 A 
HETATM    2  C11 UNL     1      34.539   6.297  25.184  1.00  0.00     0.121 A 
HETATM    3  N4  UNL     1      34.873   5.212  25.960  1.00  0.00    -0.292 N 
ATOM      4  H4  UNL     1      35.369   4.378  25.646  1.00  0.00     0.187 HD
HETATM    5  N5  UNL     1      34.435   5.444  27.184  1.00  0.00    -0.302 N 
ATOM      6  H5  UNL     1      34.541   4.808  27.974  1.00  0.00     0.186 HD
HETATM    7  C15 UNL     1      33.817   6.661  27.234  1.00  0.00     0.051 A 
HETATM    8  C16 UNL     1      33.217   7.207  28.478  1.00  0.00     0.072 C 
ENDROOT
BRANCH   1   9
HETATM    9  N1  UNL     1      33.343   8.474  25.594  1.00  0.00    -0.356 N 
ATOM     10  H1  UNL     1      33.871   9.323  25.798  1.00  0.00     0.166 HD
BRANCH   9  11
HETATM   11  C2  UNL     1      32.104   8.570  24.948  1.00  0.00     0.002 C 
HETATM   12  C1  UNL     1      31.231   7.323  25.022  1.00  0.00     0.068 C 
HETATM   13  C3  UNL     1      31.625   9.584  24.313  1.00  0.00     0.005 C 
BRANCH  13  14
HETATM   14  C4  UNL     1      32.125  10.919  24.023  1.00  0.00     0.044 C 
HETATM   15  C5  UNL     1      33.549  11.064  23.639  1.00  0.00     0.011 C 
HETATM   16  C6  UNL     1      33.982  12.533  23.672  1.00  0.00     0.001 C 
HETATM   17  C7  UNL     1      32.807  13.420  23.368  1.00  0.00     0.003 C 
HETATM   18  C8  UNL     1      31.924  12.754  22.357  1.00  0.00     0.038 C 
HETATM   19  C9  UNL     1      31.222  11.534  22.944  1.00  0.00     0.177 C 
HETATM   20  F1  UNL     1      30.074  11.959  23.557  1.00  0.00    -0.249 F 
ENDBRANCH  13  14
ENDBRANCH   9  11
ENDBRANCH   1   9
BRANCH   2  21
HETATM   21  S1  UNL     1      34.934   6.437  23.450  1.00  0.00    -0.023 SA
BRANCH  21  22
HETATM   22  C12 UNL     1      36.276   5.341  23.047  1.00  0.00     0.209 A 
HETATM   23  N2  UNL     1      36.922   5.232  21.876  1.00  0.00    -0.272 N 
HETATM   24  N3  UNL     1      37.837   4.295  22.048  1.00  0.00    -0.281 N 
ATOM     25  H2  UNL     1      36.743   5.765  21.025  1.00  0.00     0.189 HD
HETATM   26  C13 UNL     1      37.771   3.821  23.301  1.00  0.00     0.137 A 
ATOM     27  H3  UNL     1      38.495   3.980  21.335  1.00  0.00     0.189 HD
HETATM   28  C14 UNL     1      38.618   2.759  23.912  1.00  0.00     0.099 C 
HETATM   29  O1  UNL     1      36.802   4.486  23.889  1.00  0.00    -0.272 OA
ENDBRANCH  21  22
ENDBRANCH   2  21
TORSDOF 5
ENDMDL
MODEL 2
REMARK VINA RESULT: -8.566115602      7.010      9.175
REMARK  5 active torsions:
REMARK  status: ('A' for Active; 'I' for Inactive)
REMARK    1  A    between atoms: C2_2  and  N1_11 
REMARK    2  A    between atoms: C3_3  and  C4_4 
REMARK    3  A    between atoms: N1_11  and  C10_13 
REMARK    4  A    between atoms: C11_14  and  S1_15 
REMARK    5  A    between atoms: S1_15  and  C12_16 
ROOT
HETATM    1  C10 UNL     1      36.350   2.738  19.925  1.00  0.00     0.092 A 
HETATM    2  C11 UNL     1      36.241   2.436  18.601  1.00  0.00     0.121 A 
HETATM    3  N4  UNL     1      35.799   3.561  17.944  1.00  0.00    -0.292 N 
ATOM      4  H4  UNL     1      35.623   3.642  16.943  1.00  0.00     0.187 HD
HETATM    5  N5  UNL     1      35.646   4.516  18.843  1.00  0.00    -0.302 N 
ATOM      6  H5  UNL     1      35.328   5.464  18.642  1.00  0.00     0.186 HD
HETATM    7  C15 UNL     1      35.977   4.047  20.083  1.00  0.00     0.051 A 
HETATM    8  C16 UNL     1      35.908   4.886  21.305  1.00  0.00     0.072 C 
ENDROOT
BRANCH   1   9
HETATM    9  N1  UNL     1      36.782   1.873  20.994  1.00  0.00    -0.356 N 
ATOM     10  H1  UNL     1      37.773   1.655  21.094  1.00  0.00     0.166 HD
BRANCH   9  11
HETATM   11  C2  UNL     1      35.861   1.327  21.897  1.00  0.00     0.002 C 
HETATM   12  C1  UNL     1      34.583   0.778  21.274  1.00  0.00     0.068 C 
HETATM   13  C3  UNL     1      35.977   1.233  23.177  1.00  0.00     0.005 C 
BRANCH  13  14
HETATM   14  C4  UNL     1      37.007   1.624  24.127  1.00  0.00     0.044 C 
HETATM   15  C5  UNL     1      37.388   3.055  24.196  1.00  0.00     0.011 C 
HETATM   16  C6  UNL     1      38.675   3.244  25.004  1.00  0.00     0.001 C 
HETATM   17  C7  UNL     1      38.790   2.165  26.045  1.00  0.00     0.003 C 
HETATM   18  C8  UNL     1      37.428   1.827  26.569  1.00  0.00     0.038 C 
HETATM   19  C9  UNL     1      36.581   1.124  25.515  1.00  0.00     0.177 C 
HETATM   20  F1  UNL     1      36.854  -0.216  25.575  1.00  0.00    -0.249 F 
ENDBRANCH  13  14
ENDBRANCH   9  11
ENDBRANCH   1   9
BRANCH   2  21
HETATM   21  S1  UNL     1      36.583   0.884  17.792  1.00  0.00    -0.023 SA
BRANCH  21  22
HETATM   22  C12 UNL     1      38.221   0.332  18.214  1.00  0.00     0.209 A 
HETATM   23  N2  UNL     1      38.602  -0.904  18.573  1.00  0.00    -0.272 N 
HETATM   24  N3  UNL     1      39.903  -0.838  18.789  1.00  0.00    -0.281 N 
ATOM     25  H2  UNL     1      38.007  -1.728  18.662  1.00  0.00     0.189 HD
HETATM   26  C13 UNL     1      40.336   0.413  18.571  1.00  0.00     0.137 A 
ATOM     27  H3  UNL     1      40.491  -1.620  19.077  1.00  0.00     0.189 HD
HETATM   28  C14 UNL     1      41.729   0.922  18.699  1.00  0.00     0.099 C 
HETATM   29  O1  UNL     1      39.277   1.107  18.218  1.00  0.00    -0.272 OA
ENDBRANCH  21  22
ENDBRANCH   2  21
TORSDOF 5
ENDMDL
MODEL 3
REMARK VINA RESULT: -8.561285708      4.739      8.422
REMARK  5 active torsions:
REMARK  status: ('A' for Active; 'I' for Inactive)
REMARK    1  A    between atoms: C2_2  and  N1_11 
REMARK    2  A    between atoms: C3_3  and  C4_4 
REMARK    3  A    between atoms: N1_11  and  C10_13 
REMARK    4  A    between atoms: C11_14  and  S1_15 
REMARK    5  A    between atoms: S1_15  and  C12_16 
ROOT
HETATM    1  C10 UNL     1      31.363   7.145  26.287  1.00  0.00     0.092 A 
HETATM    2  C11 UNL     1      31.168   8.156  25.394  1.00  0.00     0.121 A 
HETATM    3  N4  UNL     1      31.102   7.605  24.135  1.00  0.00    -0.292 N 
ATOM      4  H4  UNL     1      30.962   8.113  23.263  1.00  0.00     0.187 HD
HETATM    5  N5  UNL     1      31.252   6.299  24.261  1.00  0.00    -0.302 N 
ATOM      6  H5  UNL     1      31.246   5.631  23.490  1.00  0.00     0.186 HD
HETATM    7  C15 UNL     1      31.417   5.974  25.578  1.00  0.00     0.051 A 
HETATM    8  C16 UNL     1      31.609   4.577  26.044  1.00  0.00     0.072 C 
ENDROOT
BRANCH   1   9
HETATM    9  N1  UNL     1      31.488   7.245  27.718  1.00  0.00    -0.356 N 
ATOM     10  H1  UNL     1      30.656   7.410  28.284  1.00  0.00     0.166 HD
BRANCH   9  11
HETATM   11  C2  UNL     1      32.734   7.121  28.344  1.00  0.00     0.002 C 
HETATM   12  C1  UNL     1      33.910   7.723  27.585  1.00  0.00     0.068 C 
HETATM   13  C3  UNL     1      32.993   6.566  29.479  1.00  0.00     0.005 C 
BRANCH  13  14
HETATM   14  C4  UNL     1      32.178   5.896  30.482  1.00  0.00     0.044 C 
HETATM   15  C5  UNL     1      31.910   4.448  30.312  1.00  0.00     0.011 C 
HETATM   16  C6  UNL     1      30.804   3.978  31.261  1.00  0.00     0.001 C 
HETATM   17  C7  UNL     1      30.808   4.817  32.508  1.00  0.00     0.003 C 
HETATM   18  C8  UNL     1      32.217   5.182  32.863  1.00  0.00     0.038 C 
HETATM   19  C9  UNL     1      32.813   6.159  31.854  1.00  0.00     0.177 C 
HETATM   20  F1  UNL     1      32.467   7.427  32.236  1.00  0.00    -0.249 F 
ENDBRANCH  13  14
ENDBRANCH   9  11
ENDBRANCH   1   9
BRANCH   2  21
HETATM   21  S1  UNL     1      31.023   9.904  25.721  1.00  0.00    -0.023 SA
BRANCH  21  22
HETATM   22  C12 UNL     1      30.313  10.723  24.310  1.00  0.00     0.209 A 
HETATM   23  N2  UNL     1      29.012  10.876  24.021  1.00  0.00    -0.272 N 
HETATM   24  N3  UNL     1      28.965  11.546  22.883  1.00  0.00    -0.281 N 
ATOM     25  H2  UNL     1      28.218  10.543  24.569  1.00  0.00     0.189 HD
HETATM   26  C13 UNL     1      30.211  11.810  22.461  1.00  0.00     0.137 A 
ATOM     27  H3  UNL     1      28.111  11.820  22.398  1.00  0.00     0.189 HD
HETATM   28  C14 UNL     1      30.612  12.541  21.227  1.00  0.00     0.099 C 
HETATM   29  O1  UNL     1      31.016  11.291  23.362  1.00  0.00    -0.272 OA
ENDBRANCH  21  22
ENDBRANCH   2  21
TORSDOF 5
ENDMDL
MODEL 4
REMARK VINA RESULT: -8.487318427      3.395      5.240
REMARK  5 active torsions:
REMARK  status: ('A' for Active; 'I' for Inactive)
REMARK    1  A    between atoms: C2_2  and  N1_11 
REMARK    2  A    between atoms: C3_3  and  C4_4 
REMARK    3  A    between atoms: N1_11  and  C10_13 
REMARK    4  A    between atoms: C11_14  and  S1_15 
REMARK    5  A    between atoms: S1_15  and  C12_16 
ROOT
HETATM    1  C10 UNL     1      32.710   7.648  25.230  1.00  0.00     0.092 A 
HETATM    2  C11 UNL     1      32.985   6.696  26.165  1.00  0.00     0.121 A 
HETATM    3  N4  UNL     1      34.326   6.401  26.090  1.00  0.00    -0.292 N 
ATOM      4  H4  UNL     1      34.826   5.725  26.667  1.00  0.00     0.187 HD
HETATM    5  N5  UNL     1      34.849   7.152  25.138  1.00  0.00    -0.302 N 
ATOM      6  H5  UNL     1      35.830   7.146  24.860  1.00  0.00     0.186 HD
HETATM    7  C15 UNL     1      33.881   7.938  24.581  1.00  0.00     0.051 A 
HETATM    8  C16 UNL     1      34.157   8.897  23.480  1.00  0.00     0.072 C 
ENDROOT
BRANCH   1   9
HETATM    9  N1  UNL     1      31.440   8.267  24.948  1.00  0.00    -0.356 N 
ATOM     10  H1  UNL     1      30.836   7.868  24.229  1.00  0.00     0.166 HD
BRANCH   9  11
HETATM   11  C2  UNL     1      31.021   9.406  25.646  1.00  0.00     0.002 C 
HETATM   12  C1  UNL     1      30.516   9.156  27.062  1.00  0.00     0.068 C 
HETATM   13  C3  UNL     1      31.022  10.627  25.232  1.00  0.00     0.005 C 
BRANCH  13  14
HETATM   14  C4  UNL     1      31.412  11.267  23.985  1.00  0.00     0.044 C 
HETATM   15  C5  UNL     1      30.343  11.805  23.110  1.00  0.00     0.011 C 
HETATM   16  C6  UNL     1      30.890  12.157  21.724  1.00  0.00     0.001 C 
HETATM   17  C7  UNL     1      32.338  12.549  21.829  1.00  0.00     0.003 C 
HETATM   18  C8  UNL     1      32.565  13.289  23.111  1.00  0.00     0.038 C 
HETATM   19  C9  UNL     1      32.425  12.370  24.320  1.00  0.00     0.177 C 
HETATM   20  F1  UNL     1      33.636  11.769  24.539  1.00  0.00    -0.249 F 
ENDBRANCH  13  14
ENDBRANCH   9  11
ENDBRANCH   1   9
BRANCH   2  21
HETATM   21  S1  UNL     1      31.860   5.919  27.311  1.00  0.00    -0.023 SA
BRANCH  21  22
HETATM   22  C12 UNL     1      32.331   6.315  28.980  1.00  0.00     0.209 A 
HETATM   23  N2  UNL     1      33.249   7.207  29.383  1.00  0.00    -0.272 N 
HETATM   24  N3  UNL     1      33.254   7.158  30.703  1.00  0.00    -0.281 N 
ATOM     25  H2  UNL     1      33.827   7.802  28.790  1.00  0.00     0.189 HD
HETATM   26  C13 UNL     1      32.358   6.255  31.126  1.00  0.00     0.137 A 
ATOM     27  H3  UNL     1      33.849   7.723  31.309  1.00  0.00     0.189 HD
HETATM   28  C14 UNL     1      32.042   5.885  32.534  1.00  0.00     0.099 C 
HETATM   29  O1  UNL     1      31.807   5.755  30.042  1.00  0.00    -0.272 OA
ENDBRANCH  21  22
ENDBRANCH   2  21
TORSDOF 5
ENDMDL
MODEL 5
REMARK VINA RESULT: -8.455117872      4.044      7.606
REMARK  5 active torsions:
REMARK  status: ('A' for Active; 'I' for Inactive)
REMARK    1  A    between atoms: C2_2  and  N1_11 
REMARK    2  A    between atoms: C3_3  and  C4_4 
REMARK    3  A    between atoms: N1_11  and  C10_13 
REMARK    4  A    between atoms: C11_14  and  S1_15 
REMARK    5  A    between atoms: S1_15  and  C12_16 
ROOT
HETATM    1  C10 UNL     1      32.443   8.526  24.333  1.00  0.00     0.092 A 
HETATM    2  C11 UNL     1      33.012   9.731  24.049  1.00  0.00     0.121 A 
HETATM    3  N4  UNL     1      34.225   9.496  23.444  1.00  0.00    -0.292 N 
ATOM      4  H4  UNL     1      34.881  10.205  23.117  1.00  0.00     0.187 HD
HETATM    5  N5  UNL     1      34.386   8.188  23.362  1.00  0.00    -0.302 N 
ATOM      6  H5  UNL     1      35.197   7.722  22.956  1.00  0.00     0.186 HD
HETATM    7  C15 UNL     1      33.304   7.551  23.901  1.00  0.00     0.051 A 
HETATM    8  C16 UNL     1      33.187   6.072  23.957  1.00  0.00     0.072 C 
ENDROOT
BRANCH   1   9
HETATM    9  N1  UNL     1      31.171   8.277  24.961  1.00  0.00    -0.356 N 
ATOM     10  H1  UNL     1      30.371   8.010  24.386  1.00  0.00     0.166 HD
BRANCH   9  11
HETATM   11  C2  UNL     1      31.014   8.398  26.347  1.00  0.00     0.002 C 
HETATM   12  C1  UNL     1      30.307   9.664  26.816  1.00  0.00     0.068 C 
HETATM   13  C3  UNL     1      31.391   7.566  27.257  1.00  0.00     0.005 C 
BRANCH  13  14
HETATM   14  C4  UNL     1      32.077   6.283  27.226  1.00  0.00     0.044 C 
HETATM   15  C5  UNL     1      33.043   5.980  28.309  1.00  0.00     0.011 C 
HETATM   16  C6  UNL     1      33.889   4.751  27.964  1.00  0.00     0.001 C 
HETATM   17  C7  UNL     1      33.102   3.818  27.086  1.00  0.00     0.003 C 
HETATM   18  C8  UNL     1      31.660   3.846  27.489  1.00  0.00     0.038 C 
HETATM   19  C9  UNL     1      31.010   5.182  27.148  1.00  0.00     0.177 C 
HETATM   20  F1  UNL     1      30.569   5.122  25.853  1.00  0.00    -0.249 F 
ENDBRANCH  13  14
ENDBRANCH   9  11
ENDBRANCH   1   9
BRANCH   2  21
HETATM   21  S1  UNL     1      32.367  11.361  24.381  1.00  0.00    -0.023 SA
BRANCH  21  22
HETATM   22  C12 UNL     1      30.914  11.645  23.395  1.00  0.00     0.209 A 
HETATM   23  N2  UNL     1      29.689  11.126  23.572  1.00  0.00    -0.272 N 
HETATM   24  N3  UNL     1      28.938  11.620  22.604  1.00  0.00    -0.281 N 
ATOM     25  H2  UNL     1      29.397  10.481  24.306  1.00  0.00     0.189 HD
HETATM   26  C13 UNL     1      29.672  12.433  21.831  1.00  0.00     0.137 A 
ATOM     27  H3  UNL     1      27.949  11.413  22.466  1.00  0.00     0.189 HD
HETATM   28  C14 UNL     1      29.220  13.193  20.633  1.00  0.00     0.099 C 
HETATM   29  O1  UNL     1      30.882  12.427  22.345  1.00  0.00    -0.272 OA
ENDBRANCH  21  22
ENDBRANCH   2  21
TORSDOF 5
ENDMDL
