MODEL 1
REMARK VINA RESULT: -6.463396568      0.000      0.000
REMARK  9 active torsions:
REMARK  status: ('A' for Active; 'I' for Inactive)
REMARK    1  A    between atoms: C2_2  and  S1_4 
REMARK    2  A    between atoms: S1_4  and  C3_5 
REMARK    3  A    between atoms: C3_5  and  C4_6 
REMARK    4  A    between atoms: C4_6  and  S3_8 
REMARK    5  A    between atoms: S3_8  and  S4_9 
REMARK    6  A    between atoms: S4_9  and  C5_10 
REMARK    7  A    between atoms: C5_10  and  N2_14 
REMARK    8  A    between atoms: N2_14  and  C6_16 
REMARK    9  A    between atoms: C6_16  and  C7_17 
ROOT
HETATM    1  C5  UNL     1      30.716   9.109  26.761  1.00  0.00     0.145 C 
HETATM    2  N1  UNL     1      29.899   9.963  27.270  1.00  0.00    -0.379 N 
ATOM      3  H11 UNL     1      29.518  10.699  26.676  1.00  0.00     0.158 HD
ATOM      4  H12 UNL     1      29.658   9.876  28.257  1.00  0.00     0.158 HD
ENDROOT
BRANCH   1   5
HETATM    5  S4  UNL     1      31.382   7.821  27.799  1.00  0.00    -0.016 SA
BRANCH   5   6
HETATM    6  S3  UNL     1      33.437   7.473  27.379  1.00  0.00    -0.042 SA
BRANCH   6   7
HETATM    7  C4  UNL     1      33.785   5.748  27.611  1.00  0.00     0.066 C 
HETATM    8  S2  UNL     1      33.629   5.198  28.910  1.00  0.00    -0.076 SA
BRANCH   7   9
HETATM    9  C3  UNL     1      34.219   4.891  26.494  1.00  0.00     0.141 C 
BRANCH   9  10
HETATM   10  S1  UNL     1      33.258   5.156  24.984  1.00  0.00    -0.087 SA
BRANCH  10  11
HETATM   11  C2  UNL     1      31.513   5.215  25.290  1.00  0.00     0.182 C 
HETATM   12  C1  UNL     1      30.836   4.230  26.150  1.00  0.00     0.104 C 
HETATM   13  O1  UNL     1      30.847   6.100  24.775  1.00  0.00    -0.286 OA
ENDBRANCH  10  11
ENDBRANCH   9  10
ENDBRANCH   7   9
ENDBRANCH   6   7
ENDBRANCH   5   6
ENDBRANCH   1   5
BRANCH   1  14
HETATM   14  N2  UNL     1      31.051   9.229  25.394  1.00  0.00    -0.366 N 
ATOM     15  H2  UNL     1      30.666   8.565  24.721  1.00  0.00     0.161 HD
BRANCH  14  16
HETATM   16  C6  UNL     1      31.929  10.279  24.938  1.00  0.00     0.160 C 
BRANCH  16  17
HETATM   17  C7  UNL     1      31.380  11.020  23.776  1.00  0.00    -0.040 A 
HETATM   18  C8  UNL     1      30.019  10.960  23.494  1.00  0.00     0.012 A 
HETATM   19  C9  UNL     1      29.568  11.670  22.406  1.00  0.00     0.043 A 
HETATM   20  C10 UNL     1      30.418  12.414  21.621  1.00  0.00     0.116 A 
HETATM   21  F1  UNL     1      29.977  13.124  20.537  1.00  0.00    -0.206 F 
HETATM   22  C11 UNL     1      31.764  12.451  21.931  1.00  0.00     0.043 A 
HETATM   23  C12 UNL     1      32.262  11.759  23.006  1.00  0.00     0.012 A 
ENDBRANCH  16  17
ENDBRANCH  14  16
ENDBRANCH   1  14
TORSDOF 9
ENDMDL
MODEL 2
REMARK VINA RESULT: -6.460766413      1.523      1.679
REMARK  9 active torsions:
REMARK  status: ('A' for Active; 'I' for Inactive)
REMARK    1  A    between atoms: C2_2  and  S1_4 
REMARK    2  A    between atoms: S1_4  and  C3_5 
REMARK    3  A    between atoms: C3_5  and  C4_6 
REMARK    4  A    between atoms: C4_6  and  S3_8 
REMARK    5  A    between atoms: S3_8  and  S4_9 
REMARK    6  A    between atoms: S4_9  and  C5_10 
REMARK    7  A    between atoms: C5_10  and  N2_14 
REMARK    8  A    between atoms: N2_14  and  C6_16 
REMARK    9  A    between atoms: C6_16  and  C7_17 
ROOT
HETATM    1  C5  UNL     1      30.601   9.046  26.795  1.00  0.00     0.145 C 
HETATM    2  N1  UNL     1      29.899   9.844  27.520  1.00  0.00    -0.379 N 
ATOM      3  H11 UNL     1      29.475  10.664  27.087  1.00  0.00     0.158 HD
ATOM      4  H12 UNL     1      29.787   9.628  28.511  1.00  0.00     0.158 HD
ENDROOT
BRANCH   1   5
HETATM    5  S4  UNL     1      31.342   7.612  27.551  1.00  0.00    -0.016 SA
BRANCH   5   6
HETATM    6  S3  UNL     1      33.449   7.589  27.270  1.00  0.00    -0.042 SA
BRANCH   6   7
HETATM    7  C4  UNL     1      33.975   5.914  27.010  1.00  0.00     0.066 C 
HETATM    8  S2  UNL     1      34.191   5.091  28.146  1.00  0.00    -0.076 SA
BRANCH   7   9
HETATM    9  C3  UNL     1      34.178   5.370  25.655  1.00  0.00     0.141 C 
BRANCH   9  10
HETATM   10  S1  UNL     1      34.917   6.565  24.516  1.00  0.00    -0.087 SA
BRANCH  10  11
HETATM   11  C2  UNL     1      33.702   7.445  23.572  1.00  0.00     0.182 C 
HETATM   12  C1  UNL     1      32.340   6.923  23.371  1.00  0.00     0.104 C 
HETATM   13  O1  UNL     1      33.999   8.518  23.071  1.00  0.00    -0.286 OA
ENDBRANCH  10  11
ENDBRANCH   9  10
ENDBRANCH   7   9
ENDBRANCH   6   7
ENDBRANCH   5   6
ENDBRANCH   1   5
BRANCH   1  14
HETATM   14  N2  UNL     1      30.756   9.344  25.422  1.00  0.00    -0.366 N 
ATOM     15  H2  UNL     1      30.189   8.850  24.732  1.00  0.00     0.161 HD
BRANCH  14  16
HETATM   16  C6  UNL     1      31.706  10.337  24.985  1.00  0.00     0.160 C 
BRANCH  16  17
HETATM   17  C7  UNL     1      31.249  11.075  23.782  1.00  0.00    -0.040 A 
HETATM   18  C8  UNL     1      29.899  11.089  23.447  1.00  0.00     0.012 A 
HETATM   19  C9  UNL     1      29.535  11.793  22.323  1.00  0.00     0.043 A 
HETATM   20  C10 UNL     1      30.459  12.461  21.552  1.00  0.00     0.116 A 
HETATM   21  F1  UNL     1      30.104  13.163  20.433  1.00  0.00    -0.206 F 
HETATM   22  C11 UNL     1      31.792  12.426  21.916  1.00  0.00     0.043 A 
HETATM   23  C12 UNL     1      32.204  11.737  23.028  1.00  0.00     0.012 A 
ENDBRANCH  16  17
ENDBRANCH  14  16
ENDBRANCH   1  14
TORSDOF 9
ENDMDL
MODEL 3
REMARK VINA RESULT: -6.359828277      1.761      2.563
REMARK  9 active torsions:
REMARK  status: ('A' for Active; 'I' for Inactive)
REMARK    1  A    between atoms: C2_2  and  S1_4 
REMARK    2  A    between atoms: S1_4  and  C3_5 
REMARK    3  A    between atoms: C3_5  and  C4_6 
REMARK    4  A    between atoms: C4_6  and  S3_8 
REMARK    5  A    between atoms: S3_8  and  S4_9 
REMARK    6  A    between atoms: S4_9  and  C5_10 
REMARK    7  A    between atoms: C5_10  and  N2_14 
REMARK    8  A    between atoms: N2_14  and  C6_16 
REMARK    9  A    between atoms: C6_16  and  C7_17 
ROOT
HETATM    1  C5  UNL     1      30.564   9.198  26.738  1.00  0.00     0.145 C 
HETATM    2  N1  UNL     1      29.799  10.034  27.349  1.00  0.00    -0.379 N 
ATOM      3  H11 UNL     1      29.408  10.819  26.829  1.00  0.00     0.158 HD
ATOM      4  H12 UNL     1      29.608   9.884  28.339  1.00  0.00     0.158 HD
ENDROOT
BRANCH   1   5
HETATM    5  S4  UNL     1      31.248   7.825  27.647  1.00  0.00    -0.016 SA
BRANCH   5   6
HETATM    6  S3  UNL     1      33.102   7.196  26.819  1.00  0.00    -0.042 SA
BRANCH   6   7
HETATM    7  C4  UNL     1      32.803   5.854  25.697  1.00  0.00     0.066 C 
HETATM    8  S2  UNL     1      33.447   4.613  25.944  1.00  0.00    -0.076 SA
BRANCH   7   9
HETATM    9  C3  UNL     1      31.905   6.001  24.537  1.00  0.00     0.141 C 
BRANCH   9  10
HETATM   10  S1  UNL     1      32.795   6.184  22.973  1.00  0.00    -0.087 SA
BRANCH  10  11
HETATM   11  C2  UNL     1      34.362   6.988  23.172  1.00  0.00     0.182 C 
HETATM   12  C1  UNL     1      34.478   8.447  23.333  1.00  0.00     0.104 C 
HETATM   13  O1  UNL     1      35.381   6.314  23.177  1.00  0.00    -0.286 OA
ENDBRANCH  10  11
ENDBRANCH   9  10
ENDBRANCH   7   9
ENDBRANCH   6   7
ENDBRANCH   5   6
ENDBRANCH   1   5
BRANCH   1  14
HETATM   14  N2  UNL     1      30.828   9.406  25.366  1.00  0.00    -0.366 N 
ATOM     15  H2  UNL     1      30.340   8.845  24.668  1.00  0.00     0.161 HD
BRANCH  14  16
HETATM   16  C6  UNL     1      31.782  10.402  24.941  1.00  0.00     0.160 C 
BRANCH  16  17
HETATM   17  C7  UNL     1      31.336  11.142  23.735  1.00  0.00    -0.040 A 
HETATM   18  C8  UNL     1      32.267  11.819  22.953  1.00  0.00     0.012 A 
HETATM   19  C9  UNL     1      31.795  12.484  21.845  1.00  0.00     0.043 A 
HETATM   20  C10 UNL     1      30.460  12.488  21.513  1.00  0.00     0.116 A 
HETATM   21  F1  UNL     1      29.983  13.147  20.413  1.00  0.00    -0.206 F 
HETATM   22  C11 UNL     1      29.564  11.804  22.313  1.00  0.00     0.043 A 
HETATM   23  C12 UNL     1      29.986  11.126  23.429  1.00  0.00     0.012 A 
ENDBRANCH  16  17
ENDBRANCH  14  16
ENDBRANCH   1  14
TORSDOF 9
ENDMDL
MODEL 4
REMARK VINA RESULT: -6.352941813      2.059      2.598
REMARK  9 active torsions:
REMARK  status: ('A' for Active; 'I' for Inactive)
REMARK    1  A    between atoms: C2_2  and  S1_4 
REMARK    2  A    between atoms: S1_4  and  C3_5 
REMARK    3  A    between atoms: C3_5  and  C4_6 
REMARK    4  A    between atoms: C4_6  and  S3_8 
REMARK    5  A    between atoms: S3_8  and  S4_9 
REMARK    6  A    between atoms: S4_9  and  C5_10 
REMARK    7  A    between atoms: C5_10  and  N2_14 
REMARK    8  A    between atoms: N2_14  and  C6_16 
REMARK    9  A    between atoms: C6_16  and  C7_17 
ROOT
HETATM    1  C5  UNL     1      33.199   8.499  24.928  1.00  0.00     0.145 C 
HETATM    2  N1  UNL     1      33.676   8.280  26.103  1.00  0.00    -0.379 N 
ATOM      3  H11 UNL     1      33.082   8.442  26.917  1.00  0.00     0.158 HD
ATOM      4  H12 UNL     1      34.638   7.951  26.184  1.00  0.00     0.158 HD
ENDROOT
BRANCH   1   5
HETATM    5  S4  UNL     1      34.236   8.217  23.505  1.00  0.00    -0.016 SA
BRANCH   5   6
HETATM    6  S3  UNL     1      34.054   6.221  22.798  1.00  0.00    -0.042 SA
BRANCH   6   7
HETATM    7  C4  UNL     1      34.869   5.132  23.938  1.00  0.00     0.066 C 
HETATM    8  S2  UNL     1      36.136   4.604  23.577  1.00  0.00    -0.076 SA
BRANCH   7   9
HETATM    9  C3  UNL     1      34.265   4.779  25.235  1.00  0.00     0.141 C 
BRANCH   9  10
HETATM   10  S1  UNL     1      32.583   4.133  25.081  1.00  0.00    -0.087 SA
BRANCH  10  11
HETATM   11  C2  UNL     1      31.354   5.312  25.573  1.00  0.00     0.182 C 
HETATM   12  C1  UNL     1      30.891   5.423  26.966  1.00  0.00     0.104 C 
HETATM   13  O1  UNL     1      30.874   6.058  24.733  1.00  0.00    -0.286 OA
ENDBRANCH  10  11
ENDBRANCH   9  10
ENDBRANCH   7   9
ENDBRANCH   6   7
ENDBRANCH   5   6
ENDBRANCH   1   5
BRANCH   1  14
HETATM   14  N2  UNL     1      31.866   8.955  24.816  1.00  0.00    -0.366 N 
ATOM     15  H2  UNL     1      31.130   8.300  24.550  1.00  0.00     0.161 HD
BRANCH  14  16
HETATM   16  C6  UNL     1      31.534  10.335  25.074  1.00  0.00     0.160 C 
BRANCH  16  17
HETATM   17  C7  UNL     1      31.136  11.066  23.846  1.00  0.00    -0.040 A 
HETATM   18  C8  UNL     1      29.804  11.072  23.442  1.00  0.00     0.012 A 
HETATM   19  C9  UNL     1      29.495  11.769  22.298  1.00  0.00     0.043 A 
HETATM   20  C10 UNL     1      30.453  12.439  21.574  1.00  0.00     0.116 A 
HETATM   21  F1  UNL     1      30.153  13.136  20.435  1.00  0.00    -0.206 F 
HETATM   22  C11 UNL     1      31.766  12.412  22.005  1.00  0.00     0.043 A 
HETATM   23  C12 UNL     1      32.125  11.730  23.140  1.00  0.00     0.012 A 
ENDBRANCH  16  17
ENDBRANCH  14  16
ENDBRANCH   1  14
TORSDOF 9
ENDMDL
MODEL 5
REMARK VINA RESULT: -6.348193218      2.039      2.892
REMARK  9 active torsions:
REMARK  status: ('A' for Active; 'I' for Inactive)
REMARK    1  A    between atoms: C2_2  and  S1_4 
REMARK    2  A    between atoms: S1_4  and  C3_5 
REMARK    3  A    between atoms: C3_5  and  C4_6 
REMARK    4  A    between atoms: C4_6  and  S3_8 
REMARK    5  A    between atoms: S3_8  and  S4_9 
REMARK    6  A    between atoms: S4_9  and  C5_10 
REMARK    7  A    between atoms: C5_10  and  N2_14 
REMARK    8  A    between atoms: N2_14  and  C6_16 
REMARK    9  A    between atoms: C6_16  and  C7_17 
ROOT
HETATM    1  C5  UNL     1      30.580   9.090  26.750  1.00  0.00     0.145 C 
HETATM    2  N1  UNL     1      29.817   9.865  27.438  1.00  0.00    -0.379 N 
ATOM      3  H11 UNL     1      29.375  10.661  26.979  1.00  0.00     0.158 HD
ATOM      4  H12 UNL     1      29.678   9.657  28.427  1.00  0.00     0.158 HD
ENDROOT
BRANCH   1   5
HETATM    5  S4  UNL     1      31.352   7.698  27.553  1.00  0.00    -0.016 SA
BRANCH   5   6
HETATM    6  S3  UNL     1      33.422   7.584  27.083  1.00  0.00    -0.042 SA
BRANCH   6   7
HETATM    7  C4  UNL     1      34.007   5.952  27.461  1.00  0.00     0.066 C 
HETATM    8  S2  UNL     1      33.943   4.962  26.446  1.00  0.00    -0.076 SA
BRANCH   7   9
HETATM    9  C3  UNL     1      34.558   5.615  28.786  1.00  0.00     0.141 C 
BRANCH   9  10
HETATM   10  S1  UNL     1      33.348   4.826  29.875  1.00  0.00    -0.087 SA
BRANCH  10  11
HETATM   11  C2  UNL     1      32.460   5.997  30.866  1.00  0.00     0.182 C 
HETATM   12  C1  UNL     1      31.364   5.592  31.761  1.00  0.00     0.104 C 
HETATM   13  O1  UNL     1      32.765   7.179  30.808  1.00  0.00    -0.286 OA
ENDBRANCH  10  11
ENDBRANCH   9  10
ENDBRANCH   7   9
ENDBRANCH   6   7
ENDBRANCH   5   6
ENDBRANCH   1   5
BRANCH   1  14
HETATM   14  N2  UNL     1      30.772   9.378  25.380  1.00  0.00    -0.366 N 
ATOM     15  H2  UNL     1      30.224   8.880  24.679  1.00  0.00     0.161 HD
BRANCH  14  16
HETATM   16  C6  UNL     1      31.735  10.368  24.962  1.00  0.00     0.160 C 
BRANCH  16  17
HETATM   17  C7  UNL     1      31.300  11.116  23.758  1.00  0.00    -0.040 A 
HETATM   18  C8  UNL     1      32.239  11.787  22.980  1.00  0.00     0.012 A 
HETATM   19  C9  UNL     1      31.776  12.460  21.873  1.00  0.00     0.043 A 
HETATM   20  C10 UNL     1      30.442  12.477  21.538  1.00  0.00     0.116 A 
HETATM   21  F1  UNL     1      29.974  13.144  20.438  1.00  0.00    -0.206 F 
HETATM   22  C11 UNL     1      29.538  11.799  22.333  1.00  0.00     0.043 A 
HETATM   23  C12 UNL     1      29.950  11.113  23.448  1.00  0.00     0.012 A 
ENDBRANCH  16  17
ENDBRANCH  14  16
ENDBRANCH   1  14
TORSDOF 9
ENDMDL
