MODEL 1
REMARK VINA RESULT: -8.525169350      0.000      0.000
REMARK  4 active torsions:
REMARK  status: ('A' for Active; 'I' for Inactive)
REMARK    1  A    between atoms: C2_3  and  C9_18 
REMARK    2  A    between atoms: N2_4  and  N3_6 
REMARK    3  A    between atoms: N3_6  and  C3_8 
REMARK    4  A    between atoms: C6_11  and  N4_12 
ROOT
HETATM    1  N1  UNL     1      29.719  10.065  27.370  1.00  0.00    -0.190 NA
HETATM    2  C1  UNL     1      30.170   9.862  26.292  1.00  0.00     0.120 C 
HETATM    3  C2  UNL     1      30.720   9.558  25.003  1.00  0.00     0.149 C 
HETATM    4  N2  UNL     1      31.006   8.350  24.815  1.00  0.00    -0.289 N 
ATOM      5  H2  UNL     1      30.787   7.791  25.640  1.00  0.00     0.188 HD
ENDROOT
BRANCH   3   6
HETATM    6  C9  UNL     1      30.935  10.556  23.997  1.00  0.00     0.085 C 
HETATM    7  C10 UNL     1      29.775  11.042  23.214  1.00  0.00     0.102 C 
HETATM    8  N5  UNL     1      28.866  11.438  22.574  1.00  0.00    -0.191 NA
HETATM    9  C11 UNL     1      32.063  11.125  23.652  1.00  0.00    -0.056 C 
HETATM   10  C12 UNL     1      33.379  10.829  24.265  1.00  0.00     0.036 C 
HETATM   11  C16 UNL     1      32.132  12.174  22.560  1.00  0.00     0.036 C 
HETATM   12  C13 UNL     1      34.446  11.678  23.570  1.00  0.00     0.004 C 
HETATM   13  C14 UNL     1      34.142  13.137  23.612  1.00  0.00     0.001 C 
HETATM   14  C15 UNL     1      32.705  13.434  23.220  1.00  0.00     0.004 C 
ENDBRANCH   3   6
BRANCH   4  15
HETATM   15  N3  UNL     1      31.515   7.586  23.843  1.00  0.00    -0.300 N 
ATOM     16  H3  UNL     1      31.633   7.954  22.898  1.00  0.00     0.187 HD
BRANCH  15  17
HETATM   17  C3  UNL     1      31.896   6.229  24.156  1.00  0.00     0.049 A 
HETATM   18  C4  UNL     1      32.874   5.581  23.435  1.00  0.00     0.033 A 
HETATM   19  C5  UNL     1      33.249   4.280  23.724  1.00  0.00     0.040 A 
HETATM   20  C6  UNL     1      32.656   3.576  24.748  1.00  0.00     0.124 A 
HETATM   21  C7  UNL     1      31.675   4.215  25.477  1.00  0.00     0.069 A 
HETATM   22 CL1  UNL     1      30.921   3.321  26.779  1.00  0.00    -0.082 Cl
HETATM   23  C8  UNL     1      31.309   5.515  25.180  1.00  0.00     0.057 A 
BRANCH  20  24
HETATM   24  N4  UNL     1      33.050   2.233  25.040  1.00  0.00    -0.114 N 
HETATM   25  O1  UNL     1      34.011   2.070  25.802  1.00  0.00    -0.532 OA
HETATM   26  O2  UNL     1      32.380   1.156  24.492  1.00  0.00    -0.532 OA
ENDBRANCH  20  24
ENDBRANCH  15  17
ENDBRANCH   4  15
TORSDOF 4
ENDMDL
MODEL 2
REMARK VINA RESULT: -8.514516814      2.166      2.454
REMARK  4 active torsions:
REMARK  status: ('A' for Active; 'I' for Inactive)
REMARK    1  A    between atoms: C2_3  and  C9_18 
REMARK    2  A    between atoms: N2_4  and  N3_6 
REMARK    3  A    between atoms: N3_6  and  C3_8 
REMARK    4  A    between atoms: C6_11  and  N4_12 
ROOT
HETATM    1  N1  UNL     1      30.110   9.961  27.585  1.00  0.00    -0.190 NA
HETATM    2  C1  UNL     1      30.409   9.753  26.457  1.00  0.00     0.120 C 
HETATM    3  C2  UNL     1      30.772   9.442  25.105  1.00  0.00     0.149 C 
HETATM    4  N2  UNL     1      30.928   8.219  24.861  1.00  0.00    -0.289 N 
ATOM      5  H2  UNL     1      30.762   7.657  25.696  1.00  0.00     0.188 HD
ENDROOT
BRANCH   3   6
HETATM    6  C9  UNL     1      30.950  10.447  24.098  1.00  0.00     0.085 C 
HETATM    7  C10 UNL     1      29.756  10.970  23.394  1.00  0.00     0.102 C 
HETATM    8  N5  UNL     1      28.820  11.395  22.815  1.00  0.00    -0.191 NA
HETATM    9  C11 UNL     1      32.068  10.992  23.692  1.00  0.00    -0.056 C 
HETATM   10  C12 UNL     1      33.411  10.658  24.220  1.00  0.00     0.036 C 
HETATM   11  C16 UNL     1      32.096  12.054  22.609  1.00  0.00     0.036 C 
HETATM   12  C13 UNL     1      34.455  11.490  23.471  1.00  0.00     0.004 C 
HETATM   13  C14 UNL     1      34.190  12.956  23.547  1.00  0.00     0.001 C 
HETATM   14  C15 UNL     1      32.739  13.292  23.247  1.00  0.00     0.004 C 
ENDBRANCH   3   6
BRANCH   4  15
HETATM   15  N3  UNL     1      31.249   7.444  23.820  1.00  0.00    -0.300 N 
ATOM     16  H3  UNL     1      30.633   7.380  23.009  1.00  0.00     0.187 HD
BRANCH  15  17
HETATM   17  C3  UNL     1      32.485   6.700  23.867  1.00  0.00     0.049 A 
HETATM   18  C4  UNL     1      33.276   6.709  24.994  1.00  0.00     0.033 A 
HETATM   19  C5  UNL     1      34.464   6.000  25.055  1.00  0.00     0.040 A 
HETATM   20  C6  UNL     1      34.907   5.254  23.985  1.00  0.00     0.124 A 
HETATM   21  C7  UNL     1      34.122   5.238  22.851  1.00  0.00     0.069 A 
HETATM   22 CL1  UNL     1      34.683   4.290  21.491  1.00  0.00    -0.082 Cl
HETATM   23  C8  UNL     1      32.937   5.949  22.802  1.00  0.00     0.057 A 
BRANCH  20  24
HETATM   24  N4  UNL     1      36.135   4.526  24.056  1.00  0.00    -0.114 N 
HETATM   25  O1  UNL     1      37.106   4.980  23.438  1.00  0.00    -0.532 OA
HETATM   26  O2  UNL     1      36.234   3.358  24.787  1.00  0.00    -0.532 OA
ENDBRANCH  20  24
ENDBRANCH  15  17
ENDBRANCH   4  15
TORSDOF 4
ENDMDL
MODEL 3
REMARK VINA RESULT: -8.193932396      1.238      2.396
REMARK  4 active torsions:
REMARK  status: ('A' for Active; 'I' for Inactive)
REMARK    1  A    between atoms: C2_3  and  C9_18 
REMARK    2  A    between atoms: N2_4  and  N3_6 
REMARK    3  A    between atoms: N3_6  and  C3_8 
REMARK    4  A    between atoms: C6_11  and  N4_12 
ROOT
HETATM    1  N1  UNL     1      29.746  10.107  27.258  1.00  0.00    -0.190 NA
HETATM    2  C1  UNL     1      30.341   9.947  26.244  1.00  0.00     0.120 C 
HETATM    3  C2  UNL     1      31.054   9.694  25.027  1.00  0.00     0.149 C 
HETATM    4  N2  UNL     1      31.173   8.481  24.719  1.00  0.00    -0.289 N 
ATOM      5  H2  UNL     1      30.726   7.883  25.415  1.00  0.00     0.188 HD
ENDROOT
BRANCH   3   6
HETATM    6  C9  UNL     1      31.598  10.742  24.214  1.00  0.00     0.085 C 
HETATM    7  C10 UNL     1      33.063  10.966  24.228  1.00  0.00     0.102 C 
HETATM    8  N5  UNL     1      34.225  11.167  24.228  1.00  0.00    -0.191 NA
HETATM    9  C11 UNL     1      30.958  11.568  23.427  1.00  0.00    -0.056 C 
HETATM   10  C12 UNL     1      29.490  11.573  23.222  1.00  0.00     0.036 C 
HETATM   11  C16 UNL     1      31.679  12.631  22.622  1.00  0.00     0.036 C 
HETATM   12  C13 UNL     1      29.134  12.702  22.253  1.00  0.00     0.004 C 
HETATM   13  C14 UNL     1      29.863  12.603  20.955  1.00  0.00     0.001 C 
HETATM   14  C15 UNL     1      31.348  12.347  21.152  1.00  0.00     0.004 C 
ENDBRANCH   3   6
BRANCH   4  15
HETATM   15  N3  UNL     1      31.718   7.750  23.740  1.00  0.00    -0.300 N 
ATOM     16  H3  UNL     1      31.898   8.160  22.823  1.00  0.00     0.187 HD
BRANCH  15  17
HETATM   17  C3  UNL     1      32.046   6.371  24.009  1.00  0.00     0.049 A 
HETATM   18  C4  UNL     1      32.998   5.710  23.264  1.00  0.00     0.033 A 
HETATM   19  C5  UNL     1      33.324   4.387  23.508  1.00  0.00     0.040 A 
HETATM   20  C6  UNL     1      32.706   3.673  24.511  1.00  0.00     0.124 A 
HETATM   21  C7  UNL     1      31.752   4.325  25.263  1.00  0.00     0.069 A 
HETATM   22 CL1  UNL     1      30.966   3.418  26.538  1.00  0.00    -0.082 Cl
HETATM   23  C8  UNL     1      31.435   5.646  25.010  1.00  0.00     0.057 A 
BRANCH  20  24
HETATM   24  N4  UNL     1      33.048   2.306  24.757  1.00  0.00    -0.114 N 
HETATM   25  O1  UNL     1      32.460   1.441  24.096  1.00  0.00    -0.532 OA
HETATM   26  O2  UNL     1      34.000   1.964  25.697  1.00  0.00    -0.532 OA
ENDBRANCH  20  24
ENDBRANCH  15  17
ENDBRANCH   4  15
TORSDOF 4
ENDMDL
MODEL 4
REMARK VINA RESULT: -8.161743687      4.881      7.975
REMARK  4 active torsions:
REMARK  status: ('A' for Active; 'I' for Inactive)
REMARK    1  A    between atoms: C2_3  and  C9_18 
REMARK    2  A    between atoms: N2_4  and  N3_6 
REMARK    3  A    between atoms: N3_6  and  C3_8 
REMARK    4  A    between atoms: C6_11  and  N4_12 
ROOT
HETATM    1  N1  UNL     1      36.599   8.387  19.714  1.00  0.00    -0.190 NA
HETATM    2  C1  UNL     1      36.145   7.557  20.430  1.00  0.00     0.120 C 
HETATM    3  C2  UNL     1      35.571   6.598  21.327  1.00  0.00     0.149 C 
HETATM    4  N2  UNL     1      34.855   7.082  22.240  1.00  0.00    -0.289 N 
ATOM      5  H2  UNL     1      34.815   8.099  22.171  1.00  0.00     0.188 HD
ENDROOT
BRANCH   3   6
HETATM    6  C9  UNL     1      35.794   5.188  21.202  1.00  0.00     0.085 C 
HETATM    7  C10 UNL     1      35.287   4.489  19.998  1.00  0.00     0.102 C 
HETATM    8  N5  UNL     1      34.886   3.912  19.051  1.00  0.00    -0.191 NA
HETATM    9  C11 UNL     1      36.408   4.390  22.040  1.00  0.00    -0.056 C 
HETATM   10  C12 UNL     1      37.011   4.818  23.324  1.00  0.00     0.036 C 
HETATM   11  C16 UNL     1      36.568   2.908  21.766  1.00  0.00     0.036 C 
HETATM   12  C13 UNL     1      37.606   3.591  24.019  1.00  0.00     0.004 C 
HETATM   13  C14 UNL     1      38.594   2.866  23.169  1.00  0.00     0.001 C 
HETATM   14  C15 UNL     1      38.078   2.639  21.758  1.00  0.00     0.004 C 
ENDBRANCH   3   6
BRANCH   4  15
HETATM   15  N3  UNL     1      34.132   6.644  23.276  1.00  0.00    -0.300 N 
ATOM     16  H3  UNL     1      34.280   5.709  23.657  1.00  0.00     0.187 HD
BRANCH  15  17
HETATM   17  C3  UNL     1      33.137   7.522  23.844  1.00  0.00     0.049 A 
HETATM   18  C4  UNL     1      32.011   7.017  24.457  1.00  0.00     0.033 A 
HETATM   19  C5  UNL     1      31.048   7.845  25.006  1.00  0.00     0.040 A 
HETATM   20  C6  UNL     1      31.175   9.216  24.962  1.00  0.00     0.124 A 
HETATM   21  C7  UNL     1      32.299   9.732  24.351  1.00  0.00     0.069 A 
HETATM   22 CL1  UNL     1      32.461  11.475  24.294  1.00  0.00    -0.082 Cl
HETATM   23  C8  UNL     1      33.254   8.895  23.806  1.00  0.00     0.057 A 
BRANCH  20  24
HETATM   24  N4  UNL     1      30.176  10.065  25.531  1.00  0.00    -0.114 N 
HETATM   25  O1  UNL     1      29.309  10.518  24.773  1.00  0.00    -0.532 OA
HETATM   26  O2  UNL     1      30.176  10.369  26.879  1.00  0.00    -0.532 OA
ENDBRANCH  20  24
ENDBRANCH  15  17
ENDBRANCH   4  15
TORSDOF 4
ENDMDL
MODEL 5
REMARK VINA RESULT: -8.124365758      2.509      3.419
REMARK  4 active torsions:
REMARK  status: ('A' for Active; 'I' for Inactive)
REMARK    1  A    between atoms: C2_3  and  C9_18 
REMARK    2  A    between atoms: N2_4  and  N3_6 
REMARK    3  A    between atoms: N3_6  and  C3_8 
REMARK    4  A    between atoms: C6_11  and  N4_12 
ROOT
HETATM    1  N1  UNL     1      30.098   9.835  27.390  1.00  0.00    -0.190 NA
HETATM    2  C1  UNL     1      30.575   9.747  26.307  1.00  0.00     0.120 C 
HETATM    3  C2  UNL     1      31.142   9.581  25.002  1.00  0.00     0.149 C 
HETATM    4  N2  UNL     1      31.181   8.398  24.582  1.00  0.00    -0.289 N 
ATOM      5  H2  UNL     1      30.789   7.754  25.269  1.00  0.00     0.188 HD
ENDROOT
BRANCH   3   6
HETATM    6  C9  UNL     1      31.637  10.680  24.225  1.00  0.00     0.085 C 
HETATM    7  C10 UNL     1      33.091  10.963  24.237  1.00  0.00     0.102 C 
HETATM    8  N5  UNL     1      34.245  11.211  24.236  1.00  0.00    -0.191 NA
HETATM    9  C11 UNL     1      30.957  11.509  23.474  1.00  0.00    -0.056 C 
HETATM   10  C12 UNL     1      29.489  11.461  23.281  1.00  0.00     0.036 C 
HETATM   11  C16 UNL     1      31.628  12.630  22.705  1.00  0.00     0.036 C 
HETATM   12  C13 UNL     1      29.078  12.611  22.357  1.00  0.00     0.004 C 
HETATM   13  C14 UNL     1      29.800  12.591  21.052  1.00  0.00     0.001 C 
HETATM   14  C15 UNL     1      31.295  12.388  21.228  1.00  0.00     0.004 C 
ENDBRANCH   3   6
BRANCH   4  15
HETATM   15  N3  UNL     1      31.590   7.740  23.491  1.00  0.00    -0.300 N 
ATOM     16  H3  UNL     1      31.069   7.809  22.616  1.00  0.00     0.187 HD
BRANCH  15  17
HETATM   17  C3  UNL     1      32.782   6.932  23.577  1.00  0.00     0.049 A 
HETATM   18  C4  UNL     1      33.751   7.194  24.520  1.00  0.00     0.033 A 
HETATM   19  C5  UNL     1      34.901   6.428  24.615  1.00  0.00     0.040 A 
HETATM   20  C6  UNL     1      35.124   5.367  23.765  1.00  0.00     0.124 A 
HETATM   21  C7  UNL     1      34.160   5.096  22.817  1.00  0.00     0.069 A 
HETATM   22 CL1  UNL     1      34.444   3.748  21.737  1.00  0.00    -0.082 Cl
HETATM   23  C8  UNL     1      33.016   5.867  22.732  1.00  0.00     0.057 A 
BRANCH  20  24
HETATM   24  N4  UNL     1      36.314   4.581  23.870  1.00  0.00    -0.114 N 
HETATM   25  O1  UNL     1      36.334   3.684  24.721  1.00  0.00    -0.532 OA
HETATM   26  O2  UNL     1      37.401   4.814  23.049  1.00  0.00    -0.532 OA
ENDBRANCH  20  24
ENDBRANCH  15  17
ENDBRANCH   4  15
TORSDOF 4
ENDMDL
