MODEL 1
REMARK VINA RESULT: -8.206826316      0.000      0.000
REMARK  6 active torsions:
REMARK  status: ('A' for Active; 'I' for Inactive)
REMARK    1  A    between atoms: C2_2  and  N1_5 
REMARK    2  A    between atoms: N2_7  and  C5_9 
REMARK    3  A    between atoms: C7_13  and  S1_14 
REMARK    4  A    between atoms: S1_14  and  C8_15 
REMARK    5  A    between atoms: C8_15  and  C11_19 
REMARK    6  A    between atoms: C17_27  and  N6_28 
ROOT
HETATM    1  C8  UNL     1      31.501  10.349  24.491  1.00  0.00     0.028 C 
HETATM    2  C9  UNL     1      30.639   9.854  25.319  1.00  0.00     0.113 C 
HETATM    3  C10 UNL     1      30.847   9.035  26.458  1.00  0.00     0.089 C 
HETATM    4  N4  UNL     1      30.973   8.371  27.388  1.00  0.00    -0.192 NA
ENDROOT
BRANCH   1   5
HETATM    5  S1  UNL     1      33.232  10.110  24.590  1.00  0.00    -0.053 SA
BRANCH   5   6
HETATM    6  C7  UNL     1      33.882   8.507  24.502  1.00  0.00     0.150 A 
HETATM    7  N3  UNL     1      34.381   8.070  23.306  1.00  0.00    -0.344 N 
HETATM    8  C6  UNL     1      34.921   6.844  23.219  1.00  0.00     0.125 A 
ATOM      9  H3  UNL     1      34.343   8.673  22.484  1.00  0.00     0.167 HD
HETATM   10  C5  UNL     1      34.984   6.014  24.307  1.00  0.00     0.106 A 
HETATM   11  C17 UNL     1      34.478   6.476  25.491  1.00  0.00     0.130 A 
HETATM   12  N5  UNL     1      33.942   7.691  25.582  1.00  0.00    -0.321 N 
ATOM     13  H5  UNL     1      33.571   8.013  26.476  1.00  0.00     0.169 HD
BRANCH  10  14
HETATM   14  N2  UNL     1      35.548   4.735  24.215  1.00  0.00    -0.300 N 
HETATM   15  N1  UNL     1      36.801   4.661  23.955  1.00  0.00    -0.327 N 
ATOM     16  H1  UNL     1      37.324   5.528  23.827  1.00  0.00     0.181 HD
ATOM     17  H2  UNL     1      34.984   3.896  24.351  1.00  0.00     0.186 HD
BRANCH  15  18
HETATM   18  C2  UNL     1      37.497   3.417  23.835  1.00  0.00     0.035 C 
HETATM   19  C1  UNL     1      38.459   3.214  24.979  1.00  0.00     0.039 C 
HETATM   20  C3  UNL     1      38.253   3.362  22.521  1.00  0.00     0.039 C 
HETATM   21  C4  UNL     1      36.492   2.285  23.857  1.00  0.00     0.039 C 
ENDBRANCH  15  18
ENDBRANCH  10  14
BRANCH  11  22
HETATM   22  N6  UNL     1      34.518   5.721  26.550  1.00  0.00    -0.383 N 
ATOM     23  H62 UNL     1      35.045   4.848  26.517  1.00  0.00     0.157 HD
ATOM     24  H61 UNL     1      34.025   6.008  27.396  1.00  0.00     0.157 HD
ENDBRANCH  11  22
ENDBRANCH   5   6
ENDBRANCH   1   5
BRANCH   1  25
HETATM   25  C11 UNL     1      31.048  11.188  23.349  1.00  0.00    -0.018 A 
HETATM   26  C12 UNL     1      29.736  11.318  23.004  1.00  0.00     0.013 A 
HETATM   27  C13 UNL     1      29.340  12.120  21.920  1.00  0.00     0.001 A 
HETATM   28  C14 UNL     1      30.258  12.797  21.172  1.00  0.00     0.000 A 
HETATM   29  C15 UNL     1      31.584  12.674  21.510  1.00  0.00     0.001 A 
HETATM   30  C16 UNL     1      31.959  11.886  22.574  1.00  0.00     0.013 A 
ENDBRANCH   1  25
TORSDOF 6
ENDMDL
MODEL 2
REMARK VINA RESULT: -8.151100624      0.515      1.667
REMARK  6 active torsions:
REMARK  status: ('A' for Active; 'I' for Inactive)
REMARK    1  A    between atoms: C2_2  and  N1_5 
REMARK    2  A    between atoms: N2_7  and  C5_9 
REMARK    3  A    between atoms: C7_13  and  S1_14 
REMARK    4  A    between atoms: S1_14  and  C8_15 
REMARK    5  A    between atoms: C8_15  and  C11_19 
REMARK    6  A    between atoms: C17_27  and  N6_28 
ROOT
HETATM    1  C8  UNL     1      31.515  10.299  24.575  1.00  0.00     0.028 C 
HETATM    2  C9  UNL     1      30.624   9.779  25.354  1.00  0.00     0.113 C 
HETATM    3  C10 UNL     1      30.792   8.954  26.496  1.00  0.00     0.089 C 
HETATM    4  N4  UNL     1      30.885   8.283  27.425  1.00  0.00    -0.192 NA
ENDROOT
BRANCH   1   5
HETATM    5  S1  UNL     1      33.244  10.094  24.758  1.00  0.00    -0.053 SA
BRANCH   5   6
HETATM    6  C7  UNL     1      33.968   8.562  24.402  1.00  0.00     0.150 A 
HETATM    7  N3  UNL     1      34.117   7.659  25.418  1.00  0.00    -0.344 N 
HETATM    8  C6  UNL     1      34.645   6.451  25.162  1.00  0.00     0.125 A 
ATOM      9  H3  UNL     1      33.830   7.903  26.366  1.00  0.00     0.167 HD
HETATM   10  C5  UNL     1      35.040   6.099  23.899  1.00  0.00     0.106 A 
HETATM   11  C17 UNL     1      34.879   7.020  22.901  1.00  0.00     0.130 A 
HETATM   12  N5  UNL     1      34.356   8.220  23.150  1.00  0.00    -0.321 N 
ATOM     13  H5  UNL     1      34.246   8.889  22.388  1.00  0.00     0.169 HD
BRANCH  10  14
HETATM   14  N2  UNL     1      35.590   4.838  23.633  1.00  0.00    -0.300 N 
HETATM   15  N1  UNL     1      36.808   4.642  23.981  1.00  0.00    -0.327 N 
ATOM     16  H1  UNL     1      37.315   5.404  24.431  1.00  0.00     0.181 HD
ATOM     17  H2  UNL     1      35.043   4.106  23.180  1.00  0.00     0.186 HD
BRANCH  15  18
HETATM   18  C2  UNL     1      37.486   3.401  23.766  1.00  0.00     0.035 C 
HETATM   19  C1  UNL     1      36.514   2.251  23.677  1.00  0.00     0.039 C 
HETATM   20  C3  UNL     1      38.476   3.142  24.886  1.00  0.00     0.039 C 
HETATM   21  C4  UNL     1      38.250   3.475  22.461  1.00  0.00     0.039 C 
ENDBRANCH  15  18
ENDBRANCH  10  14
BRANCH  11  22
HETATM   22  N6  UNL     1      35.240   6.728  21.685  1.00  0.00    -0.383 N 
ATOM     23  H62 UNL     1      34.716   6.020  21.170  1.00  0.00     0.157 HD
ATOM     24  H61 UNL     1      36.037   7.206  21.264  1.00  0.00     0.157 HD
ENDBRANCH  11  22
ENDBRANCH   5   6
ENDBRANCH   1   5
BRANCH   1  25
HETATM   25  C11 UNL     1      31.103  11.139  23.419  1.00  0.00    -0.018 A 
HETATM   26  C12 UNL     1      29.804  11.266  23.026  1.00  0.00     0.013 A 
HETATM   27  C13 UNL     1      29.446  12.069  21.929  1.00  0.00     0.001 A 
HETATM   28  C14 UNL     1      30.388  12.751  21.218  1.00  0.00     0.000 A 
HETATM   29  C15 UNL     1      31.701  12.631  21.604  1.00  0.00     0.001 A 
HETATM   30  C16 UNL     1      32.039  11.841  22.680  1.00  0.00     0.013 A 
ENDBRANCH   1  25
TORSDOF 6
ENDMDL
MODEL 3
REMARK VINA RESULT: -8.107345236      1.035      1.763
REMARK  6 active torsions:
REMARK  status: ('A' for Active; 'I' for Inactive)
REMARK    1  A    between atoms: C2_2  and  N1_5 
REMARK    2  A    between atoms: N2_7  and  C5_9 
REMARK    3  A    between atoms: C7_13  and  S1_14 
REMARK    4  A    between atoms: S1_14  and  C8_15 
REMARK    5  A    between atoms: C8_15  and  C11_19 
REMARK    6  A    between atoms: C17_27  and  N6_28 
ROOT
HETATM    1  C8  UNL     1      31.203  10.558  24.653  1.00  0.00     0.028 C 
HETATM    2  C9  UNL     1      30.244  10.273  25.472  1.00  0.00     0.113 C 
HETATM    3  C10 UNL     1      30.285   9.561  26.699  1.00  0.00     0.089 C 
HETATM    4  N4  UNL     1      30.275   8.990  27.697  1.00  0.00    -0.192 NA
ENDROOT
BRANCH   1   5
HETATM    5  S1  UNL     1      32.879  10.107  24.880  1.00  0.00    -0.053 SA
BRANCH   5   6
HETATM    6  C7  UNL     1      33.362   8.462  24.641  1.00  0.00     0.150 A 
HETATM    7  N3  UNL     1      34.065   7.837  25.634  1.00  0.00    -0.344 N 
HETATM    8  C6  UNL     1      34.424   6.551  25.489  1.00  0.00     0.125 A 
ATOM      9  H3  UNL     1      34.317   8.347  26.482  1.00  0.00     0.167 HD
HETATM   10  C5  UNL     1      34.100   5.845  24.361  1.00  0.00     0.106 A 
HETATM   11  C17 UNL     1      33.396   6.493  23.384  1.00  0.00     0.130 A 
HETATM   12  N5  UNL     1      33.038   7.768  23.524  1.00  0.00    -0.321 N 
ATOM     13  H5  UNL     1      32.513   8.228  22.780  1.00  0.00     0.169 HD
BRANCH  10  14
HETATM   14  N2  UNL     1      34.473   4.503  24.210  1.00  0.00    -0.300 N 
HETATM   15  N1  UNL     1      35.624   4.159  24.657  1.00  0.00    -0.327 N 
ATOM     16  H1  UNL     1      36.209   4.869  25.098  1.00  0.00     0.181 HD
ATOM     17  H2  UNL     1      33.855   3.827  23.762  1.00  0.00     0.186 HD
BRANCH  15  18
HETATM   18  C2  UNL     1      36.124   2.821  24.566  1.00  0.00     0.035 C 
HETATM   19  C1  UNL     1      37.298   2.737  23.622  1.00  0.00     0.039 C 
HETATM   20  C3  UNL     1      35.029   1.882  24.097  1.00  0.00     0.039 C 
HETATM   21  C4  UNL     1      36.586   2.372  25.935  1.00  0.00     0.039 C 
ENDBRANCH  15  18
ENDBRANCH  10  14
BRANCH  11  22
HETATM   22  N6  UNL     1      33.066   5.859  22.295  1.00  0.00    -0.383 N 
ATOM     23  H62 UNL     1      33.431   4.919  22.140  1.00  0.00     0.157 HD
ATOM     24  H61 UNL     1      32.451   6.306  21.615  1.00  0.00     0.157 HD
ENDBRANCH  11  22
ENDBRANCH   5   6
ENDBRANCH   1   5
BRANCH   1  25
HETATM   25  C11 UNL     1      30.923  11.322  23.407  1.00  0.00    -0.018 A 
HETATM   26  C12 UNL     1      29.666  11.472  22.902  1.00  0.00     0.013 A 
HETATM   27  C13 UNL     1      29.434  12.201  21.722  1.00  0.00     0.001 A 
HETATM   28  C14 UNL     1      30.462  12.784  21.040  1.00  0.00     0.000 A 
HETATM   29  C15 UNL     1      31.733  12.639  21.540  1.00  0.00     0.001 A 
HETATM   30  C16 UNL     1      31.947  11.923  22.696  1.00  0.00     0.013 A 
ENDBRANCH   1  25
TORSDOF 6
ENDMDL
MODEL 4
REMARK VINA RESULT: -8.090383189      1.233      2.183
REMARK  6 active torsions:
REMARK  status: ('A' for Active; 'I' for Inactive)
REMARK    1  A    between atoms: C2_2  and  N1_5 
REMARK    2  A    between atoms: N2_7  and  C5_9 
REMARK    3  A    between atoms: C7_13  and  S1_14 
REMARK    4  A    between atoms: S1_14  and  C8_15 
REMARK    5  A    between atoms: C8_15  and  C11_19 
REMARK    6  A    between atoms: C17_27  and  N6_28 
ROOT
HETATM    1  C8  UNL     1      31.301   9.818  24.990  1.00  0.00     0.028 C 
HETATM    2  C9  UNL     1      30.804  10.187  26.124  1.00  0.00     0.113 C 
HETATM    3  C10 UNL     1      30.188   9.409  27.138  1.00  0.00     0.089 C 
HETATM    4  N4  UNL     1      29.682   8.814  27.982  1.00  0.00    -0.192 NA
ENDROOT
BRANCH   1   5
HETATM    5  S1  UNL     1      31.333   8.170  24.402  1.00  0.00    -0.053 SA
BRANCH   5   6
HETATM    6  C7  UNL     1      32.852   7.366  24.186  1.00  0.00     0.150 A 
HETATM    7  N3  UNL     1      33.369   6.655  25.234  1.00  0.00    -0.344 N 
HETATM    8  C6  UNL     1      34.528   5.995  25.083  1.00  0.00     0.125 A 
ATOM      9  H3  UNL     1      32.875   6.627  26.127  1.00  0.00     0.167 HD
HETATM   10  C5  UNL     1      35.211   6.018  23.897  1.00  0.00     0.106 A 
HETATM   11  C17 UNL     1      34.673   6.736  22.865  1.00  0.00     0.130 A 
HETATM   12  N5  UNL     1      33.523   7.392  23.009  1.00  0.00    -0.321 N 
ATOM     13  H5  UNL     1      33.142   7.920  22.225  1.00  0.00     0.169 HD
BRANCH  10  14
HETATM   14  N2  UNL     1      36.421   5.329  23.739  1.00  0.00    -0.300 N 
HETATM   15  N1  UNL     1      36.453   4.103  24.114  1.00  0.00    -0.327 N 
ATOM     16  H1  UNL     1      35.606   3.690  24.505  1.00  0.00     0.181 HD
ATOM     17  H2  UNL     1      37.243   5.784  23.343  1.00  0.00     0.186 HD
BRANCH  15  18
HETATM   18  C2  UNL     1      37.625   3.289  24.007  1.00  0.00     0.035 C 
HETATM   19  C1  UNL     1      38.388   3.251  25.308  1.00  0.00     0.039 C 
HETATM   20  C3  UNL     1      38.528   3.811  22.906  1.00  0.00     0.039 C 
HETATM   21  C4  UNL     1      37.213   1.875  23.659  1.00  0.00     0.039 C 
ENDBRANCH  15  18
ENDBRANCH  10  14
BRANCH  11  22
HETATM   22  N6  UNL     1      35.288   6.784  21.718  1.00  0.00    -0.383 N 
ATOM     23  H62 UNL     1      36.304   6.879  21.706  1.00  0.00     0.157 HD
ATOM     24  H61 UNL     1      34.752   6.727  20.852  1.00  0.00     0.157 HD
ENDBRANCH  11  22
ENDBRANCH   5   6
ENDBRANCH   1   5
BRANCH   1  25
HETATM   25  C11 UNL     1      31.901  10.822  24.071  1.00  0.00    -0.018 A 
HETATM   26  C12 UNL     1      33.237  11.095  24.046  1.00  0.00     0.013 A 
HETATM   27  C13 UNL     1      33.773  12.049  23.165  1.00  0.00     0.001 A 
HETATM   28  C14 UNL     1      32.974  12.739  22.301  1.00  0.00     0.000 A 
HETATM   29  C15 UNL     1      31.626  12.473  22.317  1.00  0.00     0.001 A 
HETATM   30  C16 UNL     1      31.113  11.536  23.184  1.00  0.00     0.013 A 
ENDBRANCH   1  25
TORSDOF 6
ENDMDL
MODEL 5
REMARK VINA RESULT: -8.087671919      0.515      1.706
REMARK  6 active torsions:
REMARK  status: ('A' for Active; 'I' for Inactive)
REMARK    1  A    between atoms: C2_2  and  N1_5 
REMARK    2  A    between atoms: N2_7  and  C5_9 
REMARK    3  A    between atoms: C7_13  and  S1_14 
REMARK    4  A    between atoms: S1_14  and  C8_15 
REMARK    5  A    between atoms: C8_15  and  C11_19 
REMARK    6  A    between atoms: C17_27  and  N6_28 
ROOT
HETATM    1  C8  UNL     1      31.527  10.350  24.549  1.00  0.00     0.028 C 
HETATM    2  C9  UNL     1      30.620   9.847  25.321  1.00  0.00     0.113 C 
HETATM    3  C10 UNL     1      30.765   9.030  26.473  1.00  0.00     0.089 C 
HETATM    4  N4  UNL     1      30.839   8.368  27.409  1.00  0.00    -0.192 NA
ENDROOT
BRANCH   1   5
HETATM    5  S1  UNL     1      33.251  10.129  24.756  1.00  0.00    -0.053 SA
BRANCH   5   6
HETATM    6  C7  UNL     1      33.965   8.591  24.409  1.00  0.00     0.150 A 
HETATM    7  N3  UNL     1      34.114   7.694  25.431  1.00  0.00    -0.344 N 
HETATM    8  C6  UNL     1      34.634   6.482  25.182  1.00  0.00     0.125 A 
ATOM      9  H3  UNL     1      33.831   7.946  26.378  1.00  0.00     0.167 HD
HETATM   10  C5  UNL     1      35.023   6.119  23.920  1.00  0.00     0.106 A 
HETATM   11  C17 UNL     1      34.863   7.034  22.916  1.00  0.00     0.130 A 
HETATM   12  N5  UNL     1      34.347   8.237  23.158  1.00  0.00    -0.321 N 
ATOM     13  H5  UNL     1      34.238   8.902  22.392  1.00  0.00     0.169 HD
BRANCH  10  14
HETATM   14  N2  UNL     1      35.565   4.853  23.660  1.00  0.00    -0.300 N 
HETATM   15  N1  UNL     1      36.802   4.674  23.944  1.00  0.00    -0.327 N 
ATOM     16  H1  UNL     1      37.329   5.451  24.342  1.00  0.00     0.181 HD
ATOM     17  H2  UNL     1      34.998   4.105  23.262  1.00  0.00     0.186 HD
BRANCH  15  18
HETATM   18  C2  UNL     1      37.475   3.430  23.728  1.00  0.00     0.035 C 
HETATM   19  C1  UNL     1      38.449   3.131  24.841  1.00  0.00     0.039 C 
HETATM   20  C3  UNL     1      38.213   3.455  22.403  1.00  0.00     0.039 C 
HETATM   21  C4  UNL     1      36.452   2.316  23.685  1.00  0.00     0.039 C 
ENDBRANCH  15  18
ENDBRANCH  10  14
BRANCH  11  22
HETATM   22  N6  UNL     1      35.218   6.730  21.701  1.00  0.00    -0.383 N 
ATOM     23  H62 UNL     1      35.227   7.463  20.990  1.00  0.00     0.157 HD
ATOM     24  H61 UNL     1      35.481   5.771  21.473  1.00  0.00     0.157 HD
ENDBRANCH  11  22
ENDBRANCH   5   6
ENDBRANCH   1   5
BRANCH   1  25
HETATM   25  C11 UNL     1      31.138  11.184  23.380  1.00  0.00    -0.018 A 
HETATM   26  C12 UNL     1      32.046  11.867  22.627  1.00  0.00     0.013 A 
HETATM   27  C13 UNL     1      31.647  12.646  21.527  1.00  0.00     0.001 A 
HETATM   28  C14 UNL     1      30.333  12.746  21.174  1.00  0.00     0.000 A 
HETATM   29  C15 UNL     1      29.409  12.062  21.926  1.00  0.00     0.001 A 
HETATM   30  C16 UNL     1      29.812  11.303  23.001  1.00  0.00     0.013 A 
ENDBRANCH   1  25
TORSDOF 6
ENDMDL
