MODEL 1
REMARK VINA RESULT: -9.268991029      0.000      0.000
REMARK  10 active torsions:
REMARK  status: ('A' for Active; 'I' for Inactive)
REMARK       I    between atoms: C2_2  and  N1_4 
REMARK    1  A    between atoms: N1_4  and  C4_6 
REMARK    2  A    between atoms: C6_8  and  C7_9 
REMARK    3  A    between atoms: C7_9  and  O3_11 
REMARK    4  A    between atoms: O3_11  and  C8_12 
REMARK    5  A    between atoms: C8_12  and  C9_13 
REMARK    6  A    between atoms: C9_13  and  C10_14 
REMARK    7  A    between atoms: C10_14  and  C11_15 
REMARK    8  A    between atoms: C19_23  and  C20_24 
REMARK    9  A    between atoms: C20_24  and  O4_25 
REMARK   10  A    between atoms: N2_27  and  O5_29 
ROOT
HETATM    1  C4  UNL     1       4.295  13.010  31.574  1.00  0.00     0.052 A 
HETATM    2  C5  UNL     1       3.830  11.697  31.745  1.00  0.00     0.048 A 
HETATM    3  C6  UNL     1       2.506  11.353  31.603  1.00  0.00     0.041 A 
HETATM    4  C17 UNL     1       1.645  12.379  31.276  1.00  0.00     0.018 A 
HETATM    5  C18 UNL     1       2.081  13.669  31.104  1.00  0.00     0.019 A 
HETATM    6  C19 UNL     1       3.429  14.024  31.250  1.00  0.00     0.043 A 
ENDROOT
BRANCH   3   7
HETATM    7  C7  UNL     1       2.069   9.973  31.799  1.00  0.00     0.293 C 
HETATM    8  O2  UNL     1       2.369   9.357  32.873  1.00  0.00    -0.259 OA
BRANCH   7   9
HETATM    9  O3  UNL     1       1.331   9.277  30.869  1.00  0.00    -0.318 OA
BRANCH   9  10
HETATM   10  C8  UNL     1       0.252   8.415  31.178  1.00  0.00     0.179 C 
BRANCH  10  11
HETATM   11  C9  UNL     1      -0.897   9.121  31.855  1.00  0.00     0.027 C 
BRANCH  11  12
HETATM   12  C10 UNL     1      -2.168   9.014  31.063  1.00  0.00     0.007 C 
BRANCH  12  13
HETATM   13  C11 UNL     1      -2.509  10.356  30.479  1.00  0.00    -0.014 C 
HETATM   14  C12 UNL     1      -3.862  10.379  29.812  1.00  0.00     0.004 C 
HETATM   15  C13 UNL     1      -3.879   9.731  28.466  1.00  0.00     0.000 C 
HETATM   16  C14 UNL     1      -2.810  10.321  27.568  1.00  0.00     0.000 C 
HETATM   17  C15 UNL     1      -1.466  10.052  28.231  1.00  0.00     0.000 C 
HETATM   18  C16 UNL     1      -1.471  10.872  29.527  1.00  0.00     0.004 C 
ENDBRANCH  12  13
ENDBRANCH  11  12
ENDBRANCH  10  11
ENDBRANCH   9  10
ENDBRANCH   7   9
ENDBRANCH   3   7
BRANCH   1  19
HETATM   19  N1  UNL     1       5.684  13.243  31.745  1.00  0.00    -0.322 N 
HETATM   20  C2  UNL     1       6.591  13.124  30.671  1.00  0.00     0.220 C 
HETATM   21  C1  UNL     1       6.066  12.700  29.346  1.00  0.00     0.117 C 
HETATM   22  O1  UNL     1       7.799  13.363  30.813  1.00  0.00    -0.274 OA
HETATM   23  C3  UNL     1       6.205  13.583  33.052  1.00  0.00     0.159 C 
ENDBRANCH   1  19
BRANCH   6  24
HETATM   24  C20 UNL     1       3.832  15.412  31.066  1.00  0.00     0.172 C 
HETATM   25  N2  UNL     1       3.185  16.123  30.200  1.00  0.00    -0.247 N 
ATOM     26  H2  UNL     1       2.424  15.675  29.690  1.00  0.00     0.196 HD
BRANCH  24  27
HETATM   27  O4  UNL     1       4.852  16.052  31.733  1.00  0.00    -0.344 OA
ATOM     28  H4  UNL     1       5.425  16.716  31.369  1.00  0.00     0.219 HD
ENDBRANCH  24  27
BRANCH  25  29
HETATM   29  O5  UNL     1       3.452  17.428  29.924  1.00  0.00    -0.288 OA
ATOM     30  H5  UNL     1       3.912  17.730  29.150  1.00  0.00     0.244 HD
ENDBRANCH  25  29
ENDBRANCH   6  24
TORSDOF 10
ENDMDL
MODEL 2
REMARK VINA RESULT: -9.263569571      0.737      1.288
REMARK  10 active torsions:
REMARK  status: ('A' for Active; 'I' for Inactive)
REMARK       I    between atoms: C2_2  and  N1_4 
REMARK    1  A    between atoms: N1_4  and  C4_6 
REMARK    2  A    between atoms: C6_8  and  C7_9 
REMARK    3  A    between atoms: C7_9  and  O3_11 
REMARK    4  A    between atoms: O3_11  and  C8_12 
REMARK    5  A    between atoms: C8_12  and  C9_13 
REMARK    6  A    between atoms: C9_13  and  C10_14 
REMARK    7  A    between atoms: C10_14  and  C11_15 
REMARK    8  A    between atoms: C19_23  and  C20_24 
REMARK    9  A    between atoms: C20_24  and  O4_25 
REMARK   10  A    between atoms: N2_27  and  O5_29 
ROOT
HETATM    1  C4  UNL     1       4.320  13.005  31.587  1.00  0.00     0.052 A 
HETATM    2  C5  UNL     1       3.837  11.698  31.757  1.00  0.00     0.048 A 
HETATM    3  C6  UNL     1       2.509  11.372  31.607  1.00  0.00     0.041 A 
HETATM    4  C17 UNL     1       1.664  12.408  31.274  1.00  0.00     0.018 A 
HETATM    5  C18 UNL     1       2.118  13.693  31.102  1.00  0.00     0.019 A 
HETATM    6  C19 UNL     1       3.470  14.030  31.255  1.00  0.00     0.043 A 
ENDROOT
BRANCH   3   7
HETATM    7  C7  UNL     1       2.052   9.998  31.803  1.00  0.00     0.293 C 
HETATM    8  O2  UNL     1       2.652   9.039  31.217  1.00  0.00    -0.259 OA
BRANCH   7   9
HETATM    9  O3  UNL     1       0.985   9.666  32.605  1.00  0.00    -0.318 OA
BRANCH   9  10
HETATM   10  C8  UNL     1      -0.260   9.185  32.133  1.00  0.00     0.179 C 
BRANCH  10  11
HETATM   11  C9  UNL     1      -1.303  10.267  32.004  1.00  0.00     0.027 C 
BRANCH  11  12
HETATM   12  C10 UNL     1      -1.322  10.869  30.627  1.00  0.00     0.007 C 
BRANCH  12  13
HETATM   13  C11 UNL     1      -1.122   9.786  29.605  1.00  0.00    -0.014 C 
HETATM   14  C12 UNL     1      -0.759  10.324  28.244  1.00  0.00     0.004 C 
HETATM   15  C13 UNL     1      -1.918  10.892  27.493  1.00  0.00     0.000 C 
HETATM   16  C14 UNL     1      -3.050   9.887  27.406  1.00  0.00     0.000 C 
HETATM   17  C15 UNL     1      -3.487   9.575  28.831  1.00  0.00     0.000 C 
HETATM   18  C16 UNL     1      -2.296   8.860  29.482  1.00  0.00     0.004 C 
ENDBRANCH  12  13
ENDBRANCH  11  12
ENDBRANCH  10  11
ENDBRANCH   9  10
ENDBRANCH   7   9
ENDBRANCH   3   7
BRANCH   1  19
HETATM   19  N1  UNL     1       5.710  13.220  31.766  1.00  0.00    -0.322 N 
HETATM   20  C2  UNL     1       6.620  13.106  30.693  1.00  0.00     0.220 C 
HETATM   21  C1  UNL     1       6.095  12.707  29.361  1.00  0.00     0.117 C 
HETATM   22  O1  UNL     1       7.831  13.329  30.843  1.00  0.00    -0.274 OA
HETATM   23  C3  UNL     1       6.231  13.534  33.079  1.00  0.00     0.159 C 
ENDBRANCH   1  19
BRANCH   6  24
HETATM   24  C20 UNL     1       3.893  15.412  31.071  1.00  0.00     0.172 C 
HETATM   25  N2  UNL     1       3.246  16.137  30.217  1.00  0.00    -0.247 N 
ATOM     26  H2  UNL     1       2.471  15.703  29.715  1.00  0.00     0.196 HD
BRANCH  24  27
HETATM   27  O4  UNL     1       4.931  16.032  31.727  1.00  0.00    -0.344 OA
ATOM     28  H4  UNL     1       4.882  16.446  32.581  1.00  0.00     0.219 HD
ENDBRANCH  24  27
BRANCH  25  29
HETATM   29  O5  UNL     1       3.530  17.438  29.943  1.00  0.00    -0.288 OA
ATOM     30  H5  UNL     1       4.246  17.926  30.332  1.00  0.00     0.244 HD
ENDBRANCH  25  29
ENDBRANCH   6  24
TORSDOF 10
ENDMDL
MODEL 3
REMARK VINA RESULT: -9.115325417      0.865      1.506
REMARK  10 active torsions:
REMARK  status: ('A' for Active; 'I' for Inactive)
REMARK       I    between atoms: C2_2  and  N1_4 
REMARK    1  A    between atoms: N1_4  and  C4_6 
REMARK    2  A    between atoms: C6_8  and  C7_9 
REMARK    3  A    between atoms: C7_9  and  O3_11 
REMARK    4  A    between atoms: O3_11  and  C8_12 
REMARK    5  A    between atoms: C8_12  and  C9_13 
REMARK    6  A    between atoms: C9_13  and  C10_14 
REMARK    7  A    between atoms: C10_14  and  C11_15 
REMARK    8  A    between atoms: C19_23  and  C20_24 
REMARK    9  A    between atoms: C20_24  and  O4_25 
REMARK   10  A    between atoms: N2_27  and  O5_29 
ROOT
HETATM    1  C4  UNL     1       4.177  12.840  31.428  1.00  0.00     0.052 A 
HETATM    2  C5  UNL     1       3.647  11.548  31.566  1.00  0.00     0.048 A 
HETATM    3  C6  UNL     1       2.297  11.289  31.508  1.00  0.00     0.041 A 
HETATM    4  C17 UNL     1       1.479  12.378  31.301  1.00  0.00     0.018 A 
HETATM    5  C18 UNL     1       1.979  13.649  31.163  1.00  0.00     0.019 A 
HETATM    6  C19 UNL     1       3.353  13.919  31.224  1.00  0.00     0.043 A 
ENDROOT
BRANCH   3   7
HETATM    7  C7  UNL     1       1.792   9.927  31.665  1.00  0.00     0.293 C 
HETATM    8  O2  UNL     1       1.880   9.342  32.794  1.00  0.00    -0.259 OA
BRANCH   7   9
HETATM    9  O3  UNL     1       1.209   9.216  30.642  1.00  0.00    -0.318 OA
BRANCH   9  10
HETATM   10  C8  UNL     1      -0.110   9.415  30.171  1.00  0.00     0.179 C 
BRANCH  10  11
HETATM   11  C9  UNL     1      -0.166  10.171  28.865  1.00  0.00     0.027 C 
BRANCH  11  12
HETATM   12  C10 UNL     1      -1.574  10.524  28.480  1.00  0.00     0.007 C 
BRANCH  12  13
HETATM   13  C11 UNL     1      -2.495   9.400  28.864  1.00  0.00    -0.014 C 
HETATM   14  C12 UNL     1      -3.010   8.631  27.673  1.00  0.00     0.004 C 
HETATM   15  C13 UNL     1      -4.095   9.335  26.927  1.00  0.00     0.000 C 
HETATM   16  C14 UNL     1      -5.223   9.731  27.859  1.00  0.00     0.000 C 
HETATM   17  C15 UNL     1      -4.639  10.680  28.896  1.00  0.00     0.000 C 
HETATM   18  C16 UNL     1      -3.650   9.841  29.715  1.00  0.00     0.004 C 
ENDBRANCH  12  13
ENDBRANCH  11  12
ENDBRANCH  10  11
ENDBRANCH   9  10
ENDBRANCH   7   9
ENDBRANCH   3   7
BRANCH   1  19
HETATM   19  N1  UNL     1       5.586  12.984  31.505  1.00  0.00    -0.322 N 
HETATM   20  C2  UNL     1       6.397  12.937  30.351  1.00  0.00     0.220 C 
HETATM   21  C1  UNL     1       5.746  12.685  29.038  1.00  0.00     0.117 C 
HETATM   22  O1  UNL     1       7.625  13.098  30.415  1.00  0.00    -0.274 OA
HETATM   23  C3  UNL     1       6.227  13.153  32.791  1.00  0.00     0.159 C 
ENDBRANCH   1  19
BRANCH   6  24
HETATM   24  C20 UNL     1       3.826  15.289  31.080  1.00  0.00     0.172 C 
HETATM   25  N2  UNL     1       3.207  16.061  30.247  1.00  0.00    -0.247 N 
ATOM     26  H2  UNL     1       2.418  15.670  29.732  1.00  0.00     0.196 HD
BRANCH  24  27
HETATM   27  O4  UNL     1       4.884  15.853  31.756  1.00  0.00    -0.344 OA
ATOM     28  H4  UNL     1       5.731  16.067  31.384  1.00  0.00     0.219 HD
ENDBRANCH  24  27
BRANCH  25  29
HETATM   29  O5  UNL     1       3.538  17.360  30.012  1.00  0.00    -0.288 OA
ATOM     30  H5  UNL     1       3.597  18.029  30.684  1.00  0.00     0.244 HD
ENDBRANCH  25  29
ENDBRANCH   6  24
TORSDOF 10
ENDMDL
MODEL 4
REMARK VINA RESULT: -9.027845838      1.356      1.762
REMARK  10 active torsions:
REMARK  status: ('A' for Active; 'I' for Inactive)
REMARK       I    between atoms: C2_2  and  N1_4 
REMARK    1  A    between atoms: N1_4  and  C4_6 
REMARK    2  A    between atoms: C6_8  and  C7_9 
REMARK    3  A    between atoms: C7_9  and  O3_11 
REMARK    4  A    between atoms: O3_11  and  C8_12 
REMARK    5  A    between atoms: C8_12  and  C9_13 
REMARK    6  A    between atoms: C9_13  and  C10_14 
REMARK    7  A    between atoms: C10_14  and  C11_15 
REMARK    8  A    between atoms: C19_23  and  C20_24 
REMARK    9  A    between atoms: C20_24  and  O4_25 
REMARK   10  A    between atoms: N2_27  and  O5_29 
ROOT
HETATM    1  C4  UNL     1       4.481  12.753  31.473  1.00  0.00     0.052 A 
HETATM    2  C5  UNL     1       3.684  11.710  30.976  1.00  0.00     0.048 A 
HETATM    3  C6  UNL     1       2.325  11.835  30.797  1.00  0.00     0.041 A 
HETATM    4  C17 UNL     1       1.779  13.054  31.133  1.00  0.00     0.018 A 
HETATM    5  C18 UNL     1       2.542  14.086  31.620  1.00  0.00     0.019 A 
HETATM    6  C19 UNL     1       3.926  13.964  31.805  1.00  0.00     0.043 A 
ENDROOT
BRANCH   3   7
HETATM    7  C7  UNL     1       1.536  10.717  30.285  1.00  0.00     0.293 C 
HETATM    8  O2  UNL     1       1.355  10.589  29.030  1.00  0.00    -0.259 OA
BRANCH   7   9
HETATM    9  O3  UNL     1       0.960   9.766  31.095  1.00  0.00    -0.318 OA
BRANCH   9  10
HETATM   10  C8  UNL     1      -0.278   9.919  31.764  1.00  0.00     0.179 C 
BRANCH  10  11
HETATM   11  C9  UNL     1      -1.211   8.751  31.559  1.00  0.00     0.027 C 
BRANCH  11  12
HETATM   12  C10 UNL     1      -1.876   8.793  30.213  1.00  0.00     0.007 C 
BRANCH  12  13
HETATM   13  C11 UNL     1      -2.263  10.209  29.889  1.00  0.00    -0.014 C 
HETATM   14  C12 UNL     1      -3.680  10.535  30.289  1.00  0.00     0.004 C 
HETATM   15  C13 UNL     1      -4.709   9.986  29.356  1.00  0.00     0.000 C 
HETATM   16  C14 UNL     1      -4.425  10.409  27.928  1.00  0.00     0.000 C 
HETATM   17  C15 UNL     1      -3.062   9.844  27.552  1.00  0.00     0.000 C 
HETATM   18  C16 UNL     1      -2.051  10.569  28.449  1.00  0.00     0.004 C 
ENDBRANCH  12  13
ENDBRANCH  11  12
ENDBRANCH  10  11
ENDBRANCH   9  10
ENDBRANCH   7   9
ENDBRANCH   3   7
BRANCH   1  19
HETATM   19  N1  UNL     1       5.871  12.508  31.613  1.00  0.00    -0.322 N 
HETATM   20  C2  UNL     1       6.728  12.452  30.493  1.00  0.00     0.220 C 
HETATM   21  C1  UNL     1       6.134  12.612  29.140  1.00  0.00     0.117 C 
HETATM   22  O1  UNL     1       7.949  12.273  30.619  1.00  0.00    -0.274 OA
HETATM   23  C3  UNL     1       6.437  12.277  32.924  1.00  0.00     0.159 C 
ENDBRANCH   1  19
BRANCH   6  24
HETATM   24  C20 UNL     1       4.684  15.089  32.335  1.00  0.00     0.172 C 
HETATM   25  N2  UNL     1       4.750  15.227  33.619  1.00  0.00    -0.247 N 
ATOM     26  H2  UNL     1       4.267  14.539  34.197  1.00  0.00     0.196 HD
BRANCH  24  27
HETATM   27  O4  UNL     1       5.349  16.036  31.590  1.00  0.00    -0.344 OA
ATOM     28  H4  UNL     1       5.722  15.904  30.726  1.00  0.00     0.219 HD
ENDBRANCH  24  27
BRANCH  25  29
HETATM   29  O5  UNL     1       5.421  16.228  34.251  1.00  0.00    -0.288 OA
ATOM     30  H5  UNL     1       5.074  16.732  34.978  1.00  0.00     0.244 HD
ENDBRANCH  25  29
ENDBRANCH   6  24
TORSDOF 10
ENDMDL
MODEL 5
REMARK VINA RESULT: -8.901850780      0.947      1.481
REMARK  10 active torsions:
REMARK  status: ('A' for Active; 'I' for Inactive)
REMARK       I    between atoms: C2_2  and  N1_4 
REMARK    1  A    between atoms: N1_4  and  C4_6 
REMARK    2  A    between atoms: C6_8  and  C7_9 
REMARK    3  A    between atoms: C7_9  and  O3_11 
REMARK    4  A    between atoms: O3_11  and  C8_12 
REMARK    5  A    between atoms: C8_12  and  C9_13 
REMARK    6  A    between atoms: C9_13  and  C10_14 
REMARK    7  A    between atoms: C10_14  and  C11_15 
REMARK    8  A    between atoms: C19_23  and  C20_24 
REMARK    9  A    between atoms: C20_24  and  O4_25 
REMARK   10  A    between atoms: N2_27  and  O5_29 
ROOT
HETATM    1  C4  UNL     1       3.826  12.836  31.430  1.00  0.00     0.052 A 
HETATM    2  C5  UNL     1       3.468  11.525  31.779  1.00  0.00     0.048 A 
HETATM    3  C6  UNL     1       2.203  11.022  31.580  1.00  0.00     0.041 A 
HETATM    4  C17 UNL     1       1.291  11.883  31.010  1.00  0.00     0.018 A 
HETATM    5  C18 UNL     1       1.622  13.169  30.661  1.00  0.00     0.019 A 
HETATM    6  C19 UNL     1       2.909  13.687  30.864  1.00  0.00     0.043 A 
ENDROOT
BRANCH   3   7
HETATM    7  C7  UNL     1       1.877   9.652  31.968  1.00  0.00     0.293 C 
HETATM    8  O2  UNL     1       2.112   9.253  33.155  1.00  0.00    -0.259 OA
BRANCH   7   9
HETATM    9  O3  UNL     1       1.313   8.739  31.106  1.00  0.00    -0.318 OA
BRANCH   9  10
HETATM   10  C8  UNL     1      -0.007   8.239  31.211  1.00  0.00     0.179 C 
BRANCH  10  11
HETATM   11  C9  UNL     1      -0.974   9.237  31.798  1.00  0.00     0.027 C 
BRANCH  11  12
HETATM   12  C10 UNL     1      -2.331   9.146  31.161  1.00  0.00     0.007 C 
BRANCH  12  13
HETATM   13  C11 UNL     1      -2.617  10.415  30.408  1.00  0.00    -0.014 C 
HETATM   14  C12 UNL     1      -4.008  10.451  29.826  1.00  0.00     0.004 C 
HETATM   15  C13 UNL     1      -4.165   9.622  28.593  1.00  0.00     0.000 C 
HETATM   16  C14 UNL     1      -3.123   9.992  27.557  1.00  0.00     0.000 C 
HETATM   17  C15 UNL     1      -1.758   9.714  28.171  1.00  0.00     0.000 C 
HETATM   18  C16 UNL     1      -1.614  10.707  29.331  1.00  0.00     0.004 C 
ENDBRANCH  12  13
ENDBRANCH  11  12
ENDBRANCH  10  11
ENDBRANCH   9  10
ENDBRANCH   7   9
ENDBRANCH   3   7
BRANCH   1  19
HETATM   19  N1  UNL     1       5.162  13.242  31.681  1.00  0.00    -0.322 N 
HETATM   20  C2  UNL     1       5.516  13.929  32.862  1.00  0.00     0.220 C 
HETATM   21  C1  UNL     1       4.442  14.265  33.834  1.00  0.00     0.117 C 
HETATM   22  O1  UNL     1       6.690  14.252  33.096  1.00  0.00    -0.274 OA
HETATM   23  C3  UNL     1       6.193  12.981  30.700  1.00  0.00     0.159 C 
ENDBRANCH   1  19
BRANCH   6  24
HETATM   24  C20 UNL     1       3.201  15.062  30.483  1.00  0.00     0.172 C 
HETATM   25  N2  UNL     1       2.733  16.011  31.228  1.00  0.00    -0.247 N 
ATOM     26  H2  UNL     1       2.183  15.747  32.046  1.00  0.00     0.196 HD
BRANCH  24  27
HETATM   27  O4  UNL     1       3.938  15.458  29.391  1.00  0.00    -0.344 OA
ATOM     28  H4  UNL     1       4.607  16.133  29.385  1.00  0.00     0.219 HD
ENDBRANCH  24  27
BRANCH  25  29
HETATM   29  O5  UNL     1       2.926  17.337  30.995  1.00  0.00    -0.288 OA
ATOM     30  H5  UNL     1       2.385  18.030  31.355  1.00  0.00     0.244 HD
ENDBRANCH  25  29
ENDBRANCH   6  24
TORSDOF 10
ENDMDL
