MODEL 1
REMARK VINA RESULT: -6.468190432      0.000      0.000
REMARK  7 active torsions:
REMARK  status: ('A' for Active; 'I' for Inactive)
REMARK    1  A    between atoms: O1_2  and  C2_3 
REMARK    2  A    between atoms: C5_6  and  C6_7 
REMARK    3  A    between atoms: C7_8  and  N1_9 
REMARK    4  A    between atoms: N1_9  and  C9_11 
REMARK    5  A    between atoms: C9_11  and  C10_12 
REMARK    6  A    between atoms: C18_24  and  N4_25 
REMARK    7  A    between atoms: C20_29  and  O2_30 
ROOT
HETATM    1  C6  UNL     1      -3.830   8.992  27.614  1.00  0.00     0.062 A 
HETATM    2  C7  UNL     1      -5.079   9.602  27.664  1.00  0.00     0.118 A 
HETATM    3  N2  UNL     1      -6.147   9.056  27.069  1.00  0.00    -0.338 N 
ATOM      4  H2  UNL     1      -7.053   9.522  27.118  1.00  0.00     0.168 HD
HETATM    5  C17 UNL     1      -6.025   7.891  26.406  1.00  0.00     0.183 A 
HETATM    6  N3  UNL     1      -4.844   7.259  26.328  1.00  0.00    -0.338 N 
ATOM      7  H3  UNL     1      -4.769   6.376  25.823  1.00  0.00     0.168 HD
HETATM    8  C18 UNL     1      -3.741   7.799  26.926  1.00  0.00     0.114 A 
ENDROOT
BRANCH   1   9
HETATM    9  C5  UNL     1      -2.681   9.605  28.247  1.00  0.00    -0.016 A 
HETATM   10  C4  UNL     1      -1.915  10.543  27.602  1.00  0.00     0.015 A 
HETATM   11  C3  UNL     1      -0.814  11.132  28.195  1.00  0.00     0.040 A 
HETATM   12  C2  UNL     1      -0.431  10.800  29.477  1.00  0.00     0.101 A 
HETATM   13  C20 UNL     1      -1.187   9.858  30.147  1.00  0.00     0.102 A 
HETATM   14  C19 UNL     1      -2.279   9.279  29.549  1.00  0.00     0.052 A 
BRANCH  12  15
HETATM   15  O1  UNL     1       0.685  11.397  30.074  1.00  0.00    -0.353 OA
HETATM   16  C1  UNL     1       1.729  11.935  29.247  1.00  0.00     0.210 C 
ENDBRANCH  12  15
BRANCH  13  17
HETATM   17  O2  UNL     1      -0.824   9.517  31.417  1.00  0.00    -0.353 OA
HETATM   18  C21 UNL     1       0.181   8.701  31.885  1.00  0.00     0.210 C 
ENDBRANCH  13  17
ENDBRANCH   1   9
BRANCH   2  19
HETATM   19  N1  UNL     1      -5.197  10.819  28.352  1.00  0.00    -0.370 N 
HETATM   20  C8  UNL     1      -5.208  10.830  29.831  1.00  0.00     0.151 C 
BRANCH  19  21
HETATM   21  C9  UNL     1      -5.345  12.127  27.756  1.00  0.00     0.128 C 
BRANCH  21  22
HETATM   22  C10 UNL     1      -6.598  12.859  28.097  1.00  0.00     0.003 C 
HETATM   23  C11 UNL     1      -6.510  14.335  28.170  1.00  0.00     0.006 C 
HETATM   24  C12 UNL     1      -7.748  15.080  27.811  1.00  0.00     0.000 C 
HETATM   25  C13 UNL     1      -7.889  15.342  26.319  1.00  0.00     0.000 C 
HETATM   26  C14 UNL     1      -8.559  14.130  25.723  1.00  0.00     0.000 C 
HETATM   27  C15 UNL     1      -7.582  12.978  25.797  1.00  0.00     0.000 C 
HETATM   28  C16 UNL     1      -7.698  12.363  27.163  1.00  0.00     0.006 C 
ENDBRANCH  21  22
ENDBRANCH  19  21
ENDBRANCH   2  19
BRANCH   8  29
HETATM   29  N4  UNL     1      -2.598   7.224  26.871  1.00  0.00    -0.385 N 
ATOM     30  H42 UNL     1      -1.774   7.630  27.314  1.00  0.00     0.157 HD
ATOM     31  H41 UNL     1      -2.533   6.339  26.366  1.00  0.00     0.157 HD
ENDBRANCH   8  29
TORSDOF 7
ENDMDL
MODEL 2
REMARK VINA RESULT: -6.168781009      7.158     10.469
REMARK  7 active torsions:
REMARK  status: ('A' for Active; 'I' for Inactive)
REMARK    1  A    between atoms: O1_2  and  C2_3 
REMARK    2  A    between atoms: C5_6  and  C6_7 
REMARK    3  A    between atoms: C7_8  and  N1_9 
REMARK    4  A    between atoms: N1_9  and  C9_11 
REMARK    5  A    between atoms: C9_11  and  C10_12 
REMARK    6  A    between atoms: C18_24  and  N4_25 
REMARK    7  A    between atoms: C20_29  and  O2_30 
ROOT
HETATM    1  C6  UNL     1       4.772  14.402  31.728  1.00  0.00     0.062 A 
HETATM    2  C7  UNL     1       4.932  13.296  30.900  1.00  0.00     0.118 A 
HETATM    3  N2  UNL     1       5.931  12.424  31.087  1.00  0.00    -0.338 N 
ATOM      4  H2  UNL     1       6.029  11.620  30.466  1.00  0.00     0.168 HD
HETATM    5  C17 UNL     1       6.805  12.608  32.093  1.00  0.00     0.183 A 
HETATM    6  N3  UNL     1       6.696  13.657  32.922  1.00  0.00    -0.338 N 
ATOM      7  H3  UNL     1       7.367  13.781  33.681  1.00  0.00     0.168 HD
HETATM    8  C18 UNL     1       5.685  14.560  32.749  1.00  0.00     0.114 A 
ENDROOT
BRANCH   1   9
HETATM    9  C5  UNL     1       3.696  15.346  31.503  1.00  0.00    -0.016 A 
HETATM   10  C4  UNL     1       2.450  15.166  32.051  1.00  0.00     0.015 A 
HETATM   11  C3  UNL     1       1.416  16.057  31.839  1.00  0.00     0.040 A 
HETATM   12  C2  UNL     1       1.589  17.181  31.061  1.00  0.00     0.101 A 
HETATM   13  C20 UNL     1       2.835  17.385  30.500  1.00  0.00     0.102 A 
HETATM   14  C19 UNL     1       3.856  16.493  30.716  1.00  0.00     0.052 A 
BRANCH  12  15
HETATM   15  O1  UNL     1       0.539  18.082  30.848  1.00  0.00    -0.353 OA
HETATM   16  C1  UNL     1      -0.434  18.292  31.883  1.00  0.00     0.210 C 
ENDBRANCH  12  15
BRANCH  13  17
HETATM   17  O2  UNL     1       3.027  18.493  29.727  1.00  0.00    -0.353 OA
HETATM   18  C21 UNL     1       2.200  19.556  29.445  1.00  0.00     0.210 C 
ENDBRANCH  13  17
ENDBRANCH   1   9
BRANCH   2  19
HETATM   19  N1  UNL     1       4.019  13.114  29.851  1.00  0.00    -0.370 N 
HETATM   20  C8  UNL     1       3.950  14.105  28.755  1.00  0.00     0.151 C 
BRANCH  19  21
HETATM   21  C9  UNL     1       3.070  12.032  29.723  1.00  0.00     0.128 C 
BRANCH  21  22
HETATM   22  C10 UNL     1       1.953  12.028  30.712  1.00  0.00     0.003 C 
HETATM   23  C11 UNL     1       0.611  11.663  30.201  1.00  0.00     0.006 C 
HETATM   24  C12 UNL     1      -0.294  10.990  31.173  1.00  0.00     0.000 C 
HETATM   25  C13 UNL     1      -0.105   9.481  31.235  1.00  0.00     0.000 C 
HETATM   26  C14 UNL     1       0.998   9.218  32.227  1.00  0.00     0.000 C 
HETATM   27  C15 UNL     1       2.292   9.719  31.623  1.00  0.00     0.000 C 
HETATM   28  C16 UNL     1       2.394  11.190  31.910  1.00  0.00     0.006 C 
ENDBRANCH  21  22
ENDBRANCH  19  21
ENDBRANCH   2  19
BRANCH   8  29
HETATM   29  N4  UNL     1       5.552  15.573  33.521  1.00  0.00    -0.385 N 
ATOM     30  H42 UNL     1       4.716  16.158  33.496  1.00  0.00     0.157 HD
ATOM     31  H41 UNL     1       6.312  15.783  34.169  1.00  0.00     0.157 HD
ENDBRANCH   8  29
TORSDOF 7
ENDMDL
MODEL 3
REMARK VINA RESULT: -5.930889433      3.632      7.727
REMARK  7 active torsions:
REMARK  status: ('A' for Active; 'I' for Inactive)
REMARK    1  A    between atoms: O1_2  and  C2_3 
REMARK    2  A    between atoms: C5_6  and  C6_7 
REMARK    3  A    between atoms: C7_8  and  N1_9 
REMARK    4  A    between atoms: N1_9  and  C9_11 
REMARK    5  A    between atoms: C9_11  and  C10_12 
REMARK    6  A    between atoms: C18_24  and  N4_25 
REMARK    7  A    between atoms: C20_29  and  O2_30 
ROOT
HETATM    1  C6  UNL     1      -0.709   9.360  30.659  1.00  0.00     0.062 A 
HETATM    2  C7  UNL     1       0.587   9.823  30.461  1.00  0.00     0.118 A 
HETATM    3  N2  UNL     1       1.539   9.649  31.386  1.00  0.00    -0.338 N 
ATOM      4  H2  UNL     1       2.483   9.997  31.219  1.00  0.00     0.168 HD
HETATM    5  C17 UNL     1       1.251   9.015  32.537  1.00  0.00     0.183 A 
HETATM    6  N3  UNL     1       0.016   8.547  32.780  1.00  0.00    -0.338 N 
ATOM      7  H3  UNL     1      -0.185   8.067  33.657  1.00  0.00     0.168 HD
HETATM    8  C18 UNL     1      -0.970   8.715  31.850  1.00  0.00     0.114 A 
ENDROOT
BRANCH   1   9
HETATM    9  C5  UNL     1      -1.732   9.571  29.656  1.00  0.00    -0.016 A 
HETATM   10  C4  UNL     1      -2.432  10.749  29.574  1.00  0.00     0.015 A 
HETATM   11  C3  UNL     1      -3.413  10.960  28.624  1.00  0.00     0.040 A 
HETATM   12  C2  UNL     1      -3.737   9.987  27.704  1.00  0.00     0.101 A 
HETATM   13  C20 UNL     1      -3.045   8.793  27.765  1.00  0.00     0.102 A 
HETATM   14  C19 UNL     1      -2.073   8.593  28.713  1.00  0.00     0.052 A 
BRANCH  12  15
HETATM   15  O1  UNL     1      -4.731  10.204  26.743  1.00  0.00    -0.353 OA
HETATM   16  C1  UNL     1      -6.072  10.500  27.165  1.00  0.00     0.210 C 
ENDBRANCH  12  15
BRANCH  13  17
HETATM   17  O2  UNL     1      -3.350   7.817  26.861  1.00  0.00    -0.353 OA
HETATM   18  C21 UNL     1      -3.052   6.474  26.842  1.00  0.00     0.210 C 
ENDBRANCH  13  17
ENDBRANCH   1   9
BRANCH   2  19
HETATM   19  N1  UNL     1       0.879  10.487  29.260  1.00  0.00    -0.370 N 
HETATM   20  C8  UNL     1       0.788   9.760  27.975  1.00  0.00     0.151 C 
BRANCH  19  21
HETATM   21  C9  UNL     1       1.308  11.861  29.127  1.00  0.00     0.128 C 
BRANCH  21  22
HETATM   22  C10 UNL     1       2.658  12.176  29.676  1.00  0.00     0.003 C 
HETATM   23  C11 UNL     1       3.452  13.195  28.952  1.00  0.00     0.006 C 
HETATM   24  C12 UNL     1       4.389  14.002  29.783  1.00  0.00     0.000 C 
HETATM   25  C13 UNL     1       3.739  15.221  30.420  1.00  0.00     0.000 C 
HETATM   26  C14 UNL     1       3.131  14.763  31.722  1.00  0.00     0.000 C 
HETATM   27  C15 UNL     1       1.961  13.861  31.393  1.00  0.00     0.000 C 
HETATM   28  C16 UNL     1       2.498  12.477  31.164  1.00  0.00     0.006 C 
ENDBRANCH  21  22
ENDBRANCH  19  21
ENDBRANCH   2  19
BRANCH   8  29
HETATM   29  N4  UNL     1      -2.160   8.282  32.049  1.00  0.00    -0.385 N 
ATOM     30  H42 UNL     1      -2.971   8.745  31.639  1.00  0.00     0.157 HD
ATOM     31  H41 UNL     1      -2.275   7.455  32.634  1.00  0.00     0.157 HD
ENDBRANCH   8  29
TORSDOF 7
ENDMDL
MODEL 4
REMARK VINA RESULT: -5.826884389      2.505      6.859
REMARK  7 active torsions:
REMARK  status: ('A' for Active; 'I' for Inactive)
REMARK    1  A    between atoms: O1_2  and  C2_3 
REMARK    2  A    between atoms: C5_6  and  C6_7 
REMARK    3  A    between atoms: C7_8  and  N1_9 
REMARK    4  A    between atoms: N1_9  and  C9_11 
REMARK    5  A    between atoms: C9_11  and  C10_12 
REMARK    6  A    between atoms: C18_24  and  N4_25 
REMARK    7  A    between atoms: C20_29  and  O2_30 
ROOT
HETATM    1  C6  UNL     1      -4.335   8.765  27.432  1.00  0.00     0.062 A 
HETATM    2  C7  UNL     1      -2.954   8.641  27.536  1.00  0.00     0.118 A 
HETATM    3  N2  UNL     1      -2.321   7.535  27.127  1.00  0.00    -0.338 N 
ATOM      4  H2  UNL     1      -1.306   7.466  27.215  1.00  0.00     0.168 HD
HETATM    5  C17 UNL     1      -3.021   6.514  26.602  1.00  0.00     0.183 A 
HETATM    6  N3  UNL     1      -4.356   6.581  26.476  1.00  0.00    -0.338 N 
ATOM      7  H3  UNL     1      -4.872   5.798  26.074  1.00  0.00     0.168 HD
HETATM    8  C18 UNL     1      -5.022   7.700  26.888  1.00  0.00     0.114 A 
ENDROOT
BRANCH   1   9
HETATM    9  C5  UNL     1      -5.008   9.962  27.894  1.00  0.00    -0.016 A 
HETATM   10  C4  UNL     1      -5.017  10.319  29.220  1.00  0.00     0.015 A 
HETATM   11  C3  UNL     1      -5.658  11.456  29.673  1.00  0.00     0.040 A 
HETATM   12  C2  UNL     1      -6.326  12.293  28.806  1.00  0.00     0.101 A 
HETATM   13  C20 UNL     1      -6.331  11.955  27.467  1.00  0.00     0.102 A 
HETATM   14  C19 UNL     1      -5.691  10.824  27.026  1.00  0.00     0.052 A 
BRANCH  12  15
HETATM   15  O1  UNL     1      -6.976  13.443  29.268  1.00  0.00    -0.353 OA
HETATM   16  C1  UNL     1      -6.444  14.737  28.942  1.00  0.00     0.210 C 
ENDBRANCH  12  15
BRANCH  13  17
HETATM   17  O2  UNL     1      -6.986  12.772  26.591  1.00  0.00    -0.353 OA
HETATM   18  C21 UNL     1      -7.738  12.487  25.475  1.00  0.00     0.210 C 
ENDBRANCH  13  17
ENDBRANCH   1   9
BRANCH   2  19
HETATM   19  N1  UNL     1      -2.231   9.709  28.090  1.00  0.00    -0.370 N 
HETATM   20  C8  UNL     1      -2.125  10.987  27.354  1.00  0.00     0.151 C 
BRANCH  19  21
HETATM   21  C9  UNL     1      -1.518   9.695  29.346  1.00  0.00     0.128 C 
BRANCH  21  22
HETATM   22  C10 UNL     1      -0.041   9.883  29.257  1.00  0.00     0.003 C 
HETATM   23  C11 UNL     1       0.447  11.274  29.114  1.00  0.00     0.006 C 
HETATM   24  C12 UNL     1       1.784  11.560  29.705  1.00  0.00     0.000 C 
HETATM   25  C13 UNL     1       1.730  11.922  31.182  1.00  0.00     0.000 C 
HETATM   26  C14 UNL     1       1.772  10.626  31.952  1.00  0.00     0.000 C 
HETATM   27  C15 UNL     1       0.466   9.902  31.710  1.00  0.00     0.000 C 
HETATM   28  C16 UNL     1       0.596   9.135  30.425  1.00  0.00     0.006 C 
ENDBRANCH  21  22
ENDBRANCH  19  21
ENDBRANCH   2  19
BRANCH   8  29
HETATM   29  N4  UNL     1      -6.296   7.798  26.785  1.00  0.00    -0.385 N 
ATOM     30  H42 UNL     1      -6.749   8.694  26.602  1.00  0.00     0.157 HD
ATOM     31  H41 UNL     1      -6.850   6.948  26.891  1.00  0.00     0.157 HD
ENDBRANCH   8  29
TORSDOF 7
ENDMDL
MODEL 5
REMARK VINA RESULT: -5.730525030      0.755      1.734
REMARK  7 active torsions:
REMARK  status: ('A' for Active; 'I' for Inactive)
REMARK    1  A    between atoms: O1_2  and  C2_3 
REMARK    2  A    between atoms: C5_6  and  C6_7 
REMARK    3  A    between atoms: C7_8  and  N1_9 
REMARK    4  A    between atoms: N1_9  and  C9_11 
REMARK    5  A    between atoms: C9_11  and  C10_12 
REMARK    6  A    between atoms: C18_24  and  N4_25 
REMARK    7  A    between atoms: C20_29  and  O2_30 
ROOT
HETATM    1  C6  UNL     1      -3.852   9.239  27.829  1.00  0.00     0.062 A 
HETATM    2  C7  UNL     1      -5.001  10.004  27.663  1.00  0.00     0.118 A 
HETATM    3  N2  UNL     1      -5.909   9.704  26.726  1.00  0.00    -0.338 N 
ATOM      4  H2  UNL     1      -6.744  10.280  26.622  1.00  0.00     0.168 HD
HETATM    5  C17 UNL     1      -5.721   8.642  25.922  1.00  0.00     0.183 A 
HETATM    6  N3  UNL     1      -4.630   7.868  26.041  1.00  0.00    -0.338 N 
ATOM      7  H3  UNL     1      -4.503   7.066  25.424  1.00  0.00     0.168 HD
HETATM    8  C18 UNL     1      -3.690   8.157  26.989  1.00  0.00     0.114 A 
ENDROOT
BRANCH   1   9
HETATM    9  C5  UNL     1      -2.870   9.587  28.836  1.00  0.00    -0.016 A 
HETATM   10  C4  UNL     1      -2.926   9.075  30.108  1.00  0.00     0.015 A 
HETATM   11  C3  UNL     1      -1.998   9.402  31.077  1.00  0.00     0.040 A 
HETATM   12  C2  UNL     1      -0.959  10.268  30.808  1.00  0.00     0.101 A 
HETATM   13  C20 UNL     1      -0.880  10.795  29.534  1.00  0.00     0.102 A 
HETATM   14  C19 UNL     1      -1.808  10.463  28.578  1.00  0.00     0.052 A 
BRANCH  12  15
HETATM   15  O1  UNL     1      -0.021  10.599  31.792  1.00  0.00    -0.353 OA
HETATM   16  C1  UNL     1       0.940   9.617  32.214  1.00  0.00     0.210 C 
ENDBRANCH  12  15
BRANCH  13  17
HETATM   17  O2  UNL     1       0.142  11.653  29.247  1.00  0.00    -0.353 OA
HETATM   18  C21 UNL     1       1.470  11.421  28.973  1.00  0.00     0.210 C 
ENDBRANCH  13  17
ENDBRANCH   1   9
BRANCH   2  19
HETATM   19  N1  UNL     1      -5.188  11.113  28.502  1.00  0.00    -0.370 N 
HETATM   20  C8  UNL     1      -5.300  10.919  29.964  1.00  0.00     0.151 C 
BRANCH  19  21
HETATM   21  C9  UNL     1      -5.319  12.489  28.081  1.00  0.00     0.128 C 
BRANCH  21  22
HETATM   22  C10 UNL     1      -6.584  13.171  28.476  1.00  0.00     0.003 C 
HETATM   23  C11 UNL     1      -6.514  14.634  28.697  1.00  0.00     0.006 C 
HETATM   24  C12 UNL     1      -7.756  15.399  28.395  1.00  0.00     0.000 C 
HETATM   25  C13 UNL     1      -7.878  15.807  26.935  1.00  0.00     0.000 C 
HETATM   26  C14 UNL     1      -8.527  14.655  26.211  1.00  0.00     0.000 C 
HETATM   27  C15 UNL     1      -7.538  13.510  26.184  1.00  0.00     0.000 C 
HETATM   28  C16 UNL     1      -7.666  12.761  27.480  1.00  0.00     0.006 C 
ENDBRANCH  21  22
ENDBRANCH  19  21
ENDBRANCH   2  19
BRANCH   8  29
HETATM   29  N4  UNL     1      -2.637   7.442  27.129  1.00  0.00    -0.385 N 
ATOM     30  H42 UNL     1      -1.868   7.486  26.459  1.00  0.00     0.157 HD
ATOM     31  H41 UNL     1      -2.585   6.820  27.936  1.00  0.00     0.157 HD
ENDBRANCH   8  29
TORSDOF 7
ENDMDL
