MODEL 1
REMARK VINA RESULT: -8.781466125      0.000      0.000
REMARK  7 active torsions:
REMARK  status: ('A' for Active; 'I' for Inactive)
REMARK    1  A    between atoms: C5_5  and  C6_6 
REMARK    2  A    between atoms: C6_6  and  O1_7 
REMARK    3  A    between atoms: C11_15  and  C12_16 
REMARK    4  A    between atoms: C12_16  and  C13_18 
REMARK    5  A    between atoms: C13_18  and  C14_19 
REMARK    6  A    between atoms: C14_19  and  C15_20 
REMARK    7  A    between atoms: C15_20  and  C16_21 
ROOT
HETATM    1  C1  UNL     1       5.208  11.642  28.817  1.00  0.00     0.017 C 
HETATM    2  C2  UNL     1       4.270  12.475  29.859  1.00  0.00    -0.023 C 
HETATM    3  C3  UNL     1       4.616  13.864  29.679  1.00  0.00     0.011 C 
HETATM    4  C4  UNL     1       3.670  14.995  29.271  1.00  0.00     0.012 C 
HETATM    5  C5  UNL     1       2.680  15.384  30.493  1.00  0.00     0.039 C 
HETATM    6  C7  UNL     1       3.033  14.165  31.297  1.00  0.00    -0.066 C 
HETATM    7  C8  UNL     1       4.062  14.005  32.127  1.00  0.00     0.049 C 
HETATM    8  S1  UNL     1       4.163  12.194  32.775  1.00  0.00    -0.128 SA
HETATM    9  C9  UNL     1       4.310  11.519  30.995  1.00  0.00     0.130 C 
HETATM   10  C10 UNL     1       2.937  10.815  30.965  1.00  0.00     0.158 C 
HETATM   11  O2  UNL     1       2.759   9.699  31.295  1.00  0.00    -0.295 OA
HETATM   12  C11 UNL     1       2.074  11.929  30.439  1.00  0.00     0.086 C 
HETATM   13  C19 UNL     1       1.937  13.059  31.330  1.00  0.00     0.060 C 
HETATM   14  C20 UNL     1       2.890  12.179  29.182  1.00  0.00     0.036 C 
ENDROOT
BRANCH  12  15
HETATM   15  C12 UNL     1       0.767  11.367  30.100  1.00  0.00     0.143 C 
HETATM   16  O3  UNL     1       0.633  10.718  29.081  1.00  0.00    -0.297 OA
BRANCH  15  17
HETATM   17  C13 UNL     1      -0.400  11.569  30.973  1.00  0.00     0.080 C 
BRANCH  17  18
HETATM   18  C14 UNL     1      -0.859  10.252  31.611  1.00  0.00     0.013 C 
BRANCH  18  19
HETATM   19  C15 UNL     1      -2.306  10.436  31.990  1.00  0.00     0.059 C 
BRANCH  19  20
HETATM   20  C16 UNL     1      -3.211  10.247  30.839  1.00  0.00     0.025 A 
HETATM   21  C17 UNL     1      -3.027   9.397  29.762  1.00  0.00     0.113 A 
HETATM   22  N1  UNL     1      -4.070   9.506  28.918  1.00  0.00    -0.360 N 
HETATM   23  C18 UNL     1      -4.902  10.416  29.463  1.00  0.00     0.180 A 
ATOM     24  H1  UNL     1      -4.204   9.001  28.041  1.00  0.00     0.166 HD
HETATM   25  N2  UNL     1      -4.379  10.861  30.623  1.00  0.00    -0.355 N 
ATOM     26  H2  UNL     1      -4.806  11.555  31.237  1.00  0.00     0.166 HD
ENDBRANCH  19  20
ENDBRANCH  18  19
ENDBRANCH  17  18
ENDBRANCH  15  17
ENDBRANCH  12  15
BRANCH   5  27
HETATM   27  C6  UNL     1       2.897  16.758  30.903  1.00  0.00     0.173 C 
BRANCH  27  28
HETATM   28  O1  UNL     1       3.292  17.636  29.898  1.00  0.00    -0.400 OA
ATOM     29  H1  UNL     1       3.441  18.535  30.169  1.00  0.00     0.209 HD
ENDBRANCH  27  28
ENDBRANCH   5  27
TORSDOF 7
ENDMDL
MODEL 2
REMARK VINA RESULT: -8.609732546      1.018      1.440
REMARK  7 active torsions:
REMARK  status: ('A' for Active; 'I' for Inactive)
REMARK    1  A    between atoms: C5_5  and  C6_6 
REMARK    2  A    between atoms: C6_6  and  O1_7 
REMARK    3  A    between atoms: C11_15  and  C12_16 
REMARK    4  A    between atoms: C12_16  and  C13_18 
REMARK    5  A    between atoms: C13_18  and  C14_19 
REMARK    6  A    between atoms: C14_19  and  C15_20 
REMARK    7  A    between atoms: C15_20  and  C16_21 
ROOT
HETATM    1  C1  UNL     1       5.256  11.637  28.930  1.00  0.00     0.017 C 
HETATM    2  C2  UNL     1       4.299  12.499  29.931  1.00  0.00    -0.023 C 
HETATM    3  C3  UNL     1       4.661  13.882  29.731  1.00  0.00     0.011 C 
HETATM    4  C4  UNL     1       3.734  15.010  29.277  1.00  0.00     0.012 C 
HETATM    5  C5  UNL     1       2.717  15.432  30.465  1.00  0.00     0.039 C 
HETATM    6  C7  UNL     1       3.041  14.228  31.303  1.00  0.00    -0.066 C 
HETATM    7  C8  UNL     1       4.048  14.077  32.161  1.00  0.00     0.049 C 
HETATM    8  S1  UNL     1       4.119  12.279  32.849  1.00  0.00    -0.128 SA
HETATM    9  C9  UNL     1       4.304  11.566  31.088  1.00  0.00     0.130 C 
HETATM   10  C10 UNL     1       2.927  10.872  31.039  1.00  0.00     0.158 C 
HETATM   11  O2  UNL     1       2.733   9.765  31.386  1.00  0.00    -0.295 OA
HETATM   12  C11 UNL     1       2.086  11.981  30.468  1.00  0.00     0.086 C 
HETATM   13  C19 UNL     1       1.936  13.130  31.332  1.00  0.00     0.060 C 
HETATM   14  C20 UNL     1       2.934  12.199  29.227  1.00  0.00     0.036 C 
ENDROOT
BRANCH  12  15
HETATM   15  C12 UNL     1       0.783  11.421  30.109  1.00  0.00     0.143 C 
HETATM   16  O3  UNL     1      -0.186  11.648  30.807  1.00  0.00    -0.297 OA
BRANCH  15  17
HETATM   17  C13 UNL     1       0.617  10.583  28.911  1.00  0.00     0.080 C 
BRANCH  17  18
HETATM   18  C14 UNL     1      -0.609  11.010  28.093  1.00  0.00     0.013 C 
BRANCH  18  19
HETATM   19  C15 UNL     1      -1.530   9.819  28.040  1.00  0.00     0.059 C 
BRANCH  19  20
HETATM   20  C16 UNL     1      -2.764  10.034  28.818  1.00  0.00     0.025 A 
HETATM   21  C17 UNL     1      -4.069   9.920  28.368  1.00  0.00     0.113 A 
HETATM   22  N1  UNL     1      -4.920  10.195  29.373  1.00  0.00    -0.360 N 
HETATM   23  C18 UNL     1      -4.155  10.478  30.447  1.00  0.00     0.180 A 
ATOM     24  H1  UNL     1      -5.939  10.190  29.332  1.00  0.00     0.166 HD
HETATM   25  N2  UNL     1      -2.854  10.381  30.107  1.00  0.00    -0.355 N 
ATOM     26  H2  UNL     1      -2.065  10.545  30.732  1.00  0.00     0.166 HD
ENDBRANCH  19  20
ENDBRANCH  18  19
ENDBRANCH  17  18
ENDBRANCH  15  17
ENDBRANCH  12  15
BRANCH   5  27
HETATM   27  C6  UNL     1       2.935  16.812  30.853  1.00  0.00     0.173 C 
BRANCH  27  28
HETATM   28  O1  UNL     1       3.398  17.658  29.849  1.00  0.00    -0.400 OA
ATOM     29  H1  UNL     1       4.336  17.651  29.702  1.00  0.00     0.209 HD
ENDBRANCH  27  28
ENDBRANCH   5  27
TORSDOF 7
ENDMDL
MODEL 3
REMARK VINA RESULT: -8.231489958      1.986      3.051
REMARK  7 active torsions:
REMARK  status: ('A' for Active; 'I' for Inactive)
REMARK    1  A    between atoms: C5_5  and  C6_6 
REMARK    2  A    between atoms: C6_6  and  O1_7 
REMARK    3  A    between atoms: C11_15  and  C12_16 
REMARK    4  A    between atoms: C12_16  and  C13_18 
REMARK    5  A    between atoms: C13_18  and  C14_19 
REMARK    6  A    between atoms: C14_19  and  C15_20 
REMARK    7  A    between atoms: C15_20  and  C16_21 
ROOT
HETATM    1  C1  UNL     1       3.480  15.037  29.405  1.00  0.00     0.017 C 
HETATM    2  C2  UNL     1       4.221  14.277  30.643  1.00  0.00    -0.023 C 
HETATM    3  C3  UNL     1       4.589  15.311  31.580  1.00  0.00     0.011 C 
HETATM    4  C4  UNL     1       4.151  15.415  33.041  1.00  0.00     0.012 C 
HETATM    5  C5  UNL     1       4.905  14.305  33.948  1.00  0.00     0.039 C 
HETATM    6  C7  UNL     1       5.417  13.540  32.761  1.00  0.00    -0.066 C 
HETATM    7  C8  UNL     1       6.521  13.774  32.053  1.00  0.00     0.049 C 
HETATM    8  S1  UNL     1       6.630  12.610  30.522  1.00  0.00    -0.128 SA
HETATM    9  C9  UNL     1       4.963  13.258  29.856  1.00  0.00     0.130 C 
HETATM   10  C10 UNL     1       4.174  11.949  30.065  1.00  0.00     0.158 C 
HETATM   11  O2  UNL     1       4.081  11.097  29.259  1.00  0.00    -0.295 OA
HETATM   12  C11 UNL     1       3.663  12.162  31.464  1.00  0.00     0.086 C 
HETATM   13  C19 UNL     1       4.688  12.192  32.483  1.00  0.00     0.060 C 
HETATM   14  C20 UNL     1       2.980  13.489  31.181  1.00  0.00     0.036 C 
ENDROOT
BRANCH  12  15
HETATM   15  C12 UNL     1       2.673  11.124  31.747  1.00  0.00     0.143 C 
HETATM   16  O3  UNL     1       2.999  10.128  32.363  1.00  0.00    -0.297 OA
BRANCH  15  17
HETATM   17  C13 UNL     1       1.277  11.258  31.300  1.00  0.00     0.080 C 
BRANCH  17  18
HETATM   18  C14 UNL     1       0.798   9.997  30.571  1.00  0.00     0.013 C 
BRANCH  18  19
HETATM   19  C15 UNL     1      -0.183   9.313  31.488  1.00  0.00     0.059 C 
BRANCH  19  20
HETATM   20  C16 UNL     1      -1.572   9.742  31.237  1.00  0.00     0.025 A 
HETATM   21  C17 UNL     1      -2.342  10.585  32.020  1.00  0.00     0.113 A 
HETATM   22  N1  UNL     1      -3.557  10.737  31.461  1.00  0.00    -0.360 N 
HETATM   23  C18 UNL     1      -3.548   9.996  30.334  1.00  0.00     0.180 A 
ATOM     24  H1  UNL     1      -4.330  11.299  31.817  1.00  0.00     0.166 HD
HETATM   25  N2  UNL     1      -2.348   9.397  30.203  1.00  0.00    -0.355 N 
ATOM     26  H2  UNL     1      -2.074   8.779  29.439  1.00  0.00     0.166 HD
ENDBRANCH  19  20
ENDBRANCH  18  19
ENDBRANCH  17  18
ENDBRANCH  15  17
ENDBRANCH  12  15
BRANCH   5  27
HETATM   27  C6  UNL     1       5.727  14.948  34.956  1.00  0.00     0.173 C 
BRANCH  27  28
HETATM   28  O1  UNL     1       5.889  16.323  34.820  1.00  0.00    -0.400 OA
ATOM     29  H1  UNL     1       6.782  16.626  34.705  1.00  0.00     0.209 HD
ENDBRANCH  27  28
ENDBRANCH   5  27
TORSDOF 7
ENDMDL
MODEL 4
REMARK VINA RESULT: -8.164686461      2.125      3.124
REMARK  7 active torsions:
REMARK  status: ('A' for Active; 'I' for Inactive)
REMARK    1  A    between atoms: C5_5  and  C6_6 
REMARK    2  A    between atoms: C6_6  and  O1_7 
REMARK    3  A    between atoms: C11_15  and  C12_16 
REMARK    4  A    between atoms: C12_16  and  C13_18 
REMARK    5  A    between atoms: C13_18  and  C14_19 
REMARK    6  A    between atoms: C14_19  and  C15_20 
REMARK    7  A    between atoms: C15_20  and  C16_21 
ROOT
HETATM    1  C1  UNL     1       3.582  15.051  29.329  1.00  0.00     0.017 C 
HETATM    2  C2  UNL     1       4.267  14.273  30.588  1.00  0.00    -0.023 C 
HETATM    3  C3  UNL     1       4.650  15.300  31.527  1.00  0.00     0.011 C 
HETATM    4  C4  UNL     1       4.182  15.430  32.977  1.00  0.00     0.012 C 
HETATM    5  C5  UNL     1       4.875  14.300  33.909  1.00  0.00     0.039 C 
HETATM    6  C7  UNL     1       5.386  13.509  32.738  1.00  0.00    -0.066 C 
HETATM    7  C8  UNL     1       6.513  13.697  32.055  1.00  0.00     0.049 C 
HETATM    8  S1  UNL     1       6.616  12.519  30.534  1.00  0.00    -0.128 SA
HETATM    9  C9  UNL     1       4.989  13.222  29.825  1.00  0.00     0.130 C 
HETATM   10  C10 UNL     1       4.149  11.944  30.024  1.00  0.00     0.158 C 
HETATM   11  O2  UNL     1       4.043  11.090  29.221  1.00  0.00    -0.295 OA
HETATM   12  C11 UNL     1       3.613  12.186  31.409  1.00  0.00     0.086 C 
HETATM   13  C19 UNL     1       4.615  12.186  32.452  1.00  0.00     0.060 C 
HETATM   14  C20 UNL     1       2.986  13.534  31.102  1.00  0.00     0.036 C 
ENDROOT
BRANCH  12  15
HETATM   15  C12 UNL     1       2.580  11.186  31.675  1.00  0.00     0.143 C 
HETATM   16  O3  UNL     1       2.859  10.177  32.294  1.00  0.00    -0.297 OA
BRANCH  15  17
HETATM   17  C13 UNL     1       1.197  11.375  31.208  1.00  0.00     0.080 C 
BRANCH  17  18
HETATM   18  C14 UNL     1       0.805  10.313  30.173  1.00  0.00     0.013 C 
BRANCH  18  19
HETATM   19  C15 UNL     1       0.157  11.046  29.026  1.00  0.00     0.059 C 
BRANCH  19  20
HETATM   20  C16 UNL     1      -1.151  10.467  28.664  1.00  0.00     0.025 A 
HETATM   21  C17 UNL     1      -1.863   9.507  29.363  1.00  0.00     0.113 A 
HETATM   22  N1  UNL     1      -3.012   9.236  28.716  1.00  0.00    -0.360 N 
HETATM   23  C18 UNL     1      -3.021  10.022  27.620  1.00  0.00     0.180 A 
ATOM     24  H1  UNL     1      -3.731   8.570  28.997  1.00  0.00     0.166 HD
HETATM   25  N2  UNL     1      -1.895  10.763  27.593  1.00  0.00    -0.355 N 
ATOM     26  H2  UNL     1      -1.650  11.442  26.872  1.00  0.00     0.166 HD
ENDBRANCH  19  20
ENDBRANCH  18  19
ENDBRANCH  17  18
ENDBRANCH  15  17
ENDBRANCH  12  15
BRANCH   5  27
HETATM   27  C6  UNL     1       5.696  14.919  34.931  1.00  0.00     0.173 C 
BRANCH  27  28
HETATM   28  O1  UNL     1       5.865  16.296  34.822  1.00  0.00    -0.400 OA
ATOM     29  H1  UNL     1       5.754  16.659  33.951  1.00  0.00     0.209 HD
ENDBRANCH  27  28
ENDBRANCH   5  27
TORSDOF 7
ENDMDL
MODEL 5
REMARK VINA RESULT: -7.898769867      2.295      3.976
REMARK  7 active torsions:
REMARK  status: ('A' for Active; 'I' for Inactive)
REMARK    1  A    between atoms: C5_5  and  C6_6 
REMARK    2  A    between atoms: C6_6  and  O1_7 
REMARK    3  A    between atoms: C11_15  and  C12_16 
REMARK    4  A    between atoms: C12_16  and  C13_18 
REMARK    5  A    between atoms: C13_18  and  C14_19 
REMARK    6  A    between atoms: C14_19  and  C15_20 
REMARK    7  A    between atoms: C15_20  and  C16_21 
ROOT
HETATM    1  C1  UNL     1       4.232  14.408  33.848  1.00  0.00     0.017 C 
HETATM    2  C2  UNL     1       4.685  13.655  32.474  1.00  0.00    -0.023 C 
HETATM    3  C3  UNL     1       6.128  13.624  32.498  1.00  0.00     0.011 C 
HETATM    4  C4  UNL     1       7.013  12.378  32.451  1.00  0.00     0.012 C 
HETATM    5  C5  UNL     1       7.009  11.725  30.968  1.00  0.00     0.039 C 
HETATM    6  C7  UNL     1       5.845  12.553  30.501  1.00  0.00    -0.066 C 
HETATM    7  C8  UNL     1       5.869  13.788  30.003  1.00  0.00     0.049 C 
HETATM    8  S1  UNL     1       4.088  14.464  29.720  1.00  0.00    -0.128 SA
HETATM    9  C9  UNL     1       3.660  14.230  31.566  1.00  0.00     0.130 C 
HETATM   10  C10 UNL     1       2.635  13.095  31.361  1.00  0.00     0.158 C 
HETATM   11  O2  UNL     1       1.483  13.268  31.192  1.00  0.00    -0.295 OA
HETATM   12  C11 UNL     1       3.538  11.895  31.451  1.00  0.00     0.086 C 
HETATM   13  C19 UNL     1       4.498  11.781  30.376  1.00  0.00     0.060 C 
HETATM   14  C20 UNL     1       4.117  12.236  32.814  1.00  0.00     0.036 C 
ENDROOT
BRANCH  12  15
HETATM   15  C12 UNL     1       2.698  10.702  31.533  1.00  0.00     0.143 C 
HETATM   16  O3  UNL     1       2.464  10.199  32.615  1.00  0.00    -0.297 OA
BRANCH  15  17
HETATM   17  C13 UNL     1       2.122  10.089  30.325  1.00  0.00     0.080 C 
BRANCH  17  18
HETATM   18  C14 UNL     1       0.697   9.582  30.578  1.00  0.00     0.013 C 
BRANCH  18  19
HETATM   19  C15 UNL     1      -0.228  10.492  29.812  1.00  0.00     0.059 C 
BRANCH  19  20
HETATM   20  C16 UNL     1      -1.577  10.542  30.408  1.00  0.00     0.025 A 
HETATM   21  C17 UNL     1      -1.899  10.814  31.727  1.00  0.00     0.113 A 
HETATM   22  N1  UNL     1      -3.235  10.768  31.884  1.00  0.00    -0.360 N 
HETATM   23  C18 UNL     1      -3.747  10.473  30.672  1.00  0.00     0.180 A 
ATOM     24  H1  UNL     1      -3.756  10.926  32.747  1.00  0.00     0.166 HD
HETATM   25  N2  UNL     1      -2.742  10.336  29.784  1.00  0.00    -0.355 N 
ATOM     26  H2  UNL     1      -2.853  10.112  28.795  1.00  0.00     0.166 HD
ENDBRANCH  19  20
ENDBRANCH  18  19
ENDBRANCH  17  18
ENDBRANCH  15  17
ENDBRANCH  12  15
BRANCH   5  27
HETATM   27  C6  UNL     1       8.343  11.749  30.400  1.00  0.00     0.173 C 
BRANCH  27  28
HETATM   28  O1  UNL     1       9.261  10.873  30.971  1.00  0.00    -0.400 OA
ATOM     29  H1  UNL     1       9.442  10.082  30.476  1.00  0.00     0.209 HD
ENDBRANCH  27  28
ENDBRANCH   5  27
TORSDOF 7
ENDMDL
