MODEL 1
REMARK VINA RESULT: -9.899376786      0.000      0.000
REMARK  8 active torsions:
REMARK  status: ('A' for Active; 'I' for Inactive)
REMARK    1  A    between atoms: C2_2  and  C3_3 
REMARK    2  A    between atoms: C3_3  and  S1_4 
REMARK    3  A    between atoms: S1_4  and  C4_7 
REMARK    4  A    between atoms: C4_7  and  C5_8 
REMARK    5  A    between atoms: C5_8  and  O3_9 
REMARK    6  A    between atoms: N1_11  and  O4_13 
REMARK    7  A    between atoms: C8_17  and  C9_18 
REMARK    8  A    between atoms: C8_17  and  C11_21 
ROOT
HETATM    1  C9  UNL     1       2.123  10.347  31.982  1.00  0.00     0.133 C 
HETATM    2  C10 UNL     1       1.328   9.182  32.181  1.00  0.00     0.059 C 
HETATM    3  N2  UNL     1       0.684   8.238  32.380  1.00  0.00    -0.197 NA
ENDROOT
BRANCH   1   4
HETATM    4  C8  UNL     1       1.735  11.296  30.882  1.00  0.00    -0.025 C 
HETATM    5  C7  UNL     1       1.613  12.685  31.480  1.00  0.00     0.013 C 
HETATM    6  C6  UNL     1       2.904  13.221  31.996  1.00  0.00     0.035 C 
HETATM    7  C4  UNL     1       3.861  13.524  30.875  1.00  0.00     0.130 C 
HETATM    8  C18 UNL     1       3.484  12.685  29.669  1.00  0.00     0.035 C 
HETATM    9  C17 UNL     1       2.992  11.330  29.980  1.00  0.00     0.013 C 
BRANCH   7  10
HETATM   10  S1  UNL     1       5.538  13.212  31.271  1.00  0.00     0.160 S 
HETATM   11  O1  UNL     1       5.597  12.387  32.529  1.00  0.00    -0.227 OA
HETATM   12  O2  UNL     1       6.214  14.509  31.586  1.00  0.00    -0.227 OA
BRANCH  10  13
HETATM   13  C3  UNL     1       6.443  12.441  29.963  1.00  0.00     0.141 C 
BRANCH  13  14
HETATM   14  C2  UNL     1       7.925  12.746  30.224  1.00  0.00     0.010 C 
HETATM   15  C1  UNL     1       8.576  11.610  30.990  1.00  0.00     0.006 C 
ENDBRANCH  13  14
ENDBRANCH  10  13
ENDBRANCH   7  10
BRANCH   7  16
HETATM   16  C5  UNL     1       3.654  14.957  30.455  1.00  0.00     0.159 C 
HETATM   17  N1  UNL     1       3.309  15.865  31.290  1.00  0.00    -0.250 N 
ATOM     18  H1  UNL     1       3.171  15.609  32.267  1.00  0.00     0.196 HD
BRANCH  16  19
HETATM   19  O3  UNL     1       3.836  15.318  29.133  1.00  0.00    -0.347 OA
ATOM     20  H3  UNL     1       3.505  16.152  28.823  1.00  0.00     0.219 HD
ENDBRANCH  16  19
BRANCH  17  21
HETATM   21  O4  UNL     1       3.121  17.150  30.919  1.00  0.00    -0.288 OA
ATOM     22  H4  UNL     1       2.395  17.416  30.367  1.00  0.00     0.244 HD
ENDBRANCH  17  21
ENDBRANCH   7  16
BRANCH   4  23
HETATM   23  C11 UNL     1       0.593  10.900  30.030  1.00  0.00    -0.005 C 
HETATM   24  C12 UNL     1      -0.781  11.222  30.520  1.00  0.00     0.005 C 
HETATM   25  C13 UNL     1      -1.744  10.255  29.800  1.00  0.00     0.000 C 
HETATM   26  C14 UNL     1      -1.693  10.497  28.306  1.00  0.00     0.000 C 
HETATM   27  C15 UNL     1      -0.291  10.366  27.819  1.00  0.00     0.000 C 
HETATM   28  C16 UNL     1       0.648  11.316  28.590  1.00  0.00     0.005 C 
ENDBRANCH   4  23
ENDBRANCH   1   4
TORSDOF 8
ENDMDL
MODEL 2
REMARK VINA RESULT: -9.585923185      1.284      1.669
REMARK  8 active torsions:
REMARK  status: ('A' for Active; 'I' for Inactive)
REMARK    1  A    between atoms: C2_2  and  C3_3 
REMARK    2  A    between atoms: C3_3  and  S1_4 
REMARK    3  A    between atoms: S1_4  and  C4_7 
REMARK    4  A    between atoms: C4_7  and  C5_8 
REMARK    5  A    between atoms: C5_8  and  O3_9 
REMARK    6  A    between atoms: N1_11  and  O4_13 
REMARK    7  A    between atoms: C8_17  and  C9_18 
REMARK    8  A    between atoms: C8_17  and  C11_21 
ROOT
HETATM    1  C9  UNL     1       2.230  10.310  31.865  1.00  0.00     0.133 C 
HETATM    2  C10 UNL     1       1.410   9.181  32.148  1.00  0.00     0.059 C 
HETATM    3  N2  UNL     1       0.750   8.266  32.415  1.00  0.00    -0.197 NA
ENDROOT
BRANCH   1   4
HETATM    4  C8  UNL     1       1.762  11.291  30.825  1.00  0.00    -0.025 C 
HETATM    5  C7  UNL     1       1.661  12.656  31.478  1.00  0.00     0.013 C 
HETATM    6  C6  UNL     1       2.976  13.193  31.930  1.00  0.00     0.035 C 
HETATM    7  C4  UNL     1       3.855  13.548  30.761  1.00  0.00     0.130 C 
HETATM    8  C18 UNL     1       3.413  12.745  29.553  1.00  0.00     0.035 C 
HETATM    9  C17 UNL     1       2.957  11.373  29.848  1.00  0.00     0.013 C 
BRANCH   7  10
HETATM   10  S1  UNL     1       5.558  13.247  31.039  1.00  0.00     0.160 S 
HETATM   11  O1  UNL     1       6.348  14.444  30.583  1.00  0.00    -0.227 OA
HETATM   12  O2  UNL     1       5.996  12.101  30.183  1.00  0.00    -0.227 OA
BRANCH  10  13
HETATM   13  C3  UNL     1       5.939  12.836  32.716  1.00  0.00     0.141 C 
BRANCH  13  14
HETATM   14  C2  UNL     1       6.428  14.132  33.379  1.00  0.00     0.010 C 
HETATM   15  C1  UNL     1       5.305  14.788  34.160  1.00  0.00     0.006 C 
ENDBRANCH  13  14
ENDBRANCH  10  13
ENDBRANCH   7  10
BRANCH   7  16
HETATM   16  C5  UNL     1       3.604  14.992  30.406  1.00  0.00     0.159 C 
HETATM   17  N1  UNL     1       3.236  15.851  31.282  1.00  0.00    -0.250 N 
ATOM     18  H1  UNL     1       3.111  15.548  32.247  1.00  0.00     0.196 HD
BRANCH  16  19
HETATM   19  O3  UNL     1       3.770  15.415  29.101  1.00  0.00    -0.347 OA
ATOM     20  H3  UNL     1       3.526  16.301  28.859  1.00  0.00     0.219 HD
ENDBRANCH  16  19
BRANCH  17  21
HETATM   21  O4  UNL     1       3.009  17.145  30.968  1.00  0.00    -0.288 OA
ATOM     22  H4  UNL     1       2.562  17.738  31.561  1.00  0.00     0.244 HD
ENDBRANCH  17  21
ENDBRANCH   7  16
BRANCH   4  23
HETATM   23  C11 UNL     1       0.572  10.907  30.034  1.00  0.00    -0.005 C 
HETATM   24  C12 UNL     1      -0.771  11.231  30.603  1.00  0.00     0.005 C 
HETATM   25  C13 UNL     1      -1.777  10.274  29.929  1.00  0.00     0.000 C 
HETATM   26  C14 UNL     1      -1.808  10.531  28.437  1.00  0.00     0.000 C 
HETATM   27  C15 UNL     1      -0.435  10.398  27.871  1.00  0.00     0.000 C 
HETATM   28  C16 UNL     1       0.549  11.337  28.598  1.00  0.00     0.005 C 
ENDBRANCH   4  23
ENDBRANCH   1   4
TORSDOF 8
ENDMDL
MODEL 3
REMARK VINA RESULT: -9.416971187      0.861      1.033
REMARK  8 active torsions:
REMARK  status: ('A' for Active; 'I' for Inactive)
REMARK    1  A    between atoms: C2_2  and  C3_3 
REMARK    2  A    between atoms: C3_3  and  S1_4 
REMARK    3  A    between atoms: S1_4  and  C4_7 
REMARK    4  A    between atoms: C4_7  and  C5_8 
REMARK    5  A    between atoms: C5_8  and  O3_9 
REMARK    6  A    between atoms: N1_11  and  O4_13 
REMARK    7  A    between atoms: C8_17  and  C9_18 
REMARK    8  A    between atoms: C8_17  and  C11_21 
ROOT
HETATM    1  C9  UNL     1       2.320  10.270  31.669  1.00  0.00     0.133 C 
HETATM    2  C10 UNL     1       1.491   9.202  32.117  1.00  0.00     0.059 C 
HETATM    3  N2  UNL     1       0.831   8.337  32.516  1.00  0.00    -0.197 NA
ENDROOT
BRANCH   1   4
HETATM    4  C8  UNL     1       1.724  11.300  30.748  1.00  0.00    -0.025 C 
HETATM    5  C7  UNL     1       1.603  12.603  31.516  1.00  0.00     0.013 C 
HETATM    6  C6  UNL     1       2.921  13.177  31.913  1.00  0.00     0.035 C 
HETATM    7  C4  UNL     1       3.688  13.671  30.717  1.00  0.00     0.130 C 
HETATM    8  C18 UNL     1       3.196  12.940  29.483  1.00  0.00     0.035 C 
HETATM    9  C17 UNL     1       2.835  11.526  29.697  1.00  0.00     0.013 C 
BRANCH   7  10
HETATM   10  S1  UNL     1       5.420  13.446  30.847  1.00  0.00     0.160 S 
HETATM   11  O1  UNL     1       6.055  14.754  31.239  1.00  0.00    -0.227 OA
HETATM   12  O2  UNL     1       5.968  13.099  29.498  1.00  0.00    -0.227 OA
BRANCH  10  13
HETATM   13  C3  UNL     1       5.885  12.155  31.961  1.00  0.00     0.141 C 
BRANCH  13  14
HETATM   14  C2  UNL     1       7.316  12.473  32.419  1.00  0.00     0.010 C 
HETATM   15  C1  UNL     1       8.328  11.829  31.490  1.00  0.00     0.006 C 
ENDBRANCH  13  14
ENDBRANCH  10  13
ENDBRANCH   7  10
BRANCH   7  16
HETATM   16  C5  UNL     1       3.337  15.121  30.500  1.00  0.00     0.159 C 
HETATM   17  N1  UNL     1       2.644  15.785  31.348  1.00  0.00    -0.250 N 
ATOM     18  H1  UNL     1       2.321  15.317  32.195  1.00  0.00     0.196 HD
BRANCH  16  19
HETATM   19  O3  UNL     1       3.768  15.766  29.356  1.00  0.00    -0.347 OA
ATOM     20  H3  UNL     1       4.075  16.664  29.409  1.00  0.00     0.219 HD
ENDBRANCH  16  19
BRANCH  17  21
HETATM   21  O4  UNL     1       2.326  17.084  31.158  1.00  0.00    -0.288 OA
ATOM     22  H4  UNL     1       2.472  17.743  31.826  1.00  0.00     0.244 HD
ENDBRANCH  17  21
ENDBRANCH   7  16
BRANCH   4  23
HETATM   23  C11 UNL     1       0.498  10.911  30.017  1.00  0.00    -0.005 C 
HETATM   24  C12 UNL     1      -0.816  11.256  30.637  1.00  0.00     0.005 C 
HETATM   25  C13 UNL     1      -1.858  10.296  30.024  1.00  0.00     0.000 C 
HETATM   26  C14 UNL     1      -1.951  10.525  28.530  1.00  0.00     0.000 C 
HETATM   27  C15 UNL     1      -0.605  10.370  27.909  1.00  0.00     0.000 C 
HETATM   28  C16 UNL     1       0.417  11.314  28.575  1.00  0.00     0.005 C 
ENDBRANCH   4  23
ENDBRANCH   1   4
TORSDOF 8
ENDMDL
MODEL 4
REMARK VINA RESULT: -8.957010958      2.458      4.263
REMARK  8 active torsions:
REMARK  status: ('A' for Active; 'I' for Inactive)
REMARK    1  A    between atoms: C2_2  and  C3_3 
REMARK    2  A    between atoms: C3_3  and  S1_4 
REMARK    3  A    between atoms: S1_4  and  C4_7 
REMARK    4  A    between atoms: C4_7  and  C5_8 
REMARK    5  A    between atoms: C5_8  and  O3_9 
REMARK    6  A    between atoms: N1_11  and  O4_13 
REMARK    7  A    between atoms: C8_17  and  C9_18 
REMARK    8  A    between atoms: C8_17  and  C11_21 
ROOT
HETATM    1  C9  UNL     1       2.231  14.502  31.514  1.00  0.00     0.133 C 
HETATM    2  C10 UNL     1       2.716  15.724  30.965  1.00  0.00     0.059 C 
HETATM    3  N2  UNL     1       3.118  16.730  30.554  1.00  0.00    -0.197 NA
ENDROOT
BRANCH   1   4
HETATM    4  C8  UNL     1       2.574  13.217  30.811  1.00  0.00    -0.025 C 
HETATM    5  C7  UNL     1       3.644  13.517  29.778  1.00  0.00     0.013 C 
HETATM    6  C6  UNL     1       4.932  13.968  30.378  1.00  0.00     0.035 C 
HETATM    7  C4  UNL     1       5.616  12.850  31.117  1.00  0.00     0.130 C 
HETATM    8  C18 UNL     1       4.575  11.824  31.524  1.00  0.00     0.035 C 
HETATM    9  C17 UNL     1       3.266  12.381  31.912  1.00  0.00     0.013 C 
BRANCH   7  10
HETATM   10  S1  UNL     1       6.476  13.371  32.550  1.00  0.00     0.160 S 
HETATM   11  O1  UNL     1       7.615  14.265  32.139  1.00  0.00    -0.227 OA
HETATM   12  O2  UNL     1       7.093  12.178  33.210  1.00  0.00    -0.227 OA
BRANCH  10  13
HETATM   13  C3  UNL     1       5.444  14.167  33.745  1.00  0.00     0.141 C 
BRANCH  13  14
HETATM   14  C2  UNL     1       5.951  15.613  33.860  1.00  0.00     0.010 C 
HETATM   15  C1  UNL     1       6.568  15.854  35.224  1.00  0.00     0.006 C 
ENDBRANCH  13  14
ENDBRANCH  10  13
ENDBRANCH   7  10
BRANCH   7  16
HETATM   16  C5  UNL     1       6.533  12.141  30.153  1.00  0.00     0.159 C 
HETATM   17  N1  UNL     1       6.100  11.612  29.071  1.00  0.00    -0.250 N 
ATOM     18  H1  UNL     1       5.105  11.673  28.856  1.00  0.00     0.196 HD
BRANCH  16  19
HETATM   19  O3  UNL     1       7.883  12.051  30.433  1.00  0.00    -0.347 OA
ATOM     20  H3  UNL     1       8.365  12.831  30.684  1.00  0.00     0.219 HD
ENDBRANCH  16  19
BRANCH  17  21
HETATM   21  O4  UNL     1       6.917  10.976  28.204  1.00  0.00    -0.288 OA
ATOM     22  H4  UNL     1       7.203  10.080  28.343  1.00  0.00     0.244 HD
ENDBRANCH  17  21
ENDBRANCH   7  16
BRANCH   4  23
HETATM   23  C11 UNL     1       1.442  12.416  30.296  1.00  0.00    -0.005 C 
HETATM   24  C12 UNL     1       1.660  11.635  29.041  1.00  0.00     0.005 C 
HETATM   25  C13 UNL     1       0.266  11.379  28.433  1.00  0.00     0.000 C 
HETATM   26  C14 UNL     1      -0.564  10.544  29.385  1.00  0.00     0.000 C 
HETATM   27  C15 UNL     1      -0.641  11.216  30.713  1.00  0.00     0.000 C 
HETATM   28  C16 UNL     1       0.771  11.493  31.269  1.00  0.00     0.005 C 
ENDBRANCH   4  23
ENDBRANCH   1   4
TORSDOF 8
ENDMDL
MODEL 5
REMARK VINA RESULT: -8.938462305      2.952      7.033
REMARK  8 active torsions:
REMARK  status: ('A' for Active; 'I' for Inactive)
REMARK    1  A    between atoms: C2_2  and  C3_3 
REMARK    2  A    between atoms: C3_3  and  S1_4 
REMARK    3  A    between atoms: S1_4  and  C4_7 
REMARK    4  A    between atoms: C4_7  and  C5_8 
REMARK    5  A    between atoms: C5_8  and  O3_9 
REMARK    6  A    between atoms: N1_11  and  O4_13 
REMARK    7  A    between atoms: C8_17  and  C9_18 
REMARK    8  A    between atoms: C8_17  and  C11_21 
ROOT
HETATM    1  C9  UNL     1       3.194  14.163  29.634  1.00  0.00     0.133 C 
HETATM    2  C10 UNL     1       3.395  15.462  30.184  1.00  0.00     0.059 C 
HETATM    3  N2  UNL     1       3.524  16.529  30.618  1.00  0.00    -0.197 NA
ENDROOT
BRANCH   1   4
HETATM    4  C8  UNL     1       3.623  12.971  30.445  1.00  0.00    -0.025 C 
HETATM    5  C7  UNL     1       2.569  12.720  31.507  1.00  0.00     0.013 C 
HETATM    6  C6  UNL     1       1.245  12.330  30.943  1.00  0.00     0.035 C 
HETATM    7  C4  UNL     1       1.293  10.960  30.323  1.00  0.00     0.130 C 
HETATM    8  C18 UNL     1       2.727  10.647  29.939  1.00  0.00     0.035 C 
HETATM    9  C17 UNL     1       3.507  11.798  29.444  1.00  0.00     0.013 C 
BRANCH   7  10
HETATM   10  S1  UNL     1       0.284  10.791  28.902  1.00  0.00     0.160 S 
HETATM   11  O1  UNL     1       0.779   9.627  28.086  1.00  0.00    -0.227 OA
HETATM   12  O2  UNL     1       0.443  12.006  28.043  1.00  0.00    -0.227 OA
BRANCH  10  13
HETATM   13  C3  UNL     1      -1.436  10.621  29.273  1.00  0.00     0.141 C 
BRANCH  13  14
HETATM   14  C2  UNL     1      -2.150  10.418  27.928  1.00  0.00     0.010 C 
HETATM   15  C1  UNL     1      -2.721   9.015  27.834  1.00  0.00     0.006 C 
ENDBRANCH  13  14
ENDBRANCH  10  13
ENDBRANCH   7  10
BRANCH   7  16
HETATM   16  C5  UNL     1       0.925   9.952  31.381  1.00  0.00     0.159 C 
HETATM   17  N1  UNL     1       1.521   8.823  31.478  1.00  0.00    -0.250 N 
ATOM     18  H1  UNL     1       2.266   8.601  30.818  1.00  0.00     0.196 HD
BRANCH  16  19
HETATM   19  O3  UNL     1      -0.084  10.240  32.280  1.00  0.00    -0.347 OA
ATOM     20  H3  UNL     1      -0.826  10.766  32.003  1.00  0.00     0.219 HD
ENDBRANCH  16  19
BRANCH  17  21
HETATM   21  O4  UNL     1       1.194   7.916  32.424  1.00  0.00    -0.288 OA
ATOM     22  H4  UNL     1       0.461   7.320  32.322  1.00  0.00     0.244 HD
ENDBRANCH  17  21
ENDBRANCH   7  16
BRANCH   4  23
HETATM   23  C11 UNL     1       5.011  12.976  30.957  1.00  0.00    -0.005 C 
HETATM   24  C12 UNL     1       5.249  12.405  32.317  1.00  0.00     0.005 C 
HETATM   25  C13 UNL     1       6.569  13.019  32.828  1.00  0.00     0.000 C 
HETATM   26  C14 UNL     1       7.711  12.608  31.922  1.00  0.00     0.000 C 
HETATM   27  C15 UNL     1       7.410  13.002  30.517  1.00  0.00     0.000 C 
HETATM   28  C16 UNL     1       6.065  12.405  30.057  1.00  0.00     0.005 C 
ENDBRANCH   4  23
ENDBRANCH   1   4
TORSDOF 8
ENDMDL
