MODEL 1
REMARK VINA RESULT: -8.809408714      0.000      0.000
REMARK  8 active torsions:
REMARK  status: ('A' for Active; 'I' for Inactive)
REMARK    1  A    between atoms: C2_2  and  N1_3 
REMARK    2  A    between atoms: N1_3  and  C3_5 
REMARK    3  A    between atoms: N2_8  and  C6_9 
REMARK    4  A    between atoms: C8_11  and  O1_12 
REMARK    5  A    between atoms: N3_14  and  C9_15 
REMARK    6  A    between atoms: C9_15  and  C12_18 
REMARK    7  A    between atoms: C12_18  and  C13_19 
REMARK    8  A    between atoms: C13_19  and  C14_20 
ROOT
HETATM    1  C6  UNL     1       3.372  12.466  31.647  1.00  0.00     0.039 A 
HETATM    2  C7  UNL     1       2.757  12.722  30.456  1.00  0.00     0.085 A 
HETATM    3  C8  UNL     1       1.771  11.887  29.927  1.00  0.00     0.147 A 
HETATM    4  N3  UNL     1       1.395  10.762  30.611  1.00  0.00    -0.285 N 
HETATM    5  C19 UNL     1       1.987  10.495  31.778  1.00  0.00     0.252 A 
HETATM    6  O2  UNL     1       1.631   9.460  32.396  1.00  0.00    -0.268 OA
HETATM    7  C20 UNL     1       2.965  11.316  32.314  1.00  0.00     0.104 A 
ENDROOT
BRANCH   1   8
HETATM    8  N2  UNL     1       4.361  13.331  32.219  1.00  0.00    -0.380 N 
HETATM    9  C5  UNL     1       3.881  14.236  33.232  1.00  0.00     0.125 C 
HETATM   10  C4  UNL     1       4.924  14.704  34.209  1.00  0.00     0.044 C 
HETATM   11  C3  UNL     1       6.180  14.970  33.400  1.00  0.00     0.079 C 
HETATM   12  C22 UNL     1       6.645  13.636  32.901  1.00  0.00     0.044 C 
HETATM   13  C21 UNL     1       5.707  13.268  31.739  1.00  0.00     0.125 C 
BRANCH  11  14
HETATM   14  N1  UNL     1       7.135  15.777  34.054  1.00  0.00    -0.417 N 
ATOM     15  H1  UNL     1       8.021  16.003  33.602  1.00  0.00     0.153 HD
BRANCH  14  16
HETATM   16  C2  UNL     1       6.841  16.267  35.348  1.00  0.00     0.110 C 
HETATM   17  C1  UNL     1       7.979  16.880  36.095  1.00  0.00     0.026 C 
ENDBRANCH  14  16
ENDBRANCH  11  14
ENDBRANCH   1   8
BRANCH   3  18
HETATM   18  O1  UNL     1       1.228  12.258  28.712  1.00  0.00    -0.346 OA
ATOM     19  H1  UNL     1       0.682  11.616  28.273  1.00  0.00     0.219 HD
ENDBRANCH   3  18
BRANCH   4  20
HETATM   20  C9  UNL     1       0.368   9.997  29.971  1.00  0.00     0.035 C 
HETATM   21  C10 UNL     1       0.367   8.552  30.436  1.00  0.00     0.039 C 
HETATM   22  C11 UNL     1       0.718  10.006  28.475  1.00  0.00     0.039 C 
BRANCH  20  23
HETATM   23  C12 UNL     1      -1.019  10.504  30.080  1.00  0.00     0.031 C 
BRANCH  23  24
HETATM   24  C13 UNL     1      -1.917   9.345  30.535  1.00  0.00     0.007 C 
BRANCH  24  25
HETATM   25  C14 UNL     1      -3.254   9.393  29.803  1.00  0.00    -0.014 C 
HETATM   26  C15 UNL     1      -2.943   9.846  28.395  1.00  0.00     0.004 C 
HETATM   27  C16 UNL     1      -4.191  10.521  27.928  1.00  0.00     0.000 C 
HETATM   28  C17 UNL     1      -5.021  10.807  29.160  1.00  0.00     0.000 C 
HETATM   29  C18 UNL     1      -4.096  10.538  30.337  1.00  0.00     0.004 C 
ENDBRANCH  24  25
ENDBRANCH  23  24
ENDBRANCH  20  23
ENDBRANCH   4  20
TORSDOF 8
ENDMDL
MODEL 2
REMARK VINA RESULT: -8.786751995      0.186      1.559
REMARK  8 active torsions:
REMARK  status: ('A' for Active; 'I' for Inactive)
REMARK    1  A    between atoms: C2_2  and  N1_3 
REMARK    2  A    between atoms: N1_3  and  C3_5 
REMARK    3  A    between atoms: N2_8  and  C6_9 
REMARK    4  A    between atoms: C8_11  and  O1_12 
REMARK    5  A    between atoms: N3_14  and  C9_15 
REMARK    6  A    between atoms: C9_15  and  C12_18 
REMARK    7  A    between atoms: C12_18  and  C13_19 
REMARK    8  A    between atoms: C13_19  and  C14_20 
ROOT
HETATM    1  C6  UNL     1       3.349  12.601  31.642  1.00  0.00     0.039 A 
HETATM    2  C7  UNL     1       2.852  11.490  32.258  1.00  0.00     0.085 A 
HETATM    3  C8  UNL     1       1.882  10.677  31.668  1.00  0.00     0.147 A 
HETATM    4  N3  UNL     1       1.395  10.990  30.427  1.00  0.00    -0.285 N 
HETATM    5  C19 UNL     1       1.869  12.075  29.810  1.00  0.00     0.252 A 
HETATM    6  O2  UNL     1       1.414  12.351  28.671  1.00  0.00    -0.268 OA
HETATM    7  C20 UNL     1       2.832  12.889  30.384  1.00  0.00     0.104 A 
ENDROOT
BRANCH   1   8
HETATM    8  N2  UNL     1       4.368  13.426  32.218  1.00  0.00    -0.380 N 
HETATM    9  C5  UNL     1       3.933  14.298  33.280  1.00  0.00     0.125 C 
HETATM   10  C4  UNL     1       5.011  14.711  34.243  1.00  0.00     0.044 C 
HETATM   11  C3  UNL     1       6.247  14.989  33.409  1.00  0.00     0.079 C 
HETATM   12  C22 UNL     1       6.676  13.669  32.844  1.00  0.00     0.044 C 
HETATM   13  C21 UNL     1       5.699  13.363  31.697  1.00  0.00     0.125 C 
BRANCH  11  14
HETATM   14  N1  UNL     1       7.234  15.754  34.066  1.00  0.00    -0.417 N 
ATOM     15  H1  UNL     1       8.160  15.872  33.654  1.00  0.00     0.153 HD
BRANCH  14  16
HETATM   16  C2  UNL     1       6.916  16.355  35.307  1.00  0.00     0.110 C 
HETATM   17  C1  UNL     1       8.068  16.866  36.107  1.00  0.00     0.026 C 
ENDBRANCH  14  16
ENDBRANCH  11  14
ENDBRANCH   1   8
BRANCH   3  18
HETATM   18  O1  UNL     1       1.462   9.581  32.398  1.00  0.00    -0.346 OA
ATOM     19  H1  UNL     1       0.610   9.645  32.814  1.00  0.00     0.219 HD
ENDBRANCH   3  18
BRANCH   4  20
HETATM   20  C9  UNL     1       0.415  10.074  29.928  1.00  0.00     0.035 C 
HETATM   21  C10 UNL     1       0.632   8.669  30.459  1.00  0.00     0.039 C 
HETATM   22  C11 UNL     1       0.623  10.036  28.406  1.00  0.00     0.039 C 
BRANCH  20  23
HETATM   23  C12 UNL     1      -1.008  10.421  30.148  1.00  0.00     0.031 C 
BRANCH  23  24
HETATM   24  C13 UNL     1      -1.799   9.116  30.306  1.00  0.00     0.007 C 
BRANCH  24  25
HETATM   25  C14 UNL     1      -3.214   9.286  29.764  1.00  0.00    -0.014 C 
HETATM   26  C15 UNL     1      -3.061   9.797  28.349  1.00  0.00     0.004 C 
HETATM   27  C16 UNL     1      -4.310  10.572  28.087  1.00  0.00     0.000 C 
HETATM   28  C17 UNL     1      -4.950  10.839  29.432  1.00  0.00     0.000 C 
HETATM   29  C18 UNL     1      -3.899  10.449  30.459  1.00  0.00     0.004 C 
ENDBRANCH  24  25
ENDBRANCH  23  24
ENDBRANCH  20  23
ENDBRANCH   4  20
TORSDOF 8
ENDMDL
MODEL 3
REMARK VINA RESULT: -8.744584902      0.642      1.108
REMARK  8 active torsions:
REMARK  status: ('A' for Active; 'I' for Inactive)
REMARK    1  A    between atoms: C2_2  and  N1_3 
REMARK    2  A    between atoms: N1_3  and  C3_5 
REMARK    3  A    between atoms: N2_8  and  C6_9 
REMARK    4  A    between atoms: C8_11  and  O1_12 
REMARK    5  A    between atoms: N3_14  and  C9_15 
REMARK    6  A    between atoms: C9_15  and  C12_18 
REMARK    7  A    between atoms: C12_18  and  C13_19 
REMARK    8  A    between atoms: C13_19  and  C14_20 
ROOT
HETATM    1  C6  UNL     1       3.209  12.313  31.435  1.00  0.00     0.039 A 
HETATM    2  C7  UNL     1       2.606  12.592  30.244  1.00  0.00     0.085 A 
HETATM    3  C8  UNL     1       1.596  11.790  29.709  1.00  0.00     0.147 A 
HETATM    4  N3  UNL     1       1.182  10.675  30.388  1.00  0.00    -0.285 N 
HETATM    5  C19 UNL     1       1.762  10.386  31.556  1.00  0.00     0.252 A 
HETATM    6  O2  UNL     1       1.373   9.360  32.170  1.00  0.00    -0.268 OA
HETATM    7  C20 UNL     1       2.764  11.174  32.097  1.00  0.00     0.104 A 
ENDROOT
BRANCH   1   8
HETATM    8  N2  UNL     1       4.223  13.144  32.013  1.00  0.00    -0.380 N 
HETATM    9  C5  UNL     1       3.744  14.211  32.856  1.00  0.00     0.125 C 
HETATM   10  C4  UNL     1       4.727  14.696  33.884  1.00  0.00     0.044 C 
HETATM   11  C3  UNL     1       6.080  14.738  33.198  1.00  0.00     0.079 C 
HETATM   12  C22 UNL     1       6.446  13.313  32.910  1.00  0.00     0.044 C 
HETATM   13  C21 UNL     1       5.596  12.894  31.699  1.00  0.00     0.125 C 
BRANCH  11  14
HETATM   14  N1  UNL     1       7.046  15.526  33.860  1.00  0.00    -0.417 N 
ATOM     15  H1  UNL     1       7.996  15.596  33.496  1.00  0.00     0.153 HD
BRANCH  14  16
HETATM   16  C2  UNL     1       6.672  16.216  35.036  1.00  0.00     0.110 C 
HETATM   17  C1  UNL     1       7.788  16.759  35.865  1.00  0.00     0.026 C 
ENDBRANCH  14  16
ENDBRANCH  11  14
ENDBRANCH   1   8
BRANCH   3  18
HETATM   18  O1  UNL     1       1.069  12.181  28.493  1.00  0.00    -0.346 OA
ATOM     19  H1  UNL     1       0.636  11.511  27.978  1.00  0.00     0.219 HD
ENDBRANCH   3  18
BRANCH   4  20
HETATM   20  C9  UNL     1       0.135   9.944  29.742  1.00  0.00     0.035 C 
HETATM   21  C10 UNL     1      -0.203   8.664  30.485  1.00  0.00     0.039 C 
HETATM   22  C11 UNL     1       0.692   9.553  28.365  1.00  0.00     0.039 C 
BRANCH  20  23
HETATM   23  C12 UNL     1      -1.135  10.665  29.492  1.00  0.00     0.031 C 
BRANCH  23  24
HETATM   24  C13 UNL     1      -1.712  10.165  28.160  1.00  0.00     0.007 C 
BRANCH  24  25
HETATM   25  C14 UNL     1      -3.175  10.577  28.030  1.00  0.00    -0.014 C 
HETATM   26  C15 UNL     1      -3.798  10.343  29.387  1.00  0.00     0.004 C 
HETATM   27  C16 UNL     1      -5.241  10.085  29.105  1.00  0.00     0.000 C 
HETATM   28  C17 UNL     1      -5.349   9.773  27.628  1.00  0.00     0.000 C 
HETATM   29  C18 UNL     1      -3.917   9.583  27.154  1.00  0.00     0.004 C 
ENDBRANCH  24  25
ENDBRANCH  23  24
ENDBRANCH  20  23
ENDBRANCH   4  20
TORSDOF 8
ENDMDL
MODEL 4
REMARK VINA RESULT: -8.732501398      2.372      3.811
REMARK  8 active torsions:
REMARK  status: ('A' for Active; 'I' for Inactive)
REMARK    1  A    between atoms: C2_2  and  N1_3 
REMARK    2  A    between atoms: N1_3  and  C3_5 
REMARK    3  A    between atoms: N2_8  and  C6_9 
REMARK    4  A    between atoms: C8_11  and  O1_12 
REMARK    5  A    between atoms: N3_14  and  C9_15 
REMARK    6  A    between atoms: C9_15  and  C12_18 
REMARK    7  A    between atoms: C12_18  and  C13_19 
REMARK    8  A    between atoms: C13_19  and  C14_20 
ROOT
HETATM    1  C6  UNL     1       1.468  11.712  30.341  1.00  0.00     0.039 A 
HETATM    2  C7  UNL     1       0.585  11.232  31.263  1.00  0.00     0.085 A 
HETATM    3  C8  UNL     1      -0.669  10.729  30.909  1.00  0.00     0.147 A 
HETATM    4  N3  UNL     1      -1.047  10.710  29.593  1.00  0.00    -0.285 N 
HETATM    5  C19 UNL     1      -0.195  11.176  28.676  1.00  0.00     0.252 A 
HETATM    6  O2  UNL     1      -0.553  11.152  27.472  1.00  0.00    -0.268 OA
HETATM    7  C20 UNL     1       1.052  11.677  29.015  1.00  0.00     0.104 A 
ENDROOT
BRANCH   1   8
HETATM    8  N2  UNL     1       2.770  12.200  30.684  1.00  0.00    -0.380 N 
HETATM    9  C5  UNL     1       3.374  13.086  29.721  1.00  0.00     0.125 C 
HETATM   10  C4  UNL     1       4.406  14.024  30.282  1.00  0.00     0.044 C 
HETATM   11  C3  UNL     1       5.219  13.220  31.279  1.00  0.00     0.079 C 
HETATM   12  C22 UNL     1       4.291  12.896  32.410  1.00  0.00     0.044 C 
HETATM   13  C21 UNL     1       3.384  11.764  31.901  1.00  0.00     0.125 C 
BRANCH  11  14
HETATM   14  N1  UNL     1       6.463  13.796  31.617  1.00  0.00    -0.417 N 
ATOM     15  H1  UNL     1       6.540  14.438  32.406  1.00  0.00     0.153 HD
BRANCH  14  16
HETATM   16  C2  UNL     1       7.599  13.467  30.841  1.00  0.00     0.110 C 
HETATM   17  C1  UNL     1       8.059  12.049  30.915  1.00  0.00     0.026 C 
ENDBRANCH  14  16
ENDBRANCH  11  14
ENDBRANCH   1   8
BRANCH   3  18
HETATM   18  O1  UNL     1      -1.471  10.275  31.939  1.00  0.00    -0.346 OA
ATOM     19  H1  UNL     1      -2.005   9.510  31.760  1.00  0.00     0.219 HD
ENDBRANCH   3  18
BRANCH   4  20
HETATM   20  C9  UNL     1      -2.347  10.160  29.359  1.00  0.00     0.035 C 
HETATM   21  C10 UNL     1      -3.316  10.505  30.475  1.00  0.00     0.039 C 
HETATM   22  C11 UNL     1      -2.157   8.635  29.359  1.00  0.00     0.039 C 
BRANCH  20  23
HETATM   23  C12 UNL     1      -3.003  10.500  28.075  1.00  0.00     0.031 C 
BRANCH  23  24
HETATM   24  C13 UNL     1      -3.419   9.192  27.390  1.00  0.00     0.007 C 
BRANCH  24  25
HETATM   25  C14 UNL     1      -4.723   9.388  26.623  1.00  0.00    -0.014 C 
HETATM   26  C15 UNL     1      -5.769   9.734  27.658  1.00  0.00     0.004 C 
HETATM   27  C16 UNL     1      -7.058   9.266  27.068  1.00  0.00     0.000 C 
HETATM   28  C17 UNL     1      -6.706   8.322  25.939  1.00  0.00     0.000 C 
HETATM   29  C18 UNL     1      -5.217   8.053  26.092  1.00  0.00     0.004 C 
ENDBRANCH  24  25
ENDBRANCH  23  24
ENDBRANCH  20  23
ENDBRANCH   4  20
TORSDOF 8
ENDMDL
MODEL 5
REMARK VINA RESULT: -8.619024642      2.350      3.567
REMARK  8 active torsions:
REMARK  status: ('A' for Active; 'I' for Inactive)
REMARK    1  A    between atoms: C2_2  and  N1_3 
REMARK    2  A    between atoms: N1_3  and  C3_5 
REMARK    3  A    between atoms: N2_8  and  C6_9 
REMARK    4  A    between atoms: C8_11  and  O1_12 
REMARK    5  A    between atoms: N3_14  and  C9_15 
REMARK    6  A    between atoms: C9_15  and  C12_18 
REMARK    7  A    between atoms: C12_18  and  C13_19 
REMARK    8  A    between atoms: C13_19  and  C14_20 
ROOT
HETATM    1  C6  UNL     1       1.386  11.772  30.327  1.00  0.00     0.039 A 
HETATM    2  C7  UNL     1       0.917  11.594  29.058  1.00  0.00     0.085 A 
HETATM    3  C8  UNL     1      -0.342  11.051  28.794  1.00  0.00     0.147 A 
HETATM    4  N3  UNL     1      -1.152  10.675  29.833  1.00  0.00    -0.285 N 
HETATM    5  C19 UNL     1      -0.709  10.841  31.082  1.00  0.00     0.252 A 
HETATM    6  O2  UNL     1      -1.461  10.491  32.025  1.00  0.00    -0.268 OA
HETATM    7  C20 UNL     1       0.538  11.379  31.357  1.00  0.00     0.104 A 
ENDROOT
BRANCH   1   8
HETATM    8  N2  UNL     1       2.661  12.358  30.616  1.00  0.00    -0.380 N 
HETATM    9  C5  UNL     1       3.074  13.413  29.725  1.00  0.00     0.125 C 
HETATM   10  C4  UNL     1       4.059  14.387  30.310  1.00  0.00     0.044 C 
HETATM   11  C3  UNL     1       5.044  13.565  31.121  1.00  0.00     0.079 C 
HETATM   12  C22 UNL     1       4.270  13.008  32.278  1.00  0.00     0.044 C 
HETATM   13  C21 UNL     1       3.433  11.851  31.709  1.00  0.00     0.125 C 
BRANCH  11  14
HETATM   14  N1  UNL     1       6.251  14.232  31.421  1.00  0.00    -0.417 N 
ATOM     15  H1  UNL     1       6.249  15.081  31.986  1.00  0.00     0.153 HD
BRANCH  14  16
HETATM   16  C2  UNL     1       7.464  13.701  30.923  1.00  0.00     0.110 C 
HETATM   17  C1  UNL     1       7.342  12.543  29.988  1.00  0.00     0.026 C 
ENDBRANCH  14  16
ENDBRANCH  11  14
ENDBRANCH   1   8
BRANCH   3  18
HETATM   18  O1  UNL     1      -0.697  10.923  27.465  1.00  0.00    -0.346 OA
ATOM     19  H1  UNL     1      -0.746  10.039  27.119  1.00  0.00     0.219 HD
ENDBRANCH   3  18
BRANCH   4  20
HETATM   20  C9  UNL     1      -2.419  10.145  29.432  1.00  0.00     0.035 C 
HETATM   21  C10 UNL     1      -3.504  10.440  30.452  1.00  0.00     0.039 C 
HETATM   22  C11 UNL     1      -2.232   8.621  29.377  1.00  0.00     0.039 C 
BRANCH  20  23
HETATM   23  C12 UNL     1      -2.932  10.552  28.103  1.00  0.00     0.031 C 
BRANCH  23  24
HETATM   24  C13 UNL     1      -4.452  10.728  28.211  1.00  0.00     0.007 C 
BRANCH  24  25
HETATM   25  C14 UNL     1      -5.142  10.121  26.994  1.00  0.00    -0.014 C 
HETATM   26  C15 UNL     1      -6.446   9.543  27.498  1.00  0.00     0.004 C 
HETATM   27  C16 UNL     1      -6.759   8.430  26.553  1.00  0.00     0.000 C 
HETATM   28  C17 UNL     1      -5.483   8.122  25.801  1.00  0.00     0.000 C 
HETATM   29  C18 UNL     1      -4.391   8.882  26.536  1.00  0.00     0.004 C 
ENDBRANCH  24  25
ENDBRANCH  23  24
ENDBRANCH  20  23
ENDBRANCH   4  20
TORSDOF 8
ENDMDL
