MODEL 1
REMARK VINA RESULT: -5.485700602      0.000      0.000
REMARK  4 active torsions:
REMARK  status: ('A' for Active; 'I' for Inactive)
REMARK    1  A    between atoms: S1_2  and  C3_4 
REMARK    2  A    between atoms: C3_4  and  C4_5 
REMARK    3  A    between atoms: C5_6  and  C6_7 
REMARK    4  A    between atoms: C6_7  and  O1_10 
ROOT
HETATM    1  C4  UNL     1     -20.658   3.049   0.425  1.00  0.00    -0.094 C 
HETATM    2  C5  UNL     1     -20.836   1.859   0.202  1.00  0.00    -0.068 C 
ENDROOT
BRANCH   2   3
HETATM    3  C6  UNL     1     -21.067   0.442  -0.081  1.00  0.00     0.114 C 
HETATM    4  C7  UNL     1     -19.859  -0.089  -0.778  1.00  0.00     0.060 C 
HETATM    5  C8  UNL     1     -21.217  -0.357   1.222  1.00  0.00     0.060 C 
BRANCH   3   6
HETATM    6  O1  UNL     1     -22.243   0.248  -0.803  1.00  0.00    -0.378 OA
ATOM      7  H1  UNL     1     -22.066   0.091  -1.723  1.00  0.00     0.211 HD
ENDBRANCH   3   6
ENDBRANCH   2   3
BRANCH   1   8
HETATM    8  C3  UNL     1     -20.458   4.479   0.672  1.00  0.00     0.156 C 
BRANCH   8   9
HETATM    9  S1  UNL     1     -21.540   5.382  -0.389  1.00  0.00    -0.217 SA
HETATM   10  C1  UNL     1     -23.223   5.260   0.224  1.00  0.00     0.079 C 
HETATM   11  C2  UNL     1     -21.489   4.790  -2.056  1.00  0.00     0.079 C 
ENDBRANCH   8   9
ENDBRANCH   1   8
TORSDOF 4
ENDMDL
MODEL 2
REMARK VINA RESULT: -5.171391868      0.783      1.178
REMARK  4 active torsions:
REMARK  status: ('A' for Active; 'I' for Inactive)
REMARK    1  A    between atoms: S1_2  and  C3_4 
REMARK    2  A    between atoms: C3_4  and  C4_5 
REMARK    3  A    between atoms: C5_6  and  C6_7 
REMARK    4  A    between atoms: C6_7  and  O1_10 
ROOT
HETATM    1  C4  UNL     1     -20.714   2.959   0.331  1.00  0.00    -0.094 C 
HETATM    2  C5  UNL     1     -20.912   1.794   0.014  1.00  0.00    -0.068 C 
ENDROOT
BRANCH   2   3
HETATM    3  C6  UNL     1     -21.168   0.407  -0.377  1.00  0.00     0.114 C 
HETATM    4  C7  UNL     1     -21.976   0.426  -1.632  1.00  0.00     0.060 C 
HETATM    5  C8  UNL     1     -19.855  -0.320  -0.703  1.00  0.00     0.060 C 
BRANCH   3   6
HETATM    6  O1  UNL     1     -21.774  -0.313   0.651  1.00  0.00    -0.378 OA
ATOM      7  H1  UNL     1     -21.143  -0.835   1.132  1.00  0.00     0.211 HD
ENDBRANCH   3   6
ENDBRANCH   2   3
BRANCH   1   8
HETATM    8  C3  UNL     1     -20.492   4.362   0.690  1.00  0.00     0.156 C 
BRANCH   8   9
HETATM    9  S1  UNL     1     -21.496   5.368  -0.354  1.00  0.00    -0.217 SA
HETATM   10  C1  UNL     1     -23.198   5.315   0.216  1.00  0.00     0.079 C 
HETATM   11  C2  UNL     1     -21.437   4.845  -2.044  1.00  0.00     0.079 C 
ENDBRANCH   8   9
ENDBRANCH   1   8
TORSDOF 4
ENDMDL
MODEL 3
REMARK VINA RESULT: -5.027533553      1.053      1.424
REMARK  4 active torsions:
REMARK  status: ('A' for Active; 'I' for Inactive)
REMARK    1  A    between atoms: S1_2  and  C3_4 
REMARK    2  A    between atoms: C3_4  and  C4_5 
REMARK    3  A    between atoms: C5_6  and  C6_7 
REMARK    4  A    between atoms: C6_7  and  O1_10 
ROOT
HETATM    1  C4  UNL     1     -20.582   3.008   0.334  1.00  0.00    -0.094 C 
HETATM    2  C5  UNL     1     -20.624   1.838  -0.022  1.00  0.00    -0.068 C 
ENDROOT
BRANCH   2   3
HETATM    3  C6  UNL     1     -20.688   0.444  -0.466  1.00  0.00     0.114 C 
HETATM    4  C7  UNL     1     -21.095  -0.391   0.703  1.00  0.00     0.060 C 
HETATM    5  C8  UNL     1     -21.769   0.263  -1.541  1.00  0.00     0.060 C 
BRANCH   3   6
HETATM    6  O1  UNL     1     -19.485   0.032  -1.038  1.00  0.00    -0.378 OA
ATOM      7  H1  UNL     1     -18.869  -0.265  -0.380  1.00  0.00     0.211 HD
ENDBRANCH   3   6
ENDBRANCH   2   3
BRANCH   1   8
HETATM    8  C3  UNL     1     -20.540   4.416   0.737  1.00  0.00     0.156 C 
BRANCH   8   9
HETATM    9  S1  UNL     1     -21.606   5.330  -0.330  1.00  0.00    -0.217 SA
HETATM   10  C1  UNL     1     -23.301   5.178   0.239  1.00  0.00     0.079 C 
HETATM   11  C2  UNL     1     -21.508   4.775  -2.008  1.00  0.00     0.079 C 
ENDBRANCH   8   9
ENDBRANCH   1   8
TORSDOF 4
ENDMDL
MODEL 4
REMARK VINA RESULT: -4.403866579      2.739      4.946
REMARK  4 active torsions:
REMARK  status: ('A' for Active; 'I' for Inactive)
REMARK    1  A    between atoms: S1_2  and  C3_4 
REMARK    2  A    between atoms: C3_4  and  C4_5 
REMARK    3  A    between atoms: C5_6  and  C6_7 
REMARK    4  A    between atoms: C6_7  and  O1_10 
ROOT
HETATM    1  C4  UNL     1     -21.216   2.614   0.504  1.00  0.00    -0.094 C 
HETATM    2  C5  UNL     1     -21.446   3.719   0.030  1.00  0.00    -0.068 C 
ENDROOT
BRANCH   2   3
HETATM    3  C6  UNL     1     -21.732   5.030  -0.554  1.00  0.00     0.114 C 
HETATM    4  C7  UNL     1     -21.848   4.857  -2.033  1.00  0.00     0.060 C 
HETATM    5  C8  UNL     1     -23.084   5.565  -0.060  1.00  0.00     0.060 C 
BRANCH   3   6
HETATM    6  O1  UNL     1     -20.774   5.975  -0.189  1.00  0.00    -0.378 OA
ATOM      7  H1  UNL     1     -20.960   6.825  -0.569  1.00  0.00     0.211 HD
ENDBRANCH   3   6
ENDBRANCH   2   3
BRANCH   1   8
HETATM    8  C3  UNL     1     -20.961   1.282   1.058  1.00  0.00     0.156 C 
BRANCH   8   9
HETATM    9  S1  UNL     1     -20.523   0.205  -0.269  1.00  0.00    -0.217 SA
HETATM   10  C1  UNL     1     -21.642   0.464  -1.648  1.00  0.00     0.079 C 
HETATM   11  C2  UNL     1     -20.578  -1.498   0.207  1.00  0.00     0.079 C 
ENDBRANCH   8   9
ENDBRANCH   1   8
TORSDOF 4
ENDMDL
MODEL 5
REMARK VINA RESULT: -4.342438126      2.703      4.940
REMARK  4 active torsions:
REMARK  status: ('A' for Active; 'I' for Inactive)
REMARK    1  A    between atoms: S1_2  and  C3_4 
REMARK    2  A    between atoms: C3_4  and  C4_5 
REMARK    3  A    between atoms: C5_6  and  C6_7 
REMARK    4  A    between atoms: C6_7  and  O1_10 
ROOT
HETATM    1  C4  UNL     1     -21.322   2.563   0.582  1.00  0.00    -0.094 C 
HETATM    2  C5  UNL     1     -21.510   3.678   0.114  1.00  0.00    -0.068 C 
ENDROOT
BRANCH   2   3
HETATM    3  C6  UNL     1     -21.731   5.003  -0.467  1.00  0.00     0.114 C 
HETATM    4  C7  UNL     1     -21.814   4.845  -1.949  1.00  0.00     0.060 C 
HETATM    5  C8  UNL     1     -23.075   5.585  -0.005  1.00  0.00     0.060 C 
BRANCH   3   6
HETATM    6  O1  UNL     1     -20.749   5.909  -0.069  1.00  0.00    -0.378 OA
ATOM      7  H1  UNL     1     -20.888   6.205   0.822  1.00  0.00     0.211 HD
ENDBRANCH   3   6
ENDBRANCH   2   3
BRANCH   1   8
HETATM    8  C3  UNL     1     -21.103   1.218   1.120  1.00  0.00     0.156 C 
BRANCH   8   9
HETATM    9  S1  UNL     1     -20.903   0.106  -0.235  1.00  0.00    -0.217 SA
HETATM   10  C1  UNL     1     -20.353  -1.491   0.375  1.00  0.00     0.079 C 
HETATM   11  C2  UNL     1     -19.737   0.703  -1.424  1.00  0.00     0.079 C 
ENDBRANCH   8   9
ENDBRANCH   1   8
TORSDOF 4
ENDMDL
