MODEL 1
REMARK VINA RESULT: -7.343608802      0.000      0.000
REMARK  1 active torsions:
REMARK  status: ('A' for Active; 'I' for Inactive)
REMARK    1  A    between atoms: C3_5  and  C4_6 
ROOT
HETATM    1  C4  UNL     1     -20.713   4.105  -0.570  1.00  0.00     0.294 C 
HETATM    2  O1  UNL     1     -19.700   4.102  -1.307  1.00  0.00    -0.272 OA
HETATM    3  C5  UNL     1     -21.659   5.178  -0.515  1.00  0.00     0.147 C 
HETATM    4  N2  UNL     1     -22.435   6.035  -0.459  1.00  0.00    -0.188 NA
ENDROOT
BRANCH   1   5
HETATM    5  C3  UNL     1     -20.936   2.942   0.276  1.00  0.00     0.170 A 
HETATM    6  N1  UNL     1     -21.341   2.931   1.569  1.00  0.00    -0.341 N 
HETATM    7  C2  UNL     1     -21.438   1.676   2.032  1.00  0.00     0.029 A 
ATOM      8  H1  UNL     1     -21.544   3.767   2.118  1.00  0.00     0.167 HD
HETATM    9  C1  UNL     1     -21.859   1.276   3.418  1.00  0.00     0.070 C 
HETATM   10  C7  UNL     1     -21.080   0.843   0.992  1.00  0.00     0.031 A 
HETATM   11  N3  UNL     1     -20.784   1.634  -0.046  1.00  0.00    -0.336 N 
HETATM   12  C8  UNL     1     -21.056  -0.632   1.097  1.00  0.00     0.070 C 
HETATM   13  C6  UNL     1     -20.354   1.180  -1.358  1.00  0.00     0.158 C 
ENDBRANCH   1   5
TORSDOF 1
ENDMDL
MODEL 2
REMARK VINA RESULT: -7.203886794      1.044      2.234
REMARK  1 active torsions:
REMARK  status: ('A' for Active; 'I' for Inactive)
REMARK    1  A    between atoms: C3_5  and  C4_6 
ROOT
HETATM    1  C4  UNL     1     -20.555   3.936  -1.153  1.00  0.00     0.294 C 
HETATM    2  O1  UNL     1     -19.515   4.147  -1.821  1.00  0.00    -0.272 OA
HETATM    3  C5  UNL     1     -21.609   4.891  -0.992  1.00  0.00     0.147 C 
HETATM    4  N2  UNL     1     -22.472   5.649  -0.853  1.00  0.00    -0.188 NA
ENDROOT
BRANCH   1   5
HETATM    5  C3  UNL     1     -20.690   2.640  -0.506  1.00  0.00     0.170 A 
HETATM    6  N1  UNL     1     -20.401   1.424  -1.031  1.00  0.00    -0.341 N 
HETATM    7  C2  UNL     1     -20.650   0.447  -0.146  1.00  0.00     0.029 A 
ATOM      8  H1  UNL     1     -20.041   1.273  -1.973  1.00  0.00     0.167 HD
HETATM    9  C1  UNL     1     -20.448  -1.024  -0.376  1.00  0.00     0.070 C 
HETATM   10  C7  UNL     1     -21.120   1.060   0.996  1.00  0.00     0.031 A 
HETATM   11  N3  UNL     1     -21.132   2.375   0.747  1.00  0.00    -0.336 N 
HETATM   12  C8  UNL     1     -21.513   0.323   2.217  1.00  0.00     0.070 C 
HETATM   13  C6  UNL     1     -21.558   3.407   1.679  1.00  0.00     0.158 C 
ENDBRANCH   1   5
TORSDOF 1
ENDMDL
MODEL 3
REMARK VINA RESULT: -7.186919553      1.309      1.560
REMARK  1 active torsions:
REMARK  status: ('A' for Active; 'I' for Inactive)
REMARK    1  A    between atoms: C3_5  and  C4_6 
ROOT
HETATM    1  C4  UNL     1     -21.040   4.372   0.460  1.00  0.00     0.294 C 
HETATM    2  O1  UNL     1     -19.970   5.007   0.614  1.00  0.00    -0.272 OA
HETATM    3  C5  UNL     1     -22.327   4.987   0.342  1.00  0.00     0.147 C 
HETATM    4  N2  UNL     1     -23.375   5.467   0.242  1.00  0.00    -0.188 NA
ENDROOT
BRANCH   1   5
HETATM    5  C3  UNL     1     -20.959   2.919   0.398  1.00  0.00     0.170 A 
HETATM    6  N1  UNL     1     -21.429   2.030   1.305  1.00  0.00    -0.341 N 
HETATM    7  C2  UNL     1     -21.175   0.770   0.919  1.00  0.00     0.029 A 
ATOM      8  H1  UNL     1     -21.912   2.284   2.167  1.00  0.00     0.167 HD
HETATM    9  C1  UNL     1     -21.549  -0.476   1.672  1.00  0.00     0.070 C 
HETATM   10  C7  UNL     1     -20.512   0.853  -0.287  1.00  0.00     0.031 A 
HETATM   11  N3  UNL     1     -20.398   2.156  -0.572  1.00  0.00    -0.336 N 
HETATM   12  C8  UNL     1     -20.052  -0.327  -1.050  1.00  0.00     0.070 C 
HETATM   13  C6  UNL     1     -19.763   2.709  -1.756  1.00  0.00     0.158 C 
ENDBRANCH   1   5
TORSDOF 1
ENDMDL
MODEL 4
REMARK VINA RESULT: -6.878025256      1.566      1.609
REMARK  1 active torsions:
REMARK  status: ('A' for Active; 'I' for Inactive)
REMARK    1  A    between atoms: C3_5  and  C4_6 
ROOT
HETATM    1  C4  UNL     1     -21.883   4.451  -0.551  1.00  0.00     0.294 C 
HETATM    2  O1  UNL     1     -22.855   5.223  -0.374  1.00  0.00    -0.272 OA
HETATM    3  C5  UNL     1     -20.915   4.608  -1.594  1.00  0.00     0.147 C 
HETATM    4  N2  UNL     1     -20.122   4.721  -2.428  1.00  0.00    -0.188 NA
ENDROOT
BRANCH   1   5
HETATM    5  C3  UNL     1     -21.738   3.330   0.366  1.00  0.00     0.170 A 
HETATM    6  N1  UNL     1     -21.783   3.362   1.719  1.00  0.00    -0.341 N 
HETATM    7  C2  UNL     1     -21.608   2.136   2.236  1.00  0.00     0.029 A 
ATOM      8  H1  UNL     1     -21.930   4.207   2.272  1.00  0.00     0.167 HD
HETATM    9  C1  UNL     1     -21.598   1.788   3.698  1.00  0.00     0.070 C 
HETATM   10  C7  UNL     1     -21.443   1.279   1.169  1.00  0.00     0.031 A 
HETATM   11  N3  UNL     1     -21.526   2.026   0.061  1.00  0.00    -0.336 N 
HETATM   12  C8  UNL     1     -21.222  -0.176   1.316  1.00  0.00     0.070 C 
HETATM   13  C6  UNL     1     -21.409   1.532  -1.301  1.00  0.00     0.158 C 
ENDBRANCH   1   5
TORSDOF 1
ENDMDL
MODEL 5
REMARK VINA RESULT: -6.724040055      1.655      2.642
REMARK  1 active torsions:
REMARK  status: ('A' for Active; 'I' for Inactive)
REMARK    1  A    between atoms: C3_5  and  C4_6 
ROOT
HETATM    1  C4  UNL     1     -20.666   4.293  -0.865  1.00  0.00     0.294 C 
HETATM    2  O1  UNL     1     -20.647   5.183   0.017  1.00  0.00    -0.272 OA
HETATM    3  C5  UNL     1     -20.631   4.558  -2.271  1.00  0.00     0.147 C 
HETATM    4  N2  UNL     1     -20.602   4.754  -3.411  1.00  0.00    -0.188 NA
ENDROOT
BRANCH   1   5
HETATM    5  C3  UNL     1     -20.725   2.907  -0.423  1.00  0.00     0.170 A 
HETATM    6  N1  UNL     1     -20.335   1.807  -1.111  1.00  0.00    -0.341 N 
HETATM    7  C2  UNL     1     -20.536   0.693  -0.391  1.00  0.00     0.029 A 
ATOM      8  H1  UNL     1     -19.941   1.824  -2.052  1.00  0.00     0.167 HD
HETATM    9  C1  UNL     1     -20.223  -0.710  -0.830  1.00  0.00     0.070 C 
HETATM   10  C7  UNL     1     -21.080   1.094   0.811  1.00  0.00     0.031 A 
HETATM   11  N3  UNL     1     -21.180   2.427   0.760  1.00  0.00    -0.336 N 
HETATM   12  C8  UNL     1     -21.451   0.156   1.893  1.00  0.00     0.070 C 
HETATM   13  C6  UNL     1     -21.703   3.276   1.818  1.00  0.00     0.158 C 
ENDBRANCH   1   5
TORSDOF 1
ENDMDL
