MODEL 1
REMARK VINA RESULT: -6.251865178      0.000      0.000
REMARK  1 active torsions:
REMARK  status: ('A' for Active; 'I' for Inactive)
REMARK    1  A    between atoms: C7_10  and  N3_11 
ROOT
HETATM    1  C1  UNL     1     -21.632   5.327  -1.143  1.00  0.00     0.019 C 
HETATM    2  C2  UNL     1     -21.586   4.410  -0.355  1.00  0.00    -0.056 C 
HETATM    3  C3  UNL     1     -21.551   3.317   0.577  1.00  0.00     0.129 A 
HETATM    4  N1  UNL     1     -21.691   3.327   1.908  1.00  0.00    -0.288 N 
ATOM      5  H1  UNL     1     -21.851   4.166   2.466  1.00  0.00     0.188 HD
HETATM    6  N2  UNL     1     -21.594   2.097   2.407  1.00  0.00    -0.298 N 
HETATM    7  C4  UNL     1     -21.689   1.683   3.805  1.00  0.00     0.177 C 
HETATM    8  C5  UNL     1     -21.383   1.219   1.407  1.00  0.00     0.053 A 
HETATM    9  C6  UNL     1     -21.216  -0.253   1.504  1.00  0.00     0.072 C 
HETATM   10  C7  UNL     1     -21.355   1.971   0.251  1.00  0.00     0.090 A 
ENDROOT
BRANCH  10  11
HETATM   11  N3  UNL     1     -21.158   1.472  -1.062  1.00  0.00    -0.386 N 
HETATM   12  C8  UNL     1     -19.810   1.420  -1.633  1.00  0.00     0.149 C 
HETATM   13  C9  UNL     1     -22.254   1.002  -1.883  1.00  0.00     0.149 C 
ENDBRANCH  10  11
TORSDOF 1
ENDMDL
MODEL 2
REMARK VINA RESULT: -6.244365726      0.207      1.037
REMARK  1 active torsions:
REMARK  status: ('A' for Active; 'I' for Inactive)
REMARK    1  A    between atoms: C7_10  and  N3_11 
ROOT
HETATM    1  C1  UNL     1     -21.673   5.508  -0.856  1.00  0.00     0.019 C 
HETATM    2  C2  UNL     1     -21.618   4.553  -0.116  1.00  0.00    -0.056 C 
HETATM    3  C3  UNL     1     -21.572   3.415   0.760  1.00  0.00     0.129 A 
HETATM    4  N1  UNL     1     -21.702   3.357   2.090  1.00  0.00    -0.288 N 
ATOM      5  H1  UNL     1     -21.862   4.166   2.691  1.00  0.00     0.188 HD
HETATM    6  N2  UNL     1     -21.597   2.104   2.526  1.00  0.00    -0.298 N 
HETATM    7  C4  UNL     1     -21.680   1.618   3.902  1.00  0.00     0.177 C 
HETATM    8  C5  UNL     1     -21.391   1.278   1.482  1.00  0.00     0.053 A 
HETATM    9  C6  UNL     1     -21.217  -0.197   1.503  1.00  0.00     0.072 C 
HETATM   10  C7  UNL     1     -21.373   2.087   0.365  1.00  0.00     0.090 A 
ENDROOT
BRANCH  10  11
HETATM   11  N3  UNL     1     -21.184   1.656  -0.973  1.00  0.00    -0.386 N 
HETATM   12  C8  UNL     1     -22.340   1.310  -1.802  1.00  0.00     0.149 C 
HETATM   13  C9  UNL     1     -19.870   1.540  -1.570  1.00  0.00     0.149 C 
ENDBRANCH  10  11
TORSDOF 1
ENDMDL
MODEL 3
REMARK VINA RESULT: -5.914305735      1.562      3.131
REMARK  1 active torsions:
REMARK  status: ('A' for Active; 'I' for Inactive)
REMARK    1  A    between atoms: C7_10  and  N3_11 
ROOT
HETATM    1  C1  UNL     1     -20.395   4.576  -2.625  1.00  0.00     0.019 C 
HETATM    2  C2  UNL     1     -20.489   3.562  -1.972  1.00  0.00    -0.056 C 
HETATM    3  C3  UNL     1     -20.582   2.362  -1.188  1.00  0.00     0.129 A 
HETATM    4  N1  UNL     1     -20.195   1.117  -1.486  1.00  0.00    -0.288 N 
ATOM      5  H1  UNL     1     -19.755   0.843  -2.365  1.00  0.00     0.188 HD
HETATM    6  N2  UNL     1     -20.459   0.282  -0.484  1.00  0.00    -0.298 N 
HETATM    7  C4  UNL     1     -20.193  -1.154  -0.413  1.00  0.00     0.177 C 
HETATM    8  C5  UNL     1     -21.038   0.959   0.527  1.00  0.00     0.053 A 
HETATM    9  C6  UNL     1     -21.498   0.429   1.836  1.00  0.00     0.072 C 
HETATM   10  C7  UNL     1     -21.122   2.267   0.099  1.00  0.00     0.090 A 
ENDROOT
BRANCH  10  11
HETATM   11  N3  UNL     1     -21.666   3.351   0.835  1.00  0.00    -0.386 N 
HETATM   12  C8  UNL     1     -20.885   3.978   1.902  1.00  0.00     0.149 C 
HETATM   13  C9  UNL     1     -22.990   3.876   0.573  1.00  0.00     0.149 C 
ENDBRANCH  10  11
TORSDOF 1
ENDMDL
MODEL 4
REMARK VINA RESULT: -5.486379592      1.149      3.663
REMARK  1 active torsions:
REMARK  status: ('A' for Active; 'I' for Inactive)
REMARK    1  A    between atoms: C7_10  and  N3_11 
ROOT
HETATM    1  C1  UNL     1     -21.547   0.652   2.534  1.00  0.00     0.019 C 
HETATM    2  C2  UNL     1     -21.524   1.603   1.787  1.00  0.00    -0.056 C 
HETATM    3  C3  UNL     1     -21.477   2.735   0.902  1.00  0.00     0.129 A 
HETATM    4  N1  UNL     1     -21.610   4.037   1.176  1.00  0.00    -0.288 N 
ATOM      5  H1  UNL     1     -21.773   4.418   2.108  1.00  0.00     0.188 HD
HETATM    6  N2  UNL     1     -21.503   4.770   0.070  1.00  0.00    -0.298 N 
HETATM    7  C4  UNL     1     -21.590   6.224  -0.059  1.00  0.00     0.177 C 
HETATM    8  C5  UNL     1     -21.291   3.964  -0.988  1.00  0.00     0.053 A 
HETATM    9  C6  UNL     1     -21.111   4.351  -2.410  1.00  0.00     0.072 C 
HETATM   10  C7  UNL     1     -21.272   2.681  -0.481  1.00  0.00     0.090 A 
ENDROOT
BRANCH  10  11
HETATM   11  N3  UNL     1     -21.077   1.492  -1.230  1.00  0.00    -0.386 N 
HETATM   12  C8  UNL     1     -22.222   0.816  -1.842  1.00  0.00     0.149 C 
HETATM   13  C9  UNL     1     -19.768   0.904  -1.420  1.00  0.00     0.149 C 
ENDBRANCH  10  11
TORSDOF 1
ENDMDL
MODEL 5
REMARK VINA RESULT: -5.485534119      1.144      3.519
REMARK  1 active torsions:
REMARK  status: ('A' for Active; 'I' for Inactive)
REMARK    1  A    between atoms: C7_10  and  N3_11 
ROOT
HETATM    1  C1  UNL     1     -21.556   0.655   2.544  1.00  0.00     0.019 C 
HETATM    2  C2  UNL     1     -21.533   1.610   1.802  1.00  0.00    -0.056 C 
HETATM    3  C3  UNL     1     -21.486   2.745   0.922  1.00  0.00     0.129 A 
HETATM    4  N1  UNL     1     -21.609   4.047   1.203  1.00  0.00    -0.288 N 
ATOM      5  H1  UNL     1     -21.761   4.425   2.138  1.00  0.00     0.188 HD
HETATM    6  N2  UNL     1     -21.506   4.785   0.100  1.00  0.00    -0.298 N 
HETATM    7  C4  UNL     1     -21.584   6.239  -0.021  1.00  0.00     0.177 C 
HETATM    8  C5  UNL     1     -21.309   3.982  -0.964  1.00  0.00     0.053 A 
HETATM    9  C6  UNL     1     -21.138   4.375  -2.386  1.00  0.00     0.072 C 
HETATM   10  C7  UNL     1     -21.293   2.697  -0.463  1.00  0.00     0.090 A 
ENDROOT
BRANCH  10  11
HETATM   11  N3  UNL     1     -21.112   1.511  -1.219  1.00  0.00    -0.386 N 
HETATM   12  C8  UNL     1     -19.771   0.951  -1.395  1.00  0.00     0.149 C 
HETATM   13  C9  UNL     1     -22.219   0.813  -1.839  1.00  0.00     0.149 C 
ENDBRANCH  10  11
TORSDOF 1
ENDMDL
