MODEL 1
REMARK VINA RESULT: -8.345253946      0.000      0.000
REMARK  5 active torsions:
REMARK  status: ('A' for Active; 'I' for Inactive)
REMARK    1  A    between atoms: C2_2  and  C4_4 
REMARK    2  A    between atoms: C11_11  and  C12_12 
REMARK    3  A    between atoms: C14_14  and  O1_15 
REMARK    4  A    between atoms: C15_17  and  C16_18 
REMARK    5  A    between atoms: C16_18  and  O2_21 
ROOT
HETATM    1  C4  UNL     1       6.457  12.198  24.470  1.00  0.00     0.019 C 
HETATM    2  C5  UNL     1       5.137  12.837  24.193  1.00  0.00     0.008 C 
HETATM    3  C6  UNL     1       4.098  12.132  25.054  1.00  0.00     0.006 C 
HETATM    4  C7  UNL     1       3.781  10.791  24.379  1.00  0.00    -0.005 C 
HETATM    5  C8  UNL     1       2.466  10.341  24.887  1.00  0.00    -0.002 C 
HETATM    6  C9  UNL     1       1.571   9.739  23.795  1.00  0.00     0.006 C 
HETATM    7  C10 UNL     1       0.636   8.782  24.548  1.00  0.00     0.008 C 
HETATM    8  C11 UNL     1       1.041   8.888  25.978  1.00  0.00     0.023 C 
HETATM    9  C19 UNL     1       2.523   9.180  25.857  1.00  0.00    -0.034 C 
HETATM   10  C20 UNL     1       2.982   9.605  27.236  1.00  0.00     0.016 C 
HETATM   11  C21 UNL     1       3.277   8.034  25.294  1.00  0.00     0.010 C 
HETATM   12  C22 UNL     1       4.500   8.382  24.511  1.00  0.00     0.007 C 
HETATM   13  C23 UNL     1       4.900   9.819  24.510  1.00  0.00     0.003 C 
HETATM   14  C24 UNL     1       5.846  10.029  23.351  1.00  0.00     0.008 C 
HETATM   15  C25 UNL     1       5.253   9.968  21.988  1.00  0.00     0.020 C 
HETATM   16  C26 UNL     1       7.128   9.209  23.427  1.00  0.00     0.180 C 
HETATM   17  O4  UNL     1       7.804  10.284  24.050  1.00  0.00    -0.384 OA
HETATM   18  C27 UNL     1       6.827  11.113  23.535  1.00  0.00     0.136 C 
ENDROOT
BRANCH   8  19
HETATM   19  C12 UNL     1       0.701   7.710  26.822  1.00  0.00     0.129 C 
HETATM   20  C13 UNL     1      -0.010   6.706  25.902  1.00  0.00     0.067 C 
HETATM   21  C14 UNL     1       0.739   5.416  26.167  1.00  0.00     0.152 C 
HETATM   22  C15 UNL     1       1.407   5.709  27.484  1.00  0.00     0.184 C 
HETATM   23  O3  UNL     1       1.798   7.034  27.318  1.00  0.00    -0.374 OA
BRANCH  21  24
HETATM   24  O1  UNL     1      -0.122   4.323  26.227  1.00  0.00    -0.393 OA
ATOM     25  H1  UNL     1      -1.000   4.581  26.485  1.00  0.00     0.210 HD
ENDBRANCH  21  24
BRANCH  22  26
HETATM   26  C16 UNL     1       2.622   4.840  27.718  1.00  0.00     0.079 C 
HETATM   27  C17 UNL     1       3.672   5.534  28.534  1.00  0.00     0.048 C 
HETATM   28  C18 UNL     1       3.238   4.575  26.338  1.00  0.00     0.048 C 
BRANCH  26  29
HETATM   29  O2  UNL     1       2.284   3.607  28.243  1.00  0.00    -0.388 OA
ATOM     30  H2  UNL     1       1.497   3.254  27.845  1.00  0.00     0.210 HD
ENDBRANCH  26  29
ENDBRANCH  22  26
ENDBRANCH   8  19
BRANCH   1  31
HETATM   31  C2  UNL     1       7.575  13.245  24.438  1.00  0.00    -0.016 C 
HETATM   32  C1  UNL     1       7.087  14.585  24.920  1.00  0.00     0.010 C 
HETATM   33  C3  UNL     1       8.736  12.829  25.294  1.00  0.00     0.010 C 
ENDBRANCH   1  31
TORSDOF 5
ENDMDL
MODEL 2
REMARK VINA RESULT: -8.190200741      3.450      7.194
REMARK  5 active torsions:
REMARK  status: ('A' for Active; 'I' for Inactive)
REMARK    1  A    between atoms: C2_2  and  C4_4 
REMARK    2  A    between atoms: C11_11  and  C12_12 
REMARK    3  A    between atoms: C14_14  and  O1_15 
REMARK    4  A    between atoms: C15_17  and  C16_18 
REMARK    5  A    between atoms: C16_18  and  O2_21 
ROOT
HETATM    1  C4  UNL     1       4.354   5.638  30.270  1.00  0.00     0.019 C 
HETATM    2  C5  UNL     1       4.927   7.000  30.064  1.00  0.00     0.008 C 
HETATM    3  C6  UNL     1       3.845   7.860  29.428  1.00  0.00     0.006 C 
HETATM    4  C7  UNL     1       3.775   7.480  27.943  1.00  0.00    -0.005 C 
HETATM    5  C8  UNL     1       3.129   8.604  27.229  1.00  0.00    -0.002 C 
HETATM    6  C9  UNL     1       3.794   8.927  25.884  1.00  0.00     0.006 C 
HETATM    7  C10 UNL     1       2.680   9.574  25.049  1.00  0.00     0.008 C 
HETATM    8  C11 UNL     1       1.482   9.579  25.937  1.00  0.00     0.023 C 
HETATM    9  C19 UNL     1       1.712   8.335  26.770  1.00  0.00    -0.034 C 
HETATM   10  C20 UNL     1       0.715   8.400  27.908  1.00  0.00     0.016 C 
HETATM   11  C21 UNL     1       1.626   7.094  25.962  1.00  0.00     0.010 C 
HETATM   12  C22 UNL     1       2.462   5.950  26.434  1.00  0.00     0.007 C 
HETATM   13  C23 UNL     1       3.167   6.138  27.735  1.00  0.00     0.003 C 
HETATM   14  C24 UNL     1       4.266   5.105  27.813  1.00  0.00     0.008 C 
HETATM   15  C25 UNL     1       5.429   5.300  26.907  1.00  0.00     0.020 C 
HETATM   16  C26 UNL     1       3.777   3.661  27.774  1.00  0.00     0.180 C 
HETATM   17  O4  UNL     1       3.757   3.607  29.187  1.00  0.00    -0.384 OA
HETATM   18  C27 UNL     1       4.627   4.679  29.177  1.00  0.00     0.136 C 
ENDROOT
BRANCH   8  19
HETATM   19  C12 UNL     1       0.172   9.629  25.233  1.00  0.00     0.129 C 
HETATM   20  C13 UNL     1      -0.862  10.096  26.269  1.00  0.00     0.067 C 
HETATM   21  C14 UNL     1      -1.569  11.229  25.554  1.00  0.00     0.152 C 
HETATM   22  C15 UNL     1      -1.218  10.956  24.116  1.00  0.00     0.184 C 
HETATM   23  O3  UNL     1       0.112  10.561  24.216  1.00  0.00    -0.374 OA
BRANCH  21  24
HETATM   24  O1  UNL     1      -2.942  11.209  25.790  1.00  0.00    -0.393 OA
ATOM     25  H1  UNL     1      -3.431  11.546  25.048  1.00  0.00     0.210 HD
ENDBRANCH  21  24
BRANCH  22  26
HETATM   26  C16 UNL     1      -1.324  12.194  23.254  1.00  0.00     0.079 C 
HETATM   27  C17 UNL     1      -1.028  11.911  21.810  1.00  0.00     0.048 C 
HETATM   28  C18 UNL     1      -0.239  13.160  23.746  1.00  0.00     0.048 C 
BRANCH  26  29
HETATM   29  O2  UNL     1      -2.535  12.840  23.421  1.00  0.00    -0.388 OA
ATOM     30  H2  UNL     1      -2.549  13.686  22.990  1.00  0.00     0.210 HD
ENDBRANCH  26  29
ENDBRANCH  22  26
ENDBRANCH   8  19
BRANCH   1  31
HETATM   31  C2  UNL     1       4.882   5.026  31.572  1.00  0.00    -0.016 C 
HETATM   32  C1  UNL     1       6.311   5.426  31.827  1.00  0.00     0.010 C 
HETATM   33  C3  UNL     1       4.055   5.451  32.750  1.00  0.00     0.010 C 
ENDBRANCH   1  31
TORSDOF 5
ENDMDL
MODEL 3
REMARK VINA RESULT: -7.457301462      1.444      1.828
REMARK  5 active torsions:
REMARK  status: ('A' for Active; 'I' for Inactive)
REMARK    1  A    between atoms: C2_2  and  C4_4 
REMARK    2  A    between atoms: C11_11  and  C12_12 
REMARK    3  A    between atoms: C14_14  and  O1_15 
REMARK    4  A    between atoms: C15_17  and  C16_18 
REMARK    5  A    between atoms: C16_18  and  O2_21 
ROOT
HETATM    1  C4  UNL     1       6.247  11.888  24.389  1.00  0.00     0.019 C 
HETATM    2  C5  UNL     1       4.912  12.473  24.070  1.00  0.00     0.008 C 
HETATM    3  C6  UNL     1       3.895  11.826  25.001  1.00  0.00     0.006 C 
HETATM    4  C7  UNL     1       3.601  10.424  24.451  1.00  0.00    -0.005 C 
HETATM    5  C8  UNL     1       2.300   9.995  25.010  1.00  0.00    -0.002 C 
HETATM    6  C9  UNL     1       1.409   9.281  23.985  1.00  0.00     0.006 C 
HETATM    7  C10 UNL     1       0.500   8.375  24.830  1.00  0.00     0.008 C 
HETATM    8  C11 UNL     1       0.916   8.616  26.241  1.00  0.00     0.023 C 
HETATM    9  C19 UNL     1       2.390   8.926  26.079  1.00  0.00    -0.034 C 
HETATM   10  C20 UNL     1       2.852   9.481  27.410  1.00  0.00     0.016 C 
HETATM   11  C21 UNL     1       3.163   7.751  25.612  1.00  0.00     0.010 C 
HETATM   12  C22 UNL     1       4.372   8.052  24.789  1.00  0.00     0.007 C 
HETATM   13  C23 UNL     1       4.741   9.490  24.656  1.00  0.00     0.003 C 
HETATM   14  C24 UNL     1       5.672   9.616  23.473  1.00  0.00     0.008 C 
HETATM   15  C25 UNL     1       5.070   9.422  22.127  1.00  0.00     0.020 C 
HETATM   16  C26 UNL     1       6.972   8.832  23.609  1.00  0.00     0.180 C 
HETATM   17  O4  UNL     1       7.631   9.972  24.126  1.00  0.00    -0.384 OA
HETATM   18  C27 UNL     1       6.632  10.731  23.550  1.00  0.00     0.136 C 
ENDROOT
BRANCH   8  19
HETATM   19  C12 UNL     1       0.608   7.511  27.189  1.00  0.00     0.129 C 
HETATM   20  C13 UNL     1       1.527   6.341  26.808  1.00  0.00     0.067 C 
HETATM   21  C14 UNL     1       2.153   5.957  28.133  1.00  0.00     0.152 C 
HETATM   22  C15 UNL     1       1.201   6.581  29.119  1.00  0.00     0.184 C 
HETATM   23  O3  UNL     1       0.910   7.796  28.506  1.00  0.00    -0.374 OA
BRANCH  21  24
HETATM   24  O1  UNL     1       2.251   4.575  28.275  1.00  0.00    -0.393 OA
ATOM     25  H1  UNL     1       2.850   4.335  28.973  1.00  0.00     0.210 HD
ENDBRANCH  21  24
BRANCH  22  26
HETATM   26  C16 UNL     1       1.846   6.824  30.465  1.00  0.00     0.079 C 
HETATM   27  C17 UNL     1       0.853   6.780  31.589  1.00  0.00     0.048 C 
HETATM   28  C18 UNL     1       2.405   8.252  30.426  1.00  0.00     0.048 C 
BRANCH  26  29
HETATM   29  O2  UNL     1       2.921   5.984  30.684  1.00  0.00    -0.388 OA
ATOM     30  H2  UNL     1       3.404   6.221  31.467  1.00  0.00     0.210 HD
ENDBRANCH  26  29
ENDBRANCH  22  26
ENDBRANCH   8  19
BRANCH   1  31
HETATM   31  C2  UNL     1       7.343  12.950  24.253  1.00  0.00    -0.016 C 
HETATM   32  C1  UNL     1       6.943  14.241  24.916  1.00  0.00     0.010 C 
HETATM   33  C3  UNL     1       8.633  12.485  24.864  1.00  0.00     0.010 C 
ENDBRANCH   1  31
TORSDOF 5
ENDMDL
MODEL 4
REMARK VINA RESULT: -7.437769857      3.380      7.180
REMARK  5 active torsions:
REMARK  status: ('A' for Active; 'I' for Inactive)
REMARK    1  A    between atoms: C2_2  and  C4_4 
REMARK    2  A    between atoms: C11_11  and  C12_12 
REMARK    3  A    between atoms: C14_14  and  O1_15 
REMARK    4  A    between atoms: C15_17  and  C16_18 
REMARK    5  A    between atoms: C16_18  and  O2_21 
ROOT
HETATM    1  C4  UNL     1       5.170   6.092  28.600  1.00  0.00     0.019 C 
HETATM    2  C5  UNL     1       5.127   5.634  27.180  1.00  0.00     0.008 C 
HETATM    3  C6  UNL     1       4.750   6.834  26.323  1.00  0.00     0.006 C 
HETATM    4  C7  UNL     1       3.238   7.046  26.478  1.00  0.00    -0.005 C 
HETATM    5  C8  UNL     1       2.782   7.839  25.314  1.00  0.00    -0.002 C 
HETATM    6  C9  UNL     1       1.446   7.352  24.738  1.00  0.00     0.006 C 
HETATM    7  C10 UNL     1       0.842   8.592  24.063  1.00  0.00     0.008 C 
HETATM    8  C11 UNL     1       1.836   9.680  24.290  1.00  0.00     0.023 C 
HETATM    9  C19 UNL     1       2.432   9.279  25.624  1.00  0.00    -0.034 C 
HETATM   10  C20 UNL     1       3.661  10.143  25.813  1.00  0.00     0.016 C 
HETATM   11  C21 UNL     1       1.449   9.376  26.730  1.00  0.00     0.010 C 
HETATM   12  C22 UNL     1       1.645   8.421  27.861  1.00  0.00     0.007 C 
HETATM   13  C23 UNL     1       2.881   7.587  27.817  1.00  0.00     0.003 C 
HETATM   14  C24 UNL     1       2.681   6.423  28.758  1.00  0.00     0.008 C 
HETATM   15  C25 UNL     1       1.705   5.384  28.334  1.00  0.00     0.020 C 
HETATM   16  C26 UNL     1       2.461   6.819  30.213  1.00  0.00     0.180 C 
HETATM   17  O4  UNL     1       3.842   6.676  30.483  1.00  0.00    -0.384 OA
HETATM   18  C27 UNL     1       3.915   5.883  29.356  1.00  0.00     0.136 C 
ENDROOT
BRANCH   8  19
HETATM   19  C12 UNL     1       1.286  11.062  24.239  1.00  0.00     0.129 C 
HETATM   20  C13 UNL     1       1.776  11.677  22.920  1.00  0.00     0.067 C 
HETATM   21  C14 UNL     1       0.503  12.224  22.308  1.00  0.00     0.152 C 
HETATM   22  C15 UNL     1      -0.411  12.295  23.502  1.00  0.00     0.184 C 
HETATM   23  O3  UNL     1      -0.092  11.119  24.176  1.00  0.00    -0.374 OA
BRANCH  21  24
HETATM   24  O1  UNL     1       0.710  13.465  21.711  1.00  0.00    -0.393 OA
ATOM     25  H1  UNL     1       0.619  14.176  22.335  1.00  0.00     0.210 HD
ENDBRANCH  21  24
BRANCH  22  26
HETATM   26  C16 UNL     1      -1.871  12.284  23.110  1.00  0.00     0.079 C 
HETATM   27  C17 UNL     1      -2.536  13.608  23.348  1.00  0.00     0.048 C 
HETATM   28  C18 UNL     1      -2.560  11.271  24.034  1.00  0.00     0.048 C 
BRANCH  26  29
HETATM   29  O2  UNL     1      -2.057  11.831  21.818  1.00  0.00    -0.388 OA
ATOM     30  H2  UNL     1      -2.873  11.354  21.722  1.00  0.00     0.210 HD
ENDBRANCH  26  29
ENDBRANCH  22  26
ENDBRANCH   8  19
BRANCH   1  31
HETATM   31  C2  UNL     1       6.296   5.382  29.357  1.00  0.00    -0.016 C 
HETATM   32  C1  UNL     1       6.736   4.132  28.644  1.00  0.00     0.010 C 
HETATM   33  C3  UNL     1       7.491   6.276  29.524  1.00  0.00     0.010 C 
ENDBRANCH   1  31
TORSDOF 5
ENDMDL
MODEL 5
REMARK VINA RESULT: -7.328444988      3.386      6.763
REMARK  5 active torsions:
REMARK  status: ('A' for Active; 'I' for Inactive)
REMARK    1  A    between atoms: C2_2  and  C4_4 
REMARK    2  A    between atoms: C11_11  and  C12_12 
REMARK    3  A    between atoms: C14_14  and  O1_15 
REMARK    4  A    between atoms: C15_17  and  C16_18 
REMARK    5  A    between atoms: C16_18  and  O2_21 
ROOT
HETATM    1  C4  UNL     1       5.129   4.862  27.937  1.00  0.00     0.019 C 
HETATM    2  C5  UNL     1       5.285   6.227  28.520  1.00  0.00     0.008 C 
HETATM    3  C6  UNL     1       4.004   6.996  28.231  1.00  0.00     0.006 C 
HETATM    4  C7  UNL     1       4.057   7.433  26.760  1.00  0.00    -0.005 C 
HETATM    5  C8  UNL     1       3.118   8.566  26.602  1.00  0.00    -0.002 C 
HETATM    6  C9  UNL     1       3.670   9.687  25.712  1.00  0.00     0.006 C 
HETATM    7  C10 UNL     1       2.421  10.376  25.142  1.00  0.00     0.008 C 
HETATM    8  C11 UNL     1       1.268   9.629  25.720  1.00  0.00     0.023 C 
HETATM    9  C19 UNL     1       1.842   8.234  25.857  1.00  0.00    -0.034 C 
HETATM   10  C20 UNL     1       0.862   7.457  26.711  1.00  0.00     0.016 C 
HETATM   11  C21 UNL     1       2.124   7.611  24.541  1.00  0.00     0.010 C 
HETATM   12  C22 UNL     1       3.253   6.633  24.513  1.00  0.00     0.007 C 
HETATM   13  C23 UNL     1       3.864   6.289  25.828  1.00  0.00     0.003 C 
HETATM   14  C24 UNL     1       5.215   5.670  25.556  1.00  0.00     0.008 C 
HETATM   15  C25 UNL     1       6.277   6.582  25.056  1.00  0.00     0.020 C 
HETATM   16  C26 UNL     1       5.165   4.385  24.737  1.00  0.00     0.180 C 
HETATM   17  O4  UNL     1       5.153   3.607  25.918  1.00  0.00    -0.384 OA
HETATM   18  C27 UNL     1       5.675   4.705  26.571  1.00  0.00     0.136 C 
ENDROOT
BRANCH   8  19
HETATM   19  C12 UNL     1       0.003   9.713  24.939  1.00  0.00     0.129 C 
HETATM   20  C13 UNL     1      -1.106  10.065  25.942  1.00  0.00     0.067 C 
HETATM   21  C14 UNL     1      -1.797  11.241  25.283  1.00  0.00     0.152 C 
HETATM   22  C15 UNL     1      -1.349  11.102  23.853  1.00  0.00     0.184 C 
HETATM   23  O3  UNL     1      -0.017  10.729  24.005  1.00  0.00    -0.374 OA
BRANCH  21  24
HETATM   24  O1  UNL     1      -3.181  11.171  25.427  1.00  0.00    -0.393 OA
ATOM     25  H1  UNL     1      -3.464  11.505  26.270  1.00  0.00     0.210 HD
ENDBRANCH  21  24
BRANCH  22  26
HETATM   26  C16 UNL     1      -1.434  12.408  23.095  1.00  0.00     0.079 C 
HETATM   27  C17 UNL     1      -1.147  12.239  21.632  1.00  0.00     0.048 C 
HETATM   28  C18 UNL     1      -0.330  13.310  23.660  1.00  0.00     0.048 C 
BRANCH  26  29
HETATM   29  O2  UNL     1      -2.632  13.061  23.320  1.00  0.00    -0.388 OA
ATOM     30  H2  UNL     1      -3.224  12.982  22.581  1.00  0.00     0.210 HD
ENDBRANCH  26  29
ENDBRANCH  22  26
ENDBRANCH   8  19
BRANCH   1  31
HETATM   31  C2  UNL     1       5.803   3.818  28.833  1.00  0.00    -0.016 C 
HETATM   32  C1  UNL     1       7.254   4.147  29.066  1.00  0.00     0.010 C 
HETATM   33  C3  UNL     1       5.122   3.720  30.167  1.00  0.00     0.010 C 
ENDBRANCH   1  31
TORSDOF 5
ENDMDL
