MODEL 1
REMARK VINA RESULT: -7.486859729      0.000      0.000
REMARK  6 active torsions:
REMARK  status: ('A' for Active; 'I' for Inactive)
REMARK    1  A    between atoms: C2_2  and  C3_3 
REMARK    2  A    between atoms: C2_2  and  C4_6 
REMARK    3  A    between atoms: C3_3  and  O1_4 
REMARK    4  A    between atoms: C15_18  and  C16_19 
REMARK    5  A    between atoms: C21_24  and  O3_25 
REMARK    6  A    between atoms: C28_33  and  O4_34 
ROOT
HETATM    1  C4  UNL     1      -0.019   8.876  25.873  1.00  0.00     0.190 A 
HETATM    2  O2  UNL     1       0.045   8.749  24.503  1.00  0.00    -0.364 OA
HETATM    3  C5  UNL     1       1.429   8.589  24.597  1.00  0.00     0.092 A 
HETATM    4  C6  UNL     1       2.072   9.767  23.853  1.00  0.00     0.049 C 
HETATM    5  C7  UNL     1       1.886   7.308  24.010  1.00  0.00     0.046 C 
HETATM    6  C8  UNL     1       2.922   6.601  24.862  1.00  0.00    -0.003 C 
HETATM    7  C9  UNL     1       4.213   7.358  24.930  1.00  0.00     0.006 C 
HETATM    8  C10 UNL     1       5.245   6.447  25.574  1.00  0.00     0.006 C 
HETATM    9  C11 UNL     1       4.723   6.232  27.001  1.00  0.00    -0.001 C 
HETATM   10  C12 UNL     1       5.739   5.748  27.926  1.00  0.00     0.001 C 
HETATM   11  C13 UNL     1       6.215   4.344  27.802  1.00  0.00     0.006 C 
HETATM   12  C14 UNL     1       7.107   4.260  29.043  1.00  0.00     0.006 C 
HETATM   13  C15 UNL     1       6.101   4.816  30.067  1.00  0.00    -0.000 C 
HETATM   14  C19 UNL     1       5.288   5.860  29.342  1.00  0.00    -0.010 C 
HETATM   15  C20 UNL     1       5.666   7.267  29.815  1.00  0.00     0.018 C 
HETATM   16  C21 UNL     1       3.811   5.694  29.543  1.00  0.00     0.128 C 
HETATM   17  C22 UNL     1       2.983   5.267  28.413  1.00  0.00     0.042 C 
HETATM   18  C23 UNL     1       3.408   5.545  27.015  1.00  0.00    -0.030 C 
HETATM   19  C24 UNL     1       3.475   4.203  26.275  1.00  0.00     0.016 C 
HETATM   20  C25 UNL     1       2.358   6.344  26.225  1.00  0.00    -0.030 C 
HETATM   21  C26 UNL     1       1.144   5.407  26.129  1.00  0.00     0.016 C 
HETATM   22  C27 UNL     1       1.914   7.579  26.879  1.00  0.00     0.054 C 
HETATM   23  C28 UNL     1       1.474   8.720  26.055  1.00  0.00     0.119 A 
ENDROOT
BRANCH   1  24
HETATM   24  C2  UNL     1      -0.617  10.175  26.260  1.00  0.00    -0.034 C 
HETATM   25  C1  UNL     1      -0.800  10.459  27.543  1.00  0.00     0.019 C 
BRANCH  24  26
HETATM   26  C3  UNL     1      -1.018  11.183  25.255  1.00  0.00     0.200 C 
BRANCH  26  27
HETATM   27  O1  UNL     1      -2.216  10.788  24.618  1.00  0.00    -0.397 OA
ATOM     28  H1  UNL     1      -2.907  11.414  24.801  1.00  0.00     0.209 HD
ENDBRANCH  26  27
ENDBRANCH  24  26
ENDBRANCH   1  24
BRANCH  23  29
HETATM   29  O4  UNL     1       2.023   9.971  26.418  1.00  0.00    -0.384 OA
ATOM     30  H4  UNL     1       2.851  10.084  25.967  1.00  0.00     0.210 HD
ENDBRANCH  23  29
BRANCH  16  31
HETATM   31  O3  UNL     1       3.272   6.818  30.178  1.00  0.00    -0.395 OA
ATOM     32  H3  UNL     1       2.712   7.301  29.582  1.00  0.00     0.210 HD
ENDBRANCH  16  31
BRANCH  13  33
HETATM   33  C16 UNL     1       6.857   5.284  31.257  1.00  0.00    -0.018 C 
HETATM   34  C17 UNL     1       8.287   4.732  31.077  1.00  0.00     0.010 C 
HETATM   35  C18 UNL     1       6.377   4.732  32.560  1.00  0.00     0.010 C 
ENDBRANCH  13  33
TORSDOF 6
ENDMDL
MODEL 2
REMARK VINA RESULT: -6.846498894      2.332      7.683
REMARK  6 active torsions:
REMARK  status: ('A' for Active; 'I' for Inactive)
REMARK    1  A    between atoms: C2_2  and  C3_3 
REMARK    2  A    between atoms: C2_2  and  C4_6 
REMARK    3  A    between atoms: C3_3  and  O1_4 
REMARK    4  A    between atoms: C15_18  and  C16_19 
REMARK    5  A    between atoms: C21_24  and  O3_25 
REMARK    6  A    between atoms: C28_33  and  O4_34 
ROOT
HETATM    1  C4  UNL     1       4.853   4.204  25.800  1.00  0.00     0.190 A 
HETATM    2  O2  UNL     1       5.090   3.889  27.120  1.00  0.00    -0.364 OA
HETATM    3  C5  UNL     1       4.813   5.212  27.471  1.00  0.00     0.092 A 
HETATM    4  C6  UNL     1       6.097   5.800  28.069  1.00  0.00     0.049 C 
HETATM    5  C7  UNL     1       3.705   5.311  28.449  1.00  0.00     0.046 C 
HETATM    6  C8  UNL     1       2.725   6.421  28.125  1.00  0.00    -0.003 C 
HETATM    7  C9  UNL     1       3.342   7.780  28.257  1.00  0.00     0.006 C 
HETATM    8  C10 UNL     1       2.221   8.803  28.173  1.00  0.00     0.006 C 
HETATM    9  C11 UNL     1       1.671   8.646  26.749  1.00  0.00    -0.001 C 
HETATM   10  C12 UNL     1       0.887   9.789  26.298  1.00  0.00     0.001 C 
HETATM   11  C13 UNL     1      -0.464  10.009  26.883  1.00  0.00     0.006 C 
HETATM   12  C14 UNL     1      -0.939  11.172  26.009  1.00  0.00     0.006 C 
HETATM   13  C15 UNL     1      -0.606  10.559  24.637  1.00  0.00    -0.000 C 
HETATM   14  C19 UNL     1       0.649   9.744  24.828  1.00  0.00    -0.010 C 
HETATM   15  C20 UNL     1       1.849  10.430  24.167  1.00  0.00     0.018 C 
HETATM   16  C21 UNL     1       0.542   8.362  24.253  1.00  0.00     0.128 C 
HETATM   17  C22 UNL     1       0.492   7.215  25.163  1.00  0.00     0.042 C 
HETATM   18  C23 UNL     1       1.101   7.296  26.517  1.00  0.00    -0.030 C 
HETATM   19  C24 UNL     1       0.004   6.974  27.540  1.00  0.00     0.016 C 
HETATM   20  C25 UNL     1       2.155   6.202  26.758  1.00  0.00    -0.030 C 
HETATM   21  C26 UNL     1       1.367   4.884  26.717  1.00  0.00     0.016 C 
HETATM   22  C27 UNL     1       3.199   6.126  25.732  1.00  0.00     0.054 C 
HETATM   23  C28 UNL     1       4.547   5.654  26.100  1.00  0.00     0.119 A 
ENDROOT
BRANCH   1  24
HETATM   24  C2  UNL     1       6.040   3.921  24.961  1.00  0.00    -0.034 C 
HETATM   25  C1  UNL     1       7.194   3.608  25.537  1.00  0.00     0.019 C 
BRANCH  24  26
HETATM   26  C3  UNL     1       5.984   3.968  23.484  1.00  0.00     0.200 C 
BRANCH  26  27
HETATM   27  O1  UNL     1       6.287   5.269  23.025  1.00  0.00    -0.397 OA
ATOM     28  H1  UNL     1       6.794   5.225  22.223  1.00  0.00     0.209 HD
ENDBRANCH  26  27
ENDBRANCH  24  26
ENDBRANCH   1  24
BRANCH  23  29
HETATM   29  O4  UNL     1       5.614   6.452  25.627  1.00  0.00    -0.384 OA
ATOM     30  H4  UNL     1       6.104   6.780  26.372  1.00  0.00     0.210 HD
ENDBRANCH  23  29
BRANCH  16  31
HETATM   31  O3  UNL     1       1.491   8.175  23.244  1.00  0.00    -0.395 OA
ATOM     32  H3  UNL     1       2.278   8.673  23.430  1.00  0.00     0.210 HD
ENDBRANCH  16  31
BRANCH  13  33
HETATM   33  C16 UNL     1      -0.527  11.658  23.641  1.00  0.00    -0.018 C 
HETATM   34  C17 UNL     1      -0.199  12.927  24.457  1.00  0.00     0.010 C 
HETATM   35  C18 UNL     1      -1.810  11.957  22.936  1.00  0.00     0.010 C 
ENDBRANCH  13  33
TORSDOF 6
ENDMDL
MODEL 3
REMARK VINA RESULT: -6.786373005      1.165      1.304
REMARK  6 active torsions:
REMARK  status: ('A' for Active; 'I' for Inactive)
REMARK    1  A    between atoms: C2_2  and  C3_3 
REMARK    2  A    between atoms: C2_2  and  C4_6 
REMARK    3  A    between atoms: C3_3  and  O1_4 
REMARK    4  A    between atoms: C15_18  and  C16_19 
REMARK    5  A    between atoms: C21_24  and  O3_25 
REMARK    6  A    between atoms: C28_33  and  O4_34 
ROOT
HETATM    1  C4  UNL     1       1.322   9.045  25.057  1.00  0.00     0.190 A 
HETATM    2  O2  UNL     1       1.572   8.763  23.733  1.00  0.00    -0.364 OA
HETATM    3  C5  UNL     1       2.886   8.428  24.068  1.00  0.00     0.092 A 
HETATM    4  C6  UNL     1       3.804   9.421  23.343  1.00  0.00     0.049 C 
HETATM    5  C7  UNL     1       3.228   7.041  23.675  1.00  0.00     0.046 C 
HETATM    6  C8  UNL     1       4.004   6.297  24.744  1.00  0.00    -0.003 C 
HETATM    7  C9  UNL     1       5.370   6.875  24.960  1.00  0.00     0.006 C 
HETATM    8  C10 UNL     1       6.143   5.907  25.840  1.00  0.00     0.006 C 
HETATM    9  C11 UNL     1       5.385   5.920  27.174  1.00  0.00    -0.001 C 
HETATM   10  C12 UNL     1       6.164   5.406  28.293  1.00  0.00     0.001 C 
HETATM   11  C13 UNL     1       6.436   3.945  28.368  1.00  0.00     0.006 C 
HETATM   12  C14 UNL     1       7.106   3.875  29.742  1.00  0.00     0.006 C 
HETATM   13  C15 UNL     1       6.052   4.669  30.535  1.00  0.00    -0.000 C 
HETATM   14  C19 UNL     1       5.526   5.729  29.600  1.00  0.00    -0.010 C 
HETATM   15  C20 UNL     1       6.036   7.115  30.008  1.00  0.00     0.018 C 
HETATM   16  C21 UNL     1       4.027   5.787  29.567  1.00  0.00     0.128 C 
HETATM   17  C22 UNL     1       3.325   5.357  28.356  1.00  0.00     0.042 C 
HETATM   18  C23 UNL     1       3.994   5.423  27.029  1.00  0.00    -0.030 C 
HETATM   19  C24 UNL     1       3.970   4.013  26.427  1.00  0.00     0.016 C 
HETATM   20  C25 UNL     1       3.208   6.267  26.012  1.00  0.00    -0.030 C 
HETATM   21  C26 UNL     1       1.896   5.498  25.795  1.00  0.00     0.016 C 
HETATM   22  C27 UNL     1       2.862   7.614  26.476  1.00  0.00     0.054 C 
HETATM   23  C28 UNL     1       2.728   8.708  25.497  1.00  0.00     0.119 A 
ENDROOT
BRANCH   1  24
HETATM   24  C2  UNL     1       0.874  10.446  25.230  1.00  0.00    -0.034 C 
HETATM   25  C1  UNL     1      -0.035  10.739  26.150  1.00  0.00     0.019 C 
BRANCH  24  26
HETATM   26  C3  UNL     1       1.416  11.548  24.404  1.00  0.00     0.200 C 
BRANCH  26  27
HETATM   27  O1  UNL     1       0.933  11.450  23.080  1.00  0.00    -0.397 OA
ATOM     28  H1  UNL     1       1.381  12.072  22.520  1.00  0.00     0.209 HD
ENDBRANCH  26  27
ENDBRANCH  24  26
ENDBRANCH   1  24
BRANCH  23  29
HETATM   29  O4  UNL     1       3.398   9.906  25.838  1.00  0.00    -0.384 OA
ATOM     30  H4  UNL     1       3.204  10.118  26.743  1.00  0.00     0.210 HD
ENDBRANCH  23  29
BRANCH  16  31
HETATM   31  O3  UNL     1       3.574   7.035  30.006  1.00  0.00    -0.395 OA
ATOM     32  H3  UNL     1       3.131   6.953  30.842  1.00  0.00     0.210 HD
ENDBRANCH  16  31
BRANCH  13  33
HETATM   33  C16 UNL     1       6.681   5.156  31.790  1.00  0.00    -0.018 C 
HETATM   34  C17 UNL     1       8.088   4.521  31.816  1.00  0.00     0.010 C 
HETATM   35  C18 UNL     1       6.012   4.696  33.044  1.00  0.00     0.010 C 
ENDBRANCH  13  33
TORSDOF 6
ENDMDL
MODEL 4
REMARK VINA RESULT: -6.762822689      1.979      7.800
REMARK  6 active torsions:
REMARK  status: ('A' for Active; 'I' for Inactive)
REMARK    1  A    between atoms: C2_2  and  C3_3 
REMARK    2  A    between atoms: C2_2  and  C4_6 
REMARK    3  A    between atoms: C3_3  and  O1_4 
REMARK    4  A    between atoms: C15_18  and  C16_19 
REMARK    5  A    between atoms: C21_24  and  O3_25 
REMARK    6  A    between atoms: C28_33  and  O4_34 
ROOT
HETATM    1  C4  UNL     1       4.654   5.740  28.666  1.00  0.00     0.190 A 
HETATM    2  O2  UNL     1       3.819   5.129  29.575  1.00  0.00    -0.364 OA
HETATM    3  C5  UNL     1       2.978   6.242  29.529  1.00  0.00     0.092 A 
HETATM    4  C6  UNL     1       2.966   6.859  30.934  1.00  0.00     0.049 C 
HETATM    5  C7  UNL     1       1.600   5.886  29.120  1.00  0.00     0.046 C 
HETATM    6  C8  UNL     1       1.008   6.858  28.118  1.00  0.00    -0.003 C 
HETATM    7  C9  UNL     1       0.786   8.217  28.709  1.00  0.00     0.006 C 
HETATM    8  C10 UNL     1      -0.043   9.018  27.718  1.00  0.00     0.006 C 
HETATM    9  C11 UNL     1       0.867   9.157  26.490  1.00  0.00    -0.001 C 
HETATM   10  C12 UNL     1       0.466  10.227  25.586  1.00  0.00     0.001 C 
HETATM   11  C13 UNL     1      -0.759  10.049  24.760  1.00  0.00     0.006 C 
HETATM   12  C14 UNL     1      -0.670  11.304  23.889  1.00  0.00     0.006 C 
HETATM   13  C15 UNL     1       0.791  11.147  23.434  1.00  0.00    -0.000 C 
HETATM   14  C19 UNL     1       1.536  10.537  24.595  1.00  0.00    -0.010 C 
HETATM   15  C20 UNL     1       2.458  11.569  25.252  1.00  0.00     0.018 C 
HETATM   16  C21 UNL     1       2.379   9.361  24.197  1.00  0.00     0.128 C 
HETATM   17  C22 UNL     1       1.990   8.022  24.644  1.00  0.00     0.042 C 
HETATM   18  C23 UNL     1       1.190   7.840  25.885  1.00  0.00    -0.030 C 
HETATM   19  C24 UNL     1      -0.085   7.075  25.509  1.00  0.00     0.016 C 
HETATM   20  C25 UNL     1       1.881   6.919  26.904  1.00  0.00    -0.030 C 
HETATM   21  C26 UNL     1       1.931   5.545  26.217  1.00  0.00     0.016 C 
HETATM   22  C27 UNL     1       3.258   7.299  27.234  1.00  0.00     0.054 C 
HETATM   23  C28 UNL     1       3.799   6.983  28.568  1.00  0.00     0.119 A 
ENDROOT
BRANCH   1  24
HETATM   24  C2  UNL     1       6.020   5.898  29.218  1.00  0.00    -0.034 C 
HETATM   25  C1  UNL     1       6.949   6.522  28.507  1.00  0.00     0.019 C 
BRANCH  24  26
HETATM   26  C3  UNL     1       6.388   5.381  30.554  1.00  0.00     0.200 C 
BRANCH  26  27
HETATM   27  O1  UNL     1       5.997   6.295  31.557  1.00  0.00    -0.397 OA
ATOM     28  H1  UNL     1       6.370   6.045  32.394  1.00  0.00     0.209 HD
ENDBRANCH  26  27
ENDBRANCH  24  26
ENDBRANCH   1  24
BRANCH  23  29
HETATM   29  O4  UNL     1       4.468   8.048  29.214  1.00  0.00    -0.384 OA
ATOM     30  H4  UNL     1       4.603   8.749  28.588  1.00  0.00     0.210 HD
ENDBRANCH  23  29
BRANCH  16  31
HETATM   31  O3  UNL     1       3.729   9.616  24.456  1.00  0.00    -0.395 OA
ATOM     32  H3  UNL     1       4.269   9.322  23.732  1.00  0.00     0.210 HD
ENDBRANCH  16  31
BRANCH  13  33
HETATM   33  C16 UNL     1       1.280  12.469  22.965  1.00  0.00    -0.018 C 
HETATM   34  C17 UNL     1       0.739  13.492  23.988  1.00  0.00     0.010 C 
HETATM   35  C18 UNL     1       0.738  12.903  21.642  1.00  0.00     0.010 C 
ENDBRANCH  13  33
TORSDOF 6
ENDMDL
MODEL 5
REMARK VINA RESULT: -6.615078003      2.143      7.833
REMARK  6 active torsions:
REMARK  status: ('A' for Active; 'I' for Inactive)
REMARK    1  A    between atoms: C2_2  and  C3_3 
REMARK    2  A    between atoms: C2_2  and  C4_6 
REMARK    3  A    between atoms: C3_3  and  O1_4 
REMARK    4  A    between atoms: C15_18  and  C16_19 
REMARK    5  A    between atoms: C21_24  and  O3_25 
REMARK    6  A    between atoms: C28_33  and  O4_34 
ROOT
HETATM    1  C4  UNL     1       4.237   4.428  26.834  1.00  0.00     0.190 A 
HETATM    2  O2  UNL     1       3.683   3.955  28.002  1.00  0.00    -0.364 OA
HETATM    3  C5  UNL     1       3.283   5.254  28.321  1.00  0.00     0.092 A 
HETATM    4  C6  UNL     1       4.018   5.649  29.609  1.00  0.00     0.049 C 
HETATM    5  C7  UNL     1       1.819   5.356  28.520  1.00  0.00     0.046 C 
HETATM    6  C8  UNL     1       1.215   6.583  27.866  1.00  0.00    -0.003 C 
HETATM    7  C9  UNL     1       1.678   7.855  28.509  1.00  0.00     0.006 C 
HETATM    8  C10 UNL     1       0.821   8.984  27.961  1.00  0.00     0.006 C 
HETATM    9  C11 UNL     1       1.168   9.032  26.467  1.00  0.00    -0.001 C 
HETATM   10  C12 UNL     1       0.799  10.285  25.822  1.00  0.00     0.001 C 
HETATM   11  C13 UNL     1      -0.641  10.572  25.580  1.00  0.00     0.006 C 
HETATM   12  C14 UNL     1      -0.517  11.861  24.764  1.00  0.00     0.006 C 
HETATM   13  C15 UNL     1       0.520  11.366  23.739  1.00  0.00    -0.000 C 
HETATM   14  C19 UNL     1       1.431  10.418  24.479  1.00  0.00    -0.010 C 
HETATM   15  C20 UNL     1       2.808  11.051  24.702  1.00  0.00     0.018 C 
HETATM   16  C21 UNL     1       1.638   9.121  23.754  1.00  0.00     0.128 C 
HETATM   17  C22 UNL     1       1.060   7.895  24.310  1.00  0.00     0.042 C 
HETATM   18  C23 UNL     1       0.800   7.774  25.769  1.00  0.00    -0.030 C 
HETATM   19  C24 UNL     1      -0.689   7.455  25.951  1.00  0.00     0.016 C 
HETATM   20  C25 UNL     1       1.512   6.565  26.398  1.00  0.00    -0.030 C 
HETATM   21  C26 UNL     1       0.858   5.340  25.741  1.00  0.00     0.016 C 
HETATM   22  C27 UNL     1       2.951   6.497  26.128  1.00  0.00     0.054 C 
HETATM   23  C28 UNL     1       3.846   5.861  27.113  1.00  0.00     0.119 A 
ENDROOT
BRANCH   1  24
HETATM   24  C2  UNL     1       5.685   4.121  26.767  1.00  0.00    -0.034 C 
HETATM   25  C1  UNL     1       6.347   4.311  25.634  1.00  0.00     0.019 C 
BRANCH  24  26
HETATM   26  C3  UNL     1       6.430   3.607  27.937  1.00  0.00     0.200 C 
BRANCH  26  27
HETATM   27  O1  UNL     1       7.009   4.676  28.656  1.00  0.00    -0.397 OA
ATOM     28  H1  UNL     1       7.260   4.390  29.526  1.00  0.00     0.209 HD
ENDBRANCH  26  27
ENDBRANCH  24  26
ENDBRANCH   1  24
BRANCH  23  29
HETATM   29  O4  UNL     1       5.010   6.598  27.432  1.00  0.00    -0.384 OA
ATOM     30  H4  UNL     1       4.827   7.148  28.184  1.00  0.00     0.210 HD
ENDBRANCH  23  29
BRANCH  16  31
HETATM   31  O3  UNL     1       2.987   8.950  23.429  1.00  0.00    -0.395 OA
ATOM     32  H3  UNL     1       3.188   9.376  22.604  1.00  0.00     0.210 HD
ENDBRANCH  16  31
BRANCH  13  33
HETATM   33  C16 UNL     1       1.169  12.551  23.122  1.00  0.00    -0.018 C 
HETATM   34  C17 UNL     1       0.906  13.717  24.099  1.00  0.00     0.010 C 
HETATM   35  C18 UNL     1       0.579  12.981  21.819  1.00  0.00     0.010 C 
ENDBRANCH  13  33
TORSDOF 6
ENDMDL
