MODEL 1
REMARK VINA RESULT: -7.835278574      0.000      0.000
REMARK  6 active torsions:
REMARK  status: ('A' for Active; 'I' for Inactive)
REMARK    1  A    between atoms: C2_2  and  C4_4 
REMARK    2  A    between atoms: C12_12  and  O1_13 
REMARK    3  A    between atoms: C13_15  and  O2_16 
REMARK    4  A    between atoms: C17_21  and  O3_22 
REMARK    5  A    between atoms: C18_24  and  C19_25 
REMARK    6  A    between atoms: C19_25  and  C20_26 
ROOT
HETATM    1  C4  UNL     1       1.412  11.632  24.546  1.00  0.00    -0.011 C 
HETATM    2  C5  UNL     1       2.658  10.828  24.720  1.00  0.00     0.006 C 
HETATM    3  C6  UNL     1       2.534   9.431  24.159  1.00  0.00     0.010 C 
HETATM    4  C7  UNL     1       1.466   8.588  24.754  1.00  0.00    -0.034 C 
HETATM    5  C8  UNL     1       1.083   7.574  23.651  1.00  0.00     0.016 C 
HETATM    6  C9  UNL     1       0.225   9.458  24.897  1.00  0.00    -0.003 C 
HETATM    7  C10 UNL     1       0.330  10.724  24.048  1.00  0.00     0.010 C 
HETATM    8  C11 UNL     1      -0.049   9.801  26.339  1.00  0.00     0.040 C 
HETATM    9  C12 UNL     1      -0.409   8.469  26.983  1.00  0.00     0.153 C 
HETATM   10  C13 UNL     1       0.635   7.428  26.795  1.00  0.00     0.088 C 
HETATM   11  C14 UNL     1       0.986   6.849  28.127  1.00  0.00     0.046 C 
HETATM   12  C15 UNL     1       1.714   7.707  29.077  1.00  0.00    -0.001 C 
HETATM   13  C16 UNL     1       1.289   7.305  30.498  1.00  0.00     0.037 C 
HETATM   14  C17 UNL     1       2.415   6.438  31.031  1.00  0.00     0.123 C 
HETATM   15  C18 UNL     1       3.343   6.226  29.898  1.00  0.00     0.027 C 
HETATM   16  C23 UNL     1       3.202   7.435  29.048  1.00  0.00    -0.034 C 
HETATM   17  C24 UNL     1       3.998   8.571  29.635  1.00  0.00     0.016 C 
HETATM   18  C25 UNL     1       3.602   7.249  27.620  1.00  0.00     0.010 C 
HETATM   19  C26 UNL     1       2.978   8.366  26.769  1.00  0.00     0.009 C 
HETATM   20  C27 UNL     1       1.817   7.812  25.959  1.00  0.00     0.031 C 
ENDROOT
BRANCH  15  21
HETATM   21  C19 UNL     1       4.746   5.874  30.269  1.00  0.00     0.068 C 
BRANCH  21  22
HETATM   22  C20 UNL     1       5.259   4.826  29.304  1.00  0.00     0.260 C 
HETATM   23  O4  UNL     1       6.230   5.333  28.448  1.00  0.00    -0.359 OA
HETATM   24  C21 UNL     1       6.310   4.319  27.471  1.00  0.00     0.197 C 
HETATM   25  C22 UNL     1       4.992   3.612  27.541  1.00  0.00     0.197 C 
HETATM   26  O5  UNL     1       4.252   4.457  28.389  1.00  0.00    -0.359 OA
ENDBRANCH  21  22
ENDBRANCH  15  21
BRANCH  14  27
HETATM   27  O3  UNL     1       2.931   7.052  32.134  1.00  0.00    -0.395 OA
ATOM     28  H3  UNL     1       3.878   7.056  32.051  1.00  0.00     0.210 HD
ENDBRANCH  14  27
BRANCH  10  29
HETATM   29  O2  UNL     1       0.011   6.348  26.107  1.00  0.00    -0.387 OA
ATOM     30  H2  UNL     1       0.695   5.914  25.611  1.00  0.00     0.210 HD
ENDBRANCH  10  29
BRANCH   9  31
HETATM   31  O1  UNL     1      -0.794   8.644  28.329  1.00  0.00    -0.393 OA
ATOM     32  H1  UNL     1      -1.311   7.908  28.634  1.00  0.00     0.210 HD
ENDBRANCH   9  31
BRANCH   1  33
HETATM   33  C2  UNL     1       1.571  12.787  23.603  1.00  0.00    -0.019 C 
HETATM   34  C1  UNL     1       0.724  12.628  22.356  1.00  0.00     0.010 C 
HETATM   35  C3  UNL     1       1.122  14.098  24.244  1.00  0.00     0.010 C 
ENDBRANCH   1  33
TORSDOF 6
ENDMDL
MODEL 2
REMARK VINA RESULT: -7.731982742      1.270      1.745
REMARK  6 active torsions:
REMARK  status: ('A' for Active; 'I' for Inactive)
REMARK    1  A    between atoms: C2_2  and  C4_4 
REMARK    2  A    between atoms: C12_12  and  O1_13 
REMARK    3  A    between atoms: C13_15  and  O2_16 
REMARK    4  A    between atoms: C17_21  and  O3_22 
REMARK    5  A    between atoms: C18_24  and  C19_25 
REMARK    6  A    between atoms: C19_25  and  C20_26 
ROOT
HETATM    1  C4  UNL     1       1.416  11.629  24.599  1.00  0.00    -0.011 C 
HETATM    2  C5  UNL     1       2.630  10.768  24.722  1.00  0.00     0.006 C 
HETATM    3  C6  UNL     1       2.417   9.378  24.171  1.00  0.00     0.010 C 
HETATM    4  C7  UNL     1       1.338   8.586  24.813  1.00  0.00    -0.034 C 
HETATM    5  C8  UNL     1       0.860   7.590  23.730  1.00  0.00     0.016 C 
HETATM    6  C9  UNL     1       0.145   9.512  25.006  1.00  0.00    -0.003 C 
HETATM    7  C10 UNL     1       0.273  10.772  24.150  1.00  0.00     0.010 C 
HETATM    8  C11 UNL     1      -0.051   9.869  26.458  1.00  0.00     0.040 C 
HETATM    9  C12 UNL     1      -0.444   8.555  27.120  1.00  0.00     0.153 C 
HETATM   10  C13 UNL     1       0.541   7.466  26.891  1.00  0.00     0.088 C 
HETATM   11  C14 UNL     1       0.922   6.873  28.208  1.00  0.00     0.046 C 
HETATM   12  C15 UNL     1       1.729   7.697  29.124  1.00  0.00    -0.001 C 
HETATM   13  C16 UNL     1       1.346   7.316  30.562  1.00  0.00     0.037 C 
HETATM   14  C17 UNL     1       2.453   6.398  31.049  1.00  0.00     0.123 C 
HETATM   15  C18 UNL     1       3.321   6.142  29.878  1.00  0.00     0.027 C 
HETATM   16  C23 UNL     1       3.200   7.356  29.032  1.00  0.00    -0.034 C 
HETATM   17  C24 UNL     1       4.073   8.454  29.582  1.00  0.00     0.016 C 
HETATM   18  C25 UNL     1       3.529   7.150  27.588  1.00  0.00     0.010 C 
HETATM   19  C26 UNL     1       2.922   8.295  26.762  1.00  0.00     0.009 C 
HETATM   20  C27 UNL     1       1.703   7.795  26.004  1.00  0.00     0.031 C 
ENDROOT
BRANCH  15  21
HETATM   21  C19 UNL     1       4.721   5.725  30.190  1.00  0.00     0.068 C 
BRANCH  21  22
HETATM   22  C20 UNL     1       4.776   5.223  31.617  1.00  0.00     0.260 C 
HETATM   23  O4  UNL     1       5.977   5.543  32.239  1.00  0.00    -0.359 OA
HETATM   24  C21 UNL     1       5.934   4.724  33.387  1.00  0.00     0.197 C 
HETATM   25  C22 UNL     1       5.003   3.607  33.028  1.00  0.00     0.197 C 
HETATM   26  O5  UNL     1       4.817   3.814  31.649  1.00  0.00    -0.359 OA
ENDBRANCH  21  22
ENDBRANCH  15  21
BRANCH  14  27
HETATM   27  O3  UNL     1       3.044   6.988  32.128  1.00  0.00    -0.395 OA
ATOM     28  H3  UNL     1       3.537   6.322  32.592  1.00  0.00     0.210 HD
ENDBRANCH  14  27
BRANCH  10  29
HETATM   29  O2  UNL     1      -0.161   6.417  26.233  1.00  0.00    -0.387 OA
ATOM     30  H2  UNL     1       0.306   5.614  26.432  1.00  0.00     0.210 HD
ENDBRANCH  10  29
BRANCH   9  31
HETATM   31  O1  UNL     1      -0.762   8.748  28.481  1.00  0.00    -0.393 OA
ATOM     32  H1  UNL     1      -1.177   7.976  28.847  1.00  0.00     0.210 HD
ENDBRANCH   9  31
BRANCH   1  33
HETATM   33  C2  UNL     1       1.588  12.775  23.647  1.00  0.00    -0.019 C 
HETATM   34  C1  UNL     1       0.753  12.607  22.394  1.00  0.00     0.010 C 
HETATM   35  C3  UNL     1       1.137  14.092  24.272  1.00  0.00     0.010 C 
ENDBRANCH   1  33
TORSDOF 6
ENDMDL
MODEL 3
REMARK VINA RESULT: -7.421849091      2.142      7.787
REMARK  6 active torsions:
REMARK  status: ('A' for Active; 'I' for Inactive)
REMARK    1  A    between atoms: C2_2  and  C4_4 
REMARK    2  A    between atoms: C12_12  and  O1_13 
REMARK    3  A    between atoms: C13_15  and  O2_16 
REMARK    4  A    between atoms: C17_21  and  O3_22 
REMARK    5  A    between atoms: C18_24  and  C19_25 
REMARK    6  A    between atoms: C19_25  and  C20_26 
ROOT
HETATM    1  C4  UNL     1       6.945   5.135  29.716  1.00  0.00    -0.011 C 
HETATM    2  C5  UNL     1       6.616   6.559  29.406  1.00  0.00     0.006 C 
HETATM    3  C6  UNL     1       5.395   7.051  30.147  1.00  0.00     0.010 C 
HETATM    4  C7  UNL     1       4.135   6.315  29.876  1.00  0.00    -0.034 C 
HETATM    5  C8  UNL     1       3.274   6.495  31.148  1.00  0.00     0.016 C 
HETATM    6  C9  UNL     1       4.466   4.829  29.869  1.00  0.00    -0.003 C 
HETATM    7  C10 UNL     1       5.822   4.556  30.519  1.00  0.00     0.010 C 
HETATM    8  C11 UNL     1       4.417   4.256  28.475  1.00  0.00     0.040 C 
HETATM    9  C12 UNL     1       2.949   4.348  28.080  1.00  0.00     0.153 C 
HETATM   10  C13 UNL     1       2.398   5.725  28.190  1.00  0.00     0.088 C 
HETATM   11  C14 UNL     1       1.746   6.089  26.897  1.00  0.00     0.046 C 
HETATM   12  C15 UNL     1       2.614   6.303  25.727  1.00  0.00    -0.001 C 
HETATM   13  C16 UNL     1       1.832   5.879  24.475  1.00  0.00     0.037 C 
HETATM   14  C17 UNL     1       1.337   7.169  23.846  1.00  0.00     0.123 C 
HETATM   15  C18 UNL     1       1.681   8.249  24.797  1.00  0.00     0.027 C 
HETATM   16  C23 UNL     1       2.897   7.773  25.503  1.00  0.00    -0.034 C 
HETATM   17  C24 UNL     1       4.111   7.993  24.639  1.00  0.00     0.016 C 
HETATM   18  C25 UNL     1       3.132   8.399  26.840  1.00  0.00     0.010 C 
HETATM   19  C26 UNL     1       4.093   7.516  27.651  1.00  0.00     0.009 C 
HETATM   20  C27 UNL     1       3.324   6.771  28.730  1.00  0.00     0.031 C 
ENDROOT
BRANCH  15  21
HETATM   21  C19 UNL     1       1.786   9.619  24.209  1.00  0.00     0.068 C 
BRANCH  21  22
HETATM   22  C20 UNL     1       0.680  10.481  24.780  1.00  0.00     0.260 C 
HETATM   23  O4  UNL     1       0.352  10.119  26.081  1.00  0.00    -0.359 OA
HETATM   24  C21 UNL     1      -0.866  10.804  26.273  1.00  0.00     0.197 C 
HETATM   25  C22 UNL     1      -1.405  11.023  24.893  1.00  0.00     0.197 C 
HETATM   26  O5  UNL     1      -0.537  10.237  24.112  1.00  0.00    -0.359 OA
ENDBRANCH  21  22
ENDBRANCH  15  21
BRANCH  14  27
HETATM   27  O3  UNL     1       1.878   7.262  22.597  1.00  0.00    -0.395 OA
ATOM     28  H3  UNL     1       1.172   7.423  21.983  1.00  0.00     0.210 HD
ENDBRANCH  14  27
BRANCH  10  29
HETATM   29  O2  UNL     1       1.316   5.655  29.112  1.00  0.00    -0.387 OA
ATOM     30  H2  UNL     1       0.540   5.934  28.640  1.00  0.00     0.210 HD
ENDBRANCH  10  29
BRANCH   9  31
HETATM   31  O1  UNL     1       2.724   3.752  26.822  1.00  0.00    -0.393 OA
ATOM     32  H1  UNL     1       2.911   4.360  26.117  1.00  0.00     0.210 HD
ENDBRANCH   9  31
BRANCH   1  33
HETATM   33  C2  UNL     1       8.235   4.967  30.462  1.00  0.00    -0.019 C 
HETATM   34  C1  UNL     1       8.012   4.707  31.938  1.00  0.00     0.010 C 
HETATM   35  C3  UNL     1       9.026   3.768  29.945  1.00  0.00     0.010 C 
ENDBRANCH   1  33
TORSDOF 6
ENDMDL
MODEL 4
REMARK VINA RESULT: -7.340892557      3.886      8.226
REMARK  6 active torsions:
REMARK  status: ('A' for Active; 'I' for Inactive)
REMARK    1  A    between atoms: C2_2  and  C4_4 
REMARK    2  A    between atoms: C12_12  and  O1_13 
REMARK    3  A    between atoms: C13_15  and  O2_16 
REMARK    4  A    between atoms: C17_21  and  O3_22 
REMARK    5  A    between atoms: C18_24  and  C19_25 
REMARK    6  A    between atoms: C19_25  and  C20_26 
ROOT
HETATM    1  C4  UNL     1       5.119   5.015  26.071  1.00  0.00    -0.011 C 
HETATM    2  C5  UNL     1       3.734   5.556  25.932  1.00  0.00     0.006 C 
HETATM    3  C6  UNL     1       3.243   5.544  24.504  1.00  0.00     0.010 C 
HETATM    4  C7  UNL     1       4.046   6.335  23.537  1.00  0.00    -0.034 C 
HETATM    5  C8  UNL     1       3.815   5.662  22.165  1.00  0.00     0.016 C 
HETATM    6  C9  UNL     1       5.514   6.064  23.834  1.00  0.00    -0.003 C 
HETATM    7  C10 UNL     1       5.687   4.816  24.700  1.00  0.00     0.010 C 
HETATM    8  C11 UNL     1       6.181   7.256  24.473  1.00  0.00     0.040 C 
HETATM    9  C12 UNL     1       6.175   8.320  23.384  1.00  0.00     0.153 C 
HETATM   10  C13 UNL     1       4.818   8.600  22.846  1.00  0.00     0.088 C 
HETATM   11  C14 UNL     1       4.569  10.072  22.907  1.00  0.00     0.046 C 
HETATM   12  C15 UNL     1       4.399  10.684  24.235  1.00  0.00    -0.001 C 
HETATM   13  C16 UNL     1       4.938  12.121  24.165  1.00  0.00     0.037 C 
HETATM   14  C17 UNL     1       3.715  13.011  24.037  1.00  0.00     0.123 C 
HETATM   15  C18 UNL     1       2.560  12.101  23.870  1.00  0.00     0.027 C 
HETATM   16  C23 UNL     1       2.937  10.857  24.588  1.00  0.00    -0.034 C 
HETATM   17  C24 UNL     1       2.728  11.036  26.069  1.00  0.00     0.016 C 
HETATM   18  C25 UNL     1       2.213   9.629  24.139  1.00  0.00     0.010 C 
HETATM   19  C26 UNL     1       3.000   8.386  24.584  1.00  0.00     0.009 C 
HETATM   20  C27 UNL     1       3.701   7.762  23.388  1.00  0.00     0.031 C 
ENDROOT
BRANCH  15  21
HETATM   21  C19 UNL     1       1.230  12.669  24.245  1.00  0.00     0.068 C 
BRANCH  21  22
HETATM   22  C20 UNL     1       0.202  12.220  23.228  1.00  0.00     0.260 C 
HETATM   23  O4  UNL     1       0.317  12.912  22.028  1.00  0.00    -0.359 OA
HETATM   24  C21 UNL     1      -0.894  12.579  21.386  1.00  0.00     0.197 C 
HETATM   25  C22 UNL     1      -1.827  12.204  22.496  1.00  0.00     0.197 C 
HETATM   26  O5  UNL     1      -1.096  12.590  23.635  1.00  0.00    -0.359 OA
ENDBRANCH  21  22
ENDBRANCH  15  21
BRANCH  14  27
HETATM   27  O3  UNL     1       3.684  13.841  25.118  1.00  0.00    -0.395 OA
ATOM     28  H3  UNL     1       2.774  14.024  25.321  1.00  0.00     0.210 HD
ENDBRANCH  14  27
BRANCH  10  29
HETATM   29  O2  UNL     1       4.869   8.319  21.451  1.00  0.00    -0.387 OA
ATOM     30  H2  UNL     1       5.252   9.083  21.036  1.00  0.00     0.210 HD
ENDBRANCH  10  29
BRANCH   9  31
HETATM   31  O1  UNL     1       6.864   9.478  23.803  1.00  0.00    -0.393 OA
ATOM     32  H1  UNL     1       7.171   9.980  23.058  1.00  0.00     0.210 HD
ENDBRANCH   9  31
BRANCH   1  33
HETATM   33  C2  UNL     1       5.184   3.725  26.833  1.00  0.00    -0.019 C 
HETATM   34  C1  UNL     1       6.455   3.608  27.650  1.00  0.00     0.010 C 
HETATM   35  C3  UNL     1       4.037   3.608  27.833  1.00  0.00     0.010 C 
ENDBRANCH   1  33
TORSDOF 6
ENDMDL
MODEL 5
REMARK VINA RESULT: -7.280876508      3.504      8.176
REMARK  6 active torsions:
REMARK  status: ('A' for Active; 'I' for Inactive)
REMARK    1  A    between atoms: C2_2  and  C4_4 
REMARK    2  A    between atoms: C12_12  and  O1_13 
REMARK    3  A    between atoms: C13_15  and  O2_16 
REMARK    4  A    between atoms: C17_21  and  O3_22 
REMARK    5  A    between atoms: C18_24  and  C19_25 
REMARK    6  A    between atoms: C19_25  and  C20_26 
ROOT
HETATM    1  C4  UNL     1       5.606   4.658  27.340  1.00  0.00    -0.011 C 
HETATM    2  C5  UNL     1       4.192   5.139  27.357  1.00  0.00     0.006 C 
HETATM    3  C6  UNL     1       3.431   4.758  26.109  1.00  0.00     0.010 C 
HETATM    4  C7  UNL     1       3.982   5.278  24.832  1.00  0.00    -0.034 C 
HETATM    5  C8  UNL     1       3.525   4.274  23.749  1.00  0.00     0.016 C 
HETATM    6  C9  UNL     1       5.493   5.099  24.880  1.00  0.00    -0.003 C 
HETATM    7  C10 UNL     1       5.904   4.117  25.976  1.00  0.00     0.010 C 
HETATM    8  C11 UNL     1       6.203   6.418  25.050  1.00  0.00     0.040 C 
HETATM    9  C12 UNL     1       5.922   7.167  23.754  1.00  0.00     0.153 C 
HETATM   10  C13 UNL     1       4.472   7.294  23.453  1.00  0.00     0.088 C 
HETATM   11  C14 UNL     1       4.156   8.730  23.193  1.00  0.00     0.046 C 
HETATM   12  C15 UNL     1       4.215   9.662  24.332  1.00  0.00    -0.001 C 
HETATM   13  C16 UNL     1       4.647  11.036  23.795  1.00  0.00     0.037 C 
HETATM   14  C17 UNL     1       3.373  11.857  23.702  1.00  0.00     0.123 C 
HETATM   15  C18 UNL     1       2.262  10.929  24.008  1.00  0.00     0.027 C 
HETATM   16  C23 UNL     1       2.844   9.913  24.921  1.00  0.00    -0.034 C 
HETATM   17  C24 UNL     1       2.920  10.464  26.321  1.00  0.00     0.016 C 
HETATM   18  C25 UNL     1       2.118   8.607  24.952  1.00  0.00     0.010 C 
HETATM   19  C26 UNL     1       3.047   7.524  25.523  1.00  0.00     0.009 C 
HETATM   20  C27 UNL     1       3.534   6.617  24.404  1.00  0.00     0.031 C 
ENDROOT
BRANCH  15  21
HETATM   21  C19 UNL     1       1.002  11.567  24.493  1.00  0.00     0.068 C 
BRANCH  21  22
HETATM   22  C20 UNL     1       0.001  11.597  23.358  1.00  0.00     0.260 C 
HETATM   23  O4  UNL     1       0.368  12.492  22.359  1.00  0.00    -0.359 OA
HETATM   24  C21 UNL     1      -0.821  12.590  21.608  1.00  0.00     0.197 C 
HETATM   25  C22 UNL     1      -1.910  12.201  22.559  1.00  0.00     0.197 C 
HETATM   26  O5  UNL     1      -1.222  12.153  23.786  1.00  0.00    -0.359 OA
ENDBRANCH  21  22
ENDBRANCH  15  21
BRANCH  14  27
HETATM   27  O3  UNL     1       3.509  12.937  24.523  1.00  0.00    -0.395 OA
ATOM     28  H3  UNL     1       3.322  13.717  24.014  1.00  0.00     0.210 HD
ENDBRANCH  14  27
BRANCH  10  29
HETATM   29  O2  UNL     1       4.264   6.664  22.193  1.00  0.00    -0.387 OA
ATOM     30  H2  UNL     1       3.636   5.967  22.340  1.00  0.00     0.210 HD
ENDBRANCH  10  29
BRANCH   9  31
HETATM   31  O1  UNL     1       6.613   8.397  23.719  1.00  0.00    -0.393 OA
ATOM     32  H1  UNL     1       6.008   9.129  23.741  1.00  0.00     0.210 HD
ENDBRANCH   9  31
BRANCH   1  33
HETATM   33  C2  UNL     1       5.894   3.608  28.371  1.00  0.00    -0.019 C 
HETATM   34  C1  UNL     1       7.226   3.830  29.058  1.00  0.00     0.010 C 
HETATM   35  C3  UNL     1       4.848   3.614  29.483  1.00  0.00     0.010 C 
ENDBRANCH   1  33
TORSDOF 6
ENDMDL
