MODEL 1
REMARK VINA RESULT: -7.402032707      0.000      0.000
REMARK  6 active torsions:
REMARK  status: ('A' for Active; 'I' for Inactive)
REMARK    1  A    between atoms: C2_2  and  C3_3 
REMARK    2  A    between atoms: C10_10  and  O1_11 
REMARK    3  A    between atoms: C13_15  and  C14_16 
REMARK    4  A    between atoms: C14_16  and  C16_18 
REMARK    5  A    between atoms: C20_23  and  O3_24 
REMARK    6  A    between atoms: C21_26  and  O4_27 
ROOT
HETATM    1  C14 UNL     1       0.697   8.456  27.401  1.00  0.00     0.018 C 
HETATM    2  C15 UNL     1      -0.322   7.450  26.989  1.00  0.00     0.013 C 
ENDROOT
BRANCH   1   3
HETATM    3  C13 UNL     1       1.915   7.929  28.009  1.00  0.00     0.003 C 
HETATM    4  C12 UNL     1       1.827   7.844  29.530  1.00  0.00     0.009 C 
HETATM    5  C11 UNL     1       3.190   7.282  29.842  1.00  0.00     0.039 C 
HETATM    6  C10 UNL     1       3.484   6.314  28.699  1.00  0.00     0.066 C 
HETATM    7  C9  UNL     1       4.824   6.728  28.155  1.00  0.00     0.039 C 
HETATM    8  C27 UNL     1       2.346   6.522  27.679  1.00  0.00    -0.004 C 
HETATM    9  C8  UNL     1       5.277   5.981  26.957  1.00  0.00     0.013 C 
HETATM   10  C6  UNL     1       4.124   5.374  26.268  1.00  0.00    -0.033 C 
HETATM   11  C3  UNL     1       3.952   5.610  24.791  1.00  0.00     0.016 C 
HETATM   12  C5  UNL     1       2.994   6.405  26.372  1.00  0.00     0.006 C 
HETATM   13  C7  UNL     1       3.835   3.938  26.498  1.00  0.00     0.016 C 
HETATM   14  C4  UNL     1       2.461   5.725  25.195  1.00  0.00     0.015 C 
HETATM   15  C28 UNL     1       1.280   5.500  27.963  1.00  0.00     0.019 C 
BRANCH   6  16
HETATM   16  O1  UNL     1       3.458   5.068  29.284  1.00  0.00    -0.389 OA
ATOM     17  H1  UNL     1       2.636   4.841  29.702  1.00  0.00     0.210 HD
ENDBRANCH   6  16
BRANCH  11  18
HETATM   18  C2  UNL     1       4.543   6.776  24.168  1.00  0.00    -0.031 C 
HETATM   19  C1  UNL     1       4.037   7.210  23.023  1.00  0.00     0.007 C 
ENDBRANCH  11  18
ENDBRANCH   1   3
BRANCH   1  20
HETATM   20  C16 UNL     1       0.813   9.537  26.351  1.00  0.00     0.154 C 
HETATM   21  O2  UNL     1       1.486   9.076  25.287  1.00  0.00    -0.376 OA
HETATM   22  C17 UNL     1       1.673   9.950  24.224  1.00  0.00     0.136 C 
HETATM   23  C18 UNL     1       0.447  10.602  23.730  1.00  0.00     0.046 C 
HETATM   24  C24 UNL     1       2.865  10.850  24.433  1.00  0.00    -0.021 C 
HETATM   25  C19 UNL     1      -0.757  10.490  24.626  1.00  0.00     0.044 C 
HETATM   26  C21 UNL     1       0.637  12.045  23.270  1.00  0.00     0.124 C 
HETATM   27  C20 UNL     1      -0.476  10.242  26.060  1.00  0.00     0.148 C 
HETATM   28  C22 UNL     1       1.418  12.887  24.190  1.00  0.00     0.033 C 
HETATM   29  C23 UNL     1       2.559  12.231  24.871  1.00  0.00     0.014 C 
HETATM   30  C25 UNL     1       3.727  10.954  23.169  1.00  0.00     0.017 C 
HETATM   31  C26 UNL     1       3.750  10.207  25.499  1.00  0.00     0.017 C 
BRANCH  27  32
HETATM   32  O3  UNL     1      -0.598  11.476  26.721  1.00  0.00    -0.393 OA
ATOM     33  H3  UNL     1      -1.492  11.688  26.960  1.00  0.00     0.210 HD
ENDBRANCH  27  32
BRANCH  26  34
HETATM   34  O4  UNL     1       1.077  12.102  21.937  1.00  0.00    -0.395 OA
ATOM     35  H4  UNL     1       0.482  12.611  21.399  1.00  0.00     0.210 HD
ENDBRANCH  26  34
ENDBRANCH   1  20
TORSDOF 6
ENDMDL
MODEL 2
REMARK VINA RESULT: -7.268803046      2.624      4.727
REMARK  6 active torsions:
REMARK  status: ('A' for Active; 'I' for Inactive)
REMARK    1  A    between atoms: C2_2  and  C3_3 
REMARK    2  A    between atoms: C10_10  and  O1_11 
REMARK    3  A    between atoms: C13_15  and  C14_16 
REMARK    4  A    between atoms: C14_16  and  C16_18 
REMARK    5  A    between atoms: C20_23  and  O3_24 
REMARK    6  A    between atoms: C21_26  and  O4_27 
ROOT
HETATM    1  C14 UNL     1       2.525   8.773  23.909  1.00  0.00     0.018 C 
HETATM    2  C15 UNL     1       2.132   7.545  23.162  1.00  0.00     0.013 C 
ENDROOT
BRANCH   1   3
HETATM    3  C13 UNL     1       2.013   8.892  25.270  1.00  0.00     0.003 C 
HETATM    4  C12 UNL     1       0.743   9.734  25.352  1.00  0.00     0.009 C 
HETATM    5  C11 UNL     1       0.476   9.666  26.833  1.00  0.00     0.039 C 
HETATM    6  C10 UNL     1       0.892   8.256  27.241  1.00  0.00     0.066 C 
HETATM    7  C9  UNL     1       1.854   8.433  28.383  1.00  0.00     0.039 C 
HETATM    8  C27 UNL     1       1.565   7.647  25.994  1.00  0.00    -0.004 C 
HETATM    9  C8  UNL     1       2.474   7.183  28.886  1.00  0.00     0.013 C 
HETATM   10  C6  UNL     1       2.417   6.134  27.852  1.00  0.00    -0.033 C 
HETATM   11  C3  UNL     1       3.681   5.402  27.488  1.00  0.00     0.016 C 
HETATM   12  C5  UNL     1       2.674   6.852  26.523  1.00  0.00     0.006 C 
HETATM   13  C7  UNL     1       1.351   5.107  27.941  1.00  0.00     0.016 C 
HETATM   14  C4  UNL     1       3.098   5.535  26.059  1.00  0.00     0.015 C 
HETATM   15  C28 UNL     1       0.521   6.873  25.237  1.00  0.00     0.019 C 
BRANCH   6  16
HETATM   16  O1  UNL     1      -0.289   7.629  27.572  1.00  0.00    -0.389 OA
ATOM     17  H1  UNL     1      -0.640   7.059  26.898  1.00  0.00     0.210 HD
ENDBRANCH   6  16
BRANCH  11  18
HETATM   18  C2  UNL     1       4.971   6.019  27.719  1.00  0.00    -0.031 C 
HETATM   19  C1  UNL     1       6.053   5.433  27.229  1.00  0.00     0.007 C 
ENDBRANCH  11  18
ENDBRANCH   1   3
BRANCH   1  20
HETATM   20  C16 UNL     1       3.977   9.098  23.643  1.00  0.00     0.154 C 
HETATM   21  O2  UNL     1       4.533   9.653  24.730  1.00  0.00    -0.376 OA
HETATM   22  C17 UNL     1       5.873  10.006  24.650  1.00  0.00     0.136 C 
HETATM   23  C18 UNL     1       6.774   8.936  24.186  1.00  0.00     0.046 C 
HETATM   24  C24 UNL     1       6.067  11.360  24.012  1.00  0.00    -0.021 C 
HETATM   25  C19 UNL     1       6.099   7.742  23.565  1.00  0.00     0.044 C 
HETATM   26  C21 UNL     1       7.927   9.413  23.308  1.00  0.00     0.124 C 
HETATM   27  C20 UNL     1       4.745   7.979  23.010  1.00  0.00     0.148 C 
HETATM   28  C22 UNL     1       7.544  10.358  22.247  1.00  0.00     0.033 C 
HETATM   29  C23 UNL     1       6.496  11.347  22.595  1.00  0.00     0.014 C 
HETATM   30  C25 UNL     1       7.077  12.213  24.787  1.00  0.00     0.017 C 
HETATM   31  C26 UNL     1       4.734  12.103  24.090  1.00  0.00     0.017 C 
BRANCH  27  32
HETATM   32  O3  UNL     1       4.889   8.118  21.620  1.00  0.00    -0.393 OA
ATOM     33  H3  UNL     1       5.396   7.420  21.222  1.00  0.00     0.210 HD
ENDBRANCH  27  32
BRANCH  26  34
HETATM   34  O4  UNL     1       9.015   9.844  24.086  1.00  0.00    -0.395 OA
ATOM     35  H4  UNL     1       9.664  10.290  23.554  1.00  0.00     0.210 HD
ENDBRANCH  26  34
ENDBRANCH   1  20
TORSDOF 6
ENDMDL
MODEL 3
REMARK VINA RESULT: -7.208869661      3.454      6.080
REMARK  6 active torsions:
REMARK  status: ('A' for Active; 'I' for Inactive)
REMARK    1  A    between atoms: C2_2  and  C3_3 
REMARK    2  A    between atoms: C10_10  and  O1_11 
REMARK    3  A    between atoms: C13_15  and  C14_16 
REMARK    4  A    between atoms: C14_16  and  C16_18 
REMARK    5  A    between atoms: C20_23  and  O3_24 
REMARK    6  A    between atoms: C21_26  and  O4_27 
ROOT
HETATM    1  C14 UNL     1       4.345  10.851  23.892  1.00  0.00     0.018 C 
HETATM    2  C15 UNL     1       5.061   9.545  23.937  1.00  0.00     0.013 C 
ENDROOT
BRANCH   1   3
HETATM    3  C13 UNL     1       2.968  10.849  24.377  1.00  0.00     0.003 C 
HETATM    4  C12 UNL     1       1.986  11.437  23.368  1.00  0.00     0.009 C 
HETATM    5  C11 UNL     1       0.700  11.296  24.140  1.00  0.00     0.039 C 
HETATM    6  C10 UNL     1       0.843   9.982  24.901  1.00  0.00     0.066 C 
HETATM    7  C9  UNL     1       0.563  10.317  26.341  1.00  0.00     0.039 C 
HETATM    8  C27 UNL     1       2.300   9.531  24.675  1.00  0.00    -0.004 C 
HETATM    9  C8  UNL     1       0.743   9.197  27.296  1.00  0.00     0.013 C 
HETATM   10  C6  UNL     1       1.633   8.173  26.720  1.00  0.00    -0.033 C 
HETATM   11  C3  UNL     1       2.812   7.698  27.527  1.00  0.00     0.016 C 
HETATM   12  C5  UNL     1       2.710   8.949  25.954  1.00  0.00     0.006 C 
HETATM   13  C7  UNL     1       1.025   6.964  26.115  1.00  0.00     0.016 C 
HETATM   14  C4  UNL     1       3.509   7.742  26.144  1.00  0.00     0.015 C 
HETATM   15  C28 UNL     1       2.316   8.588  23.504  1.00  0.00     0.019 C 
BRANCH   6  16
HETATM   16  O1  UNL     1      -0.075   9.140  24.315  1.00  0.00    -0.389 OA
ATOM     17  H1  UNL     1      -0.563   9.521  23.596  1.00  0.00     0.210 HD
ENDBRANCH   6  16
BRANCH  11  18
HETATM   18  C2  UNL     1       3.374   8.541  28.560  1.00  0.00    -0.031 C 
HETATM   19  C1  UNL     1       3.301   8.138  29.820  1.00  0.00     0.007 C 
ENDBRANCH  11  18
ENDBRANCH   1   3
BRANCH   1  20
HETATM   20  C16 UNL     1       5.271  11.965  24.323  1.00  0.00     0.154 C 
HETATM   21  O2  UNL     1       4.985  12.344  25.577  1.00  0.00    -0.376 OA
HETATM   22  C17 UNL     1       5.755  13.359  26.127  1.00  0.00     0.136 C 
HETATM   23  C18 UNL     1       7.213  13.152  26.044  1.00  0.00     0.046 C 
HETATM   24  C24 UNL     1       5.257  14.727  25.732  1.00  0.00    -0.021 C 
HETATM   25  C19 UNL     1       7.662  12.060  25.111  1.00  0.00     0.044 C 
HETATM   26  C21 UNL     1       8.022  14.424  25.807  1.00  0.00     0.124 C 
HETATM   27  C20 UNL     1       6.716  11.703  24.028  1.00  0.00     0.148 C 
HETATM   28  C22 UNL     1       7.495  15.302  24.750  1.00  0.00     0.033 C 
HETATM   29  C23 UNL     1       6.018  15.404  24.658  1.00  0.00     0.014 C 
HETATM   30  C25 UNL     1       5.211  15.683  26.930  1.00  0.00     0.017 C 
HETATM   31  C26 UNL     1       3.813  14.574  25.256  1.00  0.00     0.017 C 
BRANCH  27  32
HETATM   32  O3  UNL     1       7.170  12.338  22.860  1.00  0.00    -0.393 OA
ATOM     33  H3  UNL     1       7.025  13.277  22.861  1.00  0.00     0.210 HD
ENDBRANCH  27  32
BRANCH  26  34
HETATM   34  O4  UNL     1       8.293  15.089  27.014  1.00  0.00    -0.395 OA
ATOM     35  H4  UNL     1       8.225  16.031  26.912  1.00  0.00     0.210 HD
ENDBRANCH  26  34
ENDBRANCH   1  20
TORSDOF 6
ENDMDL
MODEL 4
REMARK VINA RESULT: -6.883260986      2.198      6.653
REMARK  6 active torsions:
REMARK  status: ('A' for Active; 'I' for Inactive)
REMARK    1  A    between atoms: C2_2  and  C3_3 
REMARK    2  A    between atoms: C10_10  and  O1_11 
REMARK    3  A    between atoms: C13_15  and  C14_16 
REMARK    4  A    between atoms: C14_16  and  C16_18 
REMARK    5  A    between atoms: C20_23  and  O3_24 
REMARK    6  A    between atoms: C21_26  and  O4_27 
ROOT
HETATM    1  C14 UNL     1       2.020   6.761  28.742  1.00  0.00     0.018 C 
HETATM    2  C15 UNL     1       1.853   8.190  29.131  1.00  0.00     0.013 C 
ENDROOT
BRANCH   1   3
HETATM    3  C13 UNL     1       1.530   6.391  27.418  1.00  0.00     0.003 C 
HETATM    4  C12 UNL     1       0.244   5.572  27.472  1.00  0.00     0.009 C 
HETATM    5  C11 UNL     1       0.005   5.358  25.999  1.00  0.00     0.039 C 
HETATM    6  C10 UNL     1       0.459   6.656  25.338  1.00  0.00     0.066 C 
HETATM    7  C9  UNL     1       1.437   6.245  24.272  1.00  0.00     0.039 C 
HETATM    8  C27 UNL     1       1.122   7.481  26.459  1.00  0.00    -0.004 C 
HETATM    9  C8  UNL     1       2.094   7.363  23.553  1.00  0.00     0.013 C 
HETATM   10  C6  UNL     1       2.042   8.593  24.364  1.00  0.00    -0.033 C 
HETATM   11  C3  UNL     1       3.315   9.358  24.608  1.00  0.00     0.016 C 
HETATM   12  C5  UNL     1       2.258   8.139  25.811  1.00  0.00     0.006 C 
HETATM   13  C7  UNL     1       1.000   9.602  24.056  1.00  0.00     0.016 C 
HETATM   14  C4  UNL     1       2.703   9.514  26.023  1.00  0.00     0.015 C 
HETATM   15  C28 UNL     1       0.082   8.405  27.030  1.00  0.00     0.019 C 
BRANCH   6  16
HETATM   16  O1  UNL     1      -0.701   7.229  24.866  1.00  0.00    -0.389 OA
ATOM     17  H1  UNL     1      -1.325   7.476  25.538  1.00  0.00     0.210 HD
ENDBRANCH   6  16
BRANCH  11  18
HETATM   18  C2  UNL     1       4.594   8.685  24.529  1.00  0.00    -0.031 C 
HETATM   19  C1  UNL     1       5.379   8.931  23.490  1.00  0.00     0.007 C 
ENDBRANCH  11  18
ENDBRANCH   1   3
BRANCH   1  20
HETATM   20  C16 UNL     1       3.374   6.258  29.188  1.00  0.00     0.154 C 
HETATM   21  O2  UNL     1       4.187   6.123  28.130  1.00  0.00    -0.376 OA
HETATM   22  C17 UNL     1       5.478   5.673  28.373  1.00  0.00     0.136 C 
HETATM   23  C18 UNL     1       6.214   6.418  29.411  1.00  0.00     0.046 C 
HETATM   24  C24 UNL     1       5.548   4.168  28.462  1.00  0.00    -0.021 C 
HETATM   25  C19 UNL     1       5.380   7.328  30.273  1.00  0.00     0.044 C 
HETATM   26  C21 UNL     1       7.135   5.561  30.274  1.00  0.00     0.124 C 
HETATM   27  C20 UNL     1       3.939   6.993  30.363  1.00  0.00     0.148 C 
HETATM   28  C22 UNL     1       6.533   4.312  30.766  1.00  0.00     0.033 C 
HETATM   29  C23 UNL     1       5.624   3.608  29.830  1.00  0.00     0.014 C 
HETATM   30  C25 UNL     1       6.735   3.607  27.672  1.00  0.00     0.017 C 
HETATM   31  C26 UNL     1       4.292   3.607  27.797  1.00  0.00     0.017 C 
BRANCH  27  32
HETATM   32  O3  UNL     1       3.750   6.323  31.584  1.00  0.00    -0.393 OA
ATOM     33  H3  UNL     1       4.279   5.539  31.669  1.00  0.00     0.210 HD
ENDBRANCH  27  32
BRANCH  26  34
HETATM   34  O4  UNL     1       8.388   5.385  29.663  1.00  0.00    -0.395 OA
ATOM     35  H4  UNL     1       8.556   4.469  29.480  1.00  0.00     0.210 HD
ENDBRANCH  26  34
ENDBRANCH   1  20
TORSDOF 6
ENDMDL
MODEL 5
REMARK VINA RESULT: -6.766080946      2.302      4.179
REMARK  6 active torsions:
REMARK  status: ('A' for Active; 'I' for Inactive)
REMARK    1  A    between atoms: C2_2  and  C3_3 
REMARK    2  A    between atoms: C10_10  and  O1_11 
REMARK    3  A    between atoms: C13_15  and  C14_16 
REMARK    4  A    between atoms: C14_16  and  C16_18 
REMARK    5  A    between atoms: C20_23  and  O3_24 
REMARK    6  A    between atoms: C21_26  and  O4_27 
ROOT
HETATM    1  C14 UNL     1       3.008   8.661  25.446  1.00  0.00     0.018 C 
HETATM    2  C15 UNL     1       2.853   8.740  26.926  1.00  0.00     0.013 C 
ENDROOT
BRANCH   1   3
HETATM    3  C13 UNL     1       2.749   7.359  24.840  1.00  0.00     0.003 C 
HETATM    4  C12 UNL     1       1.811   7.443  23.639  1.00  0.00     0.009 C 
HETATM    5  C11 UNL     1       1.747   5.988  23.252  1.00  0.00     0.039 C 
HETATM    6  C10 UNL     1       3.149   5.451  23.520  1.00  0.00     0.066 C 
HETATM    7  C9  UNL     1       2.958   4.246  24.400  1.00  0.00     0.039 C 
HETATM    8  C27 UNL     1       3.899   6.591  24.238  1.00  0.00    -0.004 C 
HETATM    9  C8  UNL     1       4.209   3.608  24.877  1.00  0.00     0.013 C 
HETATM   10  C6  UNL     1       5.326   4.567  24.818  1.00  0.00    -0.033 C 
HETATM   11  C3  UNL     1       6.175   4.772  26.044  1.00  0.00     0.016 C 
HETATM   12  C5  UNL     1       4.731   5.917  25.235  1.00  0.00     0.006 C 
HETATM   13  C7  UNL     1       6.261   4.498  23.669  1.00  0.00     0.016 C 
HETATM   14  C4  UNL     1       6.108   6.251  25.587  1.00  0.00     0.015 C 
HETATM   15  C28 UNL     1       4.648   7.378  23.198  1.00  0.00     0.019 C 
BRANCH   6  16
HETATM   16  O1  UNL     1       3.660   5.177  22.271  1.00  0.00    -0.389 OA
ATOM     17  H1  UNL     1       4.588   5.355  22.172  1.00  0.00     0.210 HD
ENDBRANCH   6  16
BRANCH  11  18
HETATM   18  C2  UNL     1       5.639   4.477  27.357  1.00  0.00    -0.031 C 
HETATM   19  C1  UNL     1       6.338   4.837  28.424  1.00  0.00     0.007 C 
ENDBRANCH  11  18
ENDBRANCH   1   3
BRANCH   1  20
HETATM   20  C16 UNL     1       2.432   9.898  24.798  1.00  0.00     0.154 C 
HETATM   21  O2  UNL     1       1.542  10.477  25.617  1.00  0.00    -0.376 OA
HETATM   22  C17 UNL     1       0.923  11.636  25.170  1.00  0.00     0.136 C 
HETATM   23  C18 UNL     1       1.839  12.687  24.690  1.00  0.00     0.046 C 
HETATM   24  C24 UNL     1      -0.266  11.341  24.289  1.00  0.00    -0.021 C 
HETATM   25  C19 UNL     1       3.260  12.252  24.450  1.00  0.00     0.044 C 
HETATM   26  C21 UNL     1       1.318  13.489  23.500  1.00  0.00     0.124 C 
HETATM   27  C20 UNL     1       3.460  10.805  24.197  1.00  0.00     0.148 C 
HETATM   28  C22 UNL     1       0.739  12.678  22.418  1.00  0.00     0.033 C 
HETATM   29  C23 UNL     1      -0.041  11.488  22.834  1.00  0.00     0.014 C 
HETATM   30  C25 UNL     1      -1.473  12.213  24.654  1.00  0.00     0.017 C 
HETATM   31  C26 UNL     1      -0.690   9.897  24.553  1.00  0.00     0.017 C 
BRANCH  27  32
HETATM   32  O3  UNL     1       3.599  10.648  22.808  1.00  0.00    -0.393 OA
ATOM     33  H3  UNL     1       4.337  11.125  22.447  1.00  0.00     0.210 HD
ENDBRANCH  27  32
BRANCH  26  34
HETATM   34  O4  UNL     1       0.495  14.547  23.920  1.00  0.00    -0.395 OA
ATOM     35  H4  UNL     1      -0.388  14.246  24.099  1.00  0.00     0.210 HD
ENDBRANCH  26  34
ENDBRANCH   1  20
TORSDOF 6
ENDMDL
