MODEL 1
REMARK VINA RESULT: -6.257239119      0.000      0.000
REMARK  2 active torsions:
REMARK  status: ('A' for Active; 'I' for Inactive)
REMARK       I    between atoms: C1_4  and  N2_5 
REMARK       I    between atoms: C1_4  and  N3_10 
REMARK    1  A    between atoms: N2_5  and  C2_7 
REMARK    2  A    between atoms: N3_10  and  C5_12 
ROOT
HETATM    1  N1  UNL     1      14.399   9.518   6.378  1.00  0.00    -0.235 N 
ATOM      2  H11 UNL     1      14.443   9.345   5.374  1.00  0.00     0.174 HD
ATOM      3  H12 UNL     1      15.193   9.943   6.857  1.00  0.00     0.174 HD
HETATM    4  C1  UNL     1      13.357   9.206   7.040  1.00  0.00     0.668 C 
HETATM    5  N2  UNL     1      13.296   9.444   8.426  1.00  0.00    -0.222 N 
ATOM      6  H2  UNL     1      12.617   8.950   9.005  1.00  0.00     0.178 HD
HETATM    7  N3  UNL     1      12.266   8.621   6.380  1.00  0.00    -0.222 N 
ATOM      8  H3  UNL     1      11.745   9.148   5.678  1.00  0.00     0.178 HD
ENDROOT
BRANCH   5   9
HETATM    9  C2  UNL     1      14.212  10.402   9.026  1.00  0.00     0.099 A 
HETATM   10  C3  UNL     1      13.916  11.844   9.040  1.00  0.00     0.028 A 
HETATM   11  C4  UNL     1      13.867  11.008  10.347  1.00  0.00     0.028 A 
ENDBRANCH   5   9
BRANCH   7  12
HETATM   12  C5  UNL     1      11.891   7.278   6.701  1.00  0.00     0.103 C 
HETATM   13  C6  UNL     1      10.904   6.727   5.650  1.00  0.00     0.030 C 
HETATM   14  C7  UNL     1       9.762   6.372   6.537  1.00  0.00    -0.012 C 
HETATM   15  C8  UNL     1      10.478   5.751   7.745  1.00  0.00     0.011 C 
HETATM   16  C10 UNL     1       9.630   7.602   7.428  1.00  0.00     0.011 C 
HETATM   17  C9  UNL     1      11.013   7.168   7.914  1.00  0.00     0.010 C 
ENDBRANCH   7  12
TORSDOF 2
ENDMDL
MODEL 2
REMARK VINA RESULT: -5.571978908      1.147      5.047
REMARK  2 active torsions:
REMARK  status: ('A' for Active; 'I' for Inactive)
REMARK       I    between atoms: C1_4  and  N2_5 
REMARK       I    between atoms: C1_4  and  N3_10 
REMARK    1  A    between atoms: N2_5  and  C2_7 
REMARK    2  A    between atoms: N3_10  and  C5_12 
ROOT
HETATM    1  N1  UNL     1      12.284   7.805   5.286  1.00  0.00    -0.235 N 
ATOM      2  H11 UNL     1      13.037   8.010   4.630  1.00  0.00     0.174 HD
ATOM      3  H12 UNL     1      11.422   7.373   4.953  1.00  0.00     0.174 HD
HETATM    4  C1  UNL     1      12.412   8.086   6.521  1.00  0.00     0.668 C 
HETATM    5  N2  UNL     1      11.373   7.803   7.428  1.00  0.00    -0.222 N 
ATOM      6  H2  UNL     1      11.336   8.272   8.333  1.00  0.00     0.178 HD
HETATM    7  N3  UNL     1      13.598   8.680   6.978  1.00  0.00    -0.222 N 
ATOM      8  H3  UNL     1      14.481   8.171   6.932  1.00  0.00     0.178 HD
ENDROOT
BRANCH   5   9
HETATM    9  C2  UNL     1      10.350   6.836   7.061  1.00  0.00     0.099 A 
HETATM   10  C3  UNL     1      10.596   5.387   7.149  1.00  0.00     0.028 A 
HETATM   11  C4  UNL     1       9.632   6.093   8.139  1.00  0.00     0.028 A 
ENDBRANCH   5   9
BRANCH   7  12
HETATM   12  C5  UNL     1      13.556  10.009   7.508  1.00  0.00     0.103 C 
HETATM   13  C6  UNL     1      14.910  10.375   8.153  1.00  0.00     0.030 C 
HETATM   14  C7  UNL     1      14.452  10.707   9.530  1.00  0.00    -0.012 C 
HETATM   15  C8  UNL     1      13.163  11.493   9.257  1.00  0.00     0.011 C 
HETATM   16  C10 UNL     1      13.511   9.555   9.861  1.00  0.00     0.011 C 
HETATM   17  C9  UNL     1      12.684  10.149   8.721  1.00  0.00     0.010 C 
ENDBRANCH   7  12
TORSDOF 2
ENDMDL
MODEL 3
REMARK VINA RESULT: -4.954045282      0.895      1.587
REMARK  2 active torsions:
REMARK  status: ('A' for Active; 'I' for Inactive)
REMARK       I    between atoms: C1_4  and  N2_5 
REMARK       I    between atoms: C1_4  and  N3_10 
REMARK    1  A    between atoms: N2_5  and  C2_7 
REMARK    2  A    between atoms: N3_10  and  C5_12 
ROOT
HETATM    1  N1  UNL     1      13.855   8.663   7.198  1.00  0.00    -0.235 N 
ATOM      2  H11 UNL     1      13.989   8.288   6.259  1.00  0.00     0.174 HD
ATOM      3  H12 UNL     1      14.656   8.781   7.819  1.00  0.00     0.174 HD
HETATM    4  C1  UNL     1      12.692   8.986   7.602  1.00  0.00     0.668 C 
HETATM    5  N2  UNL     1      12.507   9.505   8.898  1.00  0.00    -0.222 N 
ATOM      6  H2  UNL     1      11.583   9.492   9.331  1.00  0.00     0.178 HD
HETATM    7  N3  UNL     1      11.591   8.824   6.748  1.00  0.00    -0.222 N 
ATOM      8  H3  UNL     1      11.518   9.371   5.890  1.00  0.00     0.178 HD
ENDROOT
BRANCH   5   9
HETATM    9  C2  UNL     1      13.646  10.058   9.614  1.00  0.00     0.099 A 
HETATM   10  C3  UNL     1      14.695  10.821   8.917  1.00  0.00     0.028 A 
HETATM   11  C4  UNL     1      13.697  11.529   9.872  1.00  0.00     0.028 A 
ENDBRANCH   5   9
BRANCH   7  12
HETATM   12  C5  UNL     1      10.570   7.882   7.093  1.00  0.00     0.103 C 
HETATM   13  C6  UNL     1      11.034   6.988   8.262  1.00  0.00     0.030 C 
HETATM   14  C7  UNL     1      10.890   5.648   7.629  1.00  0.00    -0.012 C 
HETATM   15  C8  UNL     1       9.563   5.796   6.871  1.00  0.00     0.011 C 
HETATM   16  C10 UNL     1      11.530   5.850   6.260  1.00  0.00     0.011 C 
HETATM   17  C9  UNL     1      10.359   6.813   6.062  1.00  0.00     0.010 C 
ENDBRANCH   7  12
TORSDOF 2
ENDMDL
MODEL 4
REMARK VINA RESULT: -4.932536966      2.328      3.298
REMARK  2 active torsions:
REMARK  status: ('A' for Active; 'I' for Inactive)
REMARK       I    between atoms: C1_4  and  N2_5 
REMARK       I    between atoms: C1_4  and  N3_10 
REMARK    1  A    between atoms: N2_5  and  C2_7 
REMARK    2  A    between atoms: N3_10  and  C5_12 
ROOT
HETATM    1  N1  UNL     1      15.100   9.927   6.972  1.00  0.00    -0.235 N 
ATOM      2  H11 UNL     1      15.321   9.356   7.787  1.00  0.00     0.174 HD
ATOM      3  H12 UNL     1      15.655  10.757   6.765  1.00  0.00     0.174 HD
HETATM    4  C1  UNL     1      14.131   9.611   6.209  1.00  0.00     0.668 C 
HETATM    5  N2  UNL     1      13.824  10.400   5.083  1.00  0.00    -0.222 N 
ATOM      6  H2  UNL     1      12.905  10.336   4.644  1.00  0.00     0.178 HD
HETATM    7  N3  UNL     1      13.366   8.470   6.494  1.00  0.00    -0.222 N 
ATOM      8  H3  UNL     1      13.790   7.542   6.454  1.00  0.00     0.178 HD
ENDROOT
BRANCH   5   9
HETATM    9  C2  UNL     1      14.830  11.306   4.553  1.00  0.00     0.099 A 
HETATM   10  C3  UNL     1      14.761  11.807   3.170  1.00  0.00     0.028 A 
HETATM   11  C4  UNL     1      14.486  12.749   4.372  1.00  0.00     0.028 A 
ENDBRANCH   5   9
BRANCH   7  12
HETATM   12  C5  UNL     1      11.987   8.620   6.843  1.00  0.00     0.103 C 
HETATM   13  C6  UNL     1      11.789   8.410   8.360  1.00  0.00     0.030 C 
HETATM   14  C7  UNL     1      10.799   7.299   8.335  1.00  0.00    -0.012 C 
HETATM   15  C8  UNL     1       9.865   7.730   7.194  1.00  0.00     0.011 C 
HETATM   16  C10 UNL     1      11.387   6.345   7.301  1.00  0.00     0.011 C 
HETATM   17  C9  UNL     1      11.112   7.507   6.347  1.00  0.00     0.010 C 
ENDBRANCH   7  12
TORSDOF 2
ENDMDL
MODEL 5
REMARK VINA RESULT: -4.888398565      1.137      1.853
REMARK  2 active torsions:
REMARK  status: ('A' for Active; 'I' for Inactive)
REMARK       I    between atoms: C1_4  and  N2_5 
REMARK       I    between atoms: C1_4  and  N3_10 
REMARK    1  A    between atoms: N2_5  and  C2_7 
REMARK    2  A    between atoms: N3_10  and  C5_12 
ROOT
HETATM    1  N1  UNL     1      13.653   8.149   9.227  1.00  0.00    -0.235 N 
ATOM      2  H11 UNL     1      13.882   7.170   9.054  1.00  0.00     0.174 HD
ATOM      3  H12 UNL     1      13.985   8.609  10.074  1.00  0.00     0.174 HD
HETATM    4  C1  UNL     1      12.951   8.802   8.388  1.00  0.00     0.668 C 
HETATM    5  N2  UNL     1      12.634  10.153   8.626  1.00  0.00    -0.222 N 
ATOM      6  H2  UNL     1      11.856  10.594   8.135  1.00  0.00     0.178 HD
HETATM    7  N3  UNL     1      12.494   8.169   7.223  1.00  0.00    -0.222 N 
ATOM      8  H3  UNL     1      13.156   7.845   6.518  1.00  0.00     0.178 HD
ENDROOT
BRANCH   5   9
HETATM    9  C2  UNL     1      13.426  10.915   9.579  1.00  0.00     0.099 A 
HETATM   10  C3  UNL     1      14.885  11.050   9.431  1.00  0.00     0.028 A 
HETATM   11  C4  UNL     1      13.945  12.259   9.183  1.00  0.00     0.028 A 
ENDBRANCH   5   9
BRANCH   7  12
HETATM   12  C5  UNL     1      11.088   7.982   7.034  1.00  0.00     0.103 C 
HETATM   13  C6  UNL     1      10.436   7.448   8.327  1.00  0.00     0.030 C 
HETATM   14  C7  UNL     1       9.827   6.194   7.805  1.00  0.00    -0.012 C 
HETATM   15  C8  UNL     1       9.270   6.651   6.450  1.00  0.00     0.011 C 
HETATM   16  C10 UNL     1      10.955   5.589   6.977  1.00  0.00     0.011 C 
HETATM   17  C9  UNL     1      10.747   6.840   6.122  1.00  0.00     0.010 C 
ENDBRANCH   7  12
TORSDOF 2
ENDMDL
