MODEL 1
REMARK VINA RESULT: -5.632188672      0.000      0.000
REMARK  2 active torsions:
REMARK  status: ('A' for Active; 'I' for Inactive)
REMARK    1  A    between atoms: C2_2  and  C3_3 
REMARK    2  A    between atoms: C9_9  and  N1_10 
REMARK       I    between atoms: N1_10  and  C10_12 
ROOT
HETATM    1  C3  UNL     1      10.759   7.086   7.994  1.00  0.00     0.030 C 
HETATM    2  C4  UNL     1      11.410   6.086   7.063  1.00  0.00     0.011 C 
HETATM    3  C5  UNL     1      11.471   6.608   5.648  1.00  0.00     0.006 C 
HETATM    4  C6  UNL     1      12.201   7.898   5.636  1.00  0.00    -0.008 A 
HETATM    5  C7  UNL     1      13.427   8.110   6.446  1.00  0.00     0.012 A 
HETATM    6  C8  UNL     1      12.070   8.819   6.726  1.00  0.00     0.013 A 
HETATM    7  C9  UNL     1      11.457   8.408   7.997  1.00  0.00     0.096 C 
ENDROOT
BRANCH   7   8
HETATM    8  N1  UNL     1      12.489   8.390   9.022  1.00  0.00    -0.359 N 
HETATM    9  C10 UNL     1      12.857   9.577   9.719  1.00  0.00     0.182 C 
HETATM   10  N2  UNL     1      12.789  10.730   9.188  1.00  0.00    -0.374 N 
HETATM   11  N3  UNL     1      13.311   9.432  11.051  1.00  0.00    -0.064 NA
ATOM     12  H22 UNL     1      12.462  10.836   8.228  1.00  0.00     0.158 HD
ATOM     13  H21 UNL     1      13.053  11.580   9.686  1.00  0.00     0.158 HD
ATOM     14  H1  UNL     1      12.957   7.512   9.247  1.00  0.00     0.162 HD
ENDBRANCH   7   8
BRANCH   1  15
HETATM   15  C2  UNL     1       9.328   7.149   7.595  1.00  0.00    -0.030 C 
HETATM   16  C1  UNL     1       8.680   8.227   7.211  1.00  0.00     0.007 C 
ENDBRANCH   1  15
TORSDOF 2
ENDMDL
MODEL 2
REMARK VINA RESULT: -5.096531160      2.298      3.511
REMARK  2 active torsions:
REMARK  status: ('A' for Active; 'I' for Inactive)
REMARK    1  A    between atoms: C2_2  and  C3_3 
REMARK    2  A    between atoms: C9_9  and  N1_10 
REMARK       I    between atoms: N1_10  and  C10_12 
ROOT
HETATM    1  C3  UNL     1      11.707   7.763   6.243  1.00  0.00     0.030 C 
HETATM    2  C4  UNL     1      10.599   8.224   7.165  1.00  0.00     0.011 C 
HETATM    3  C5  UNL     1      10.913   7.905   8.607  1.00  0.00     0.006 C 
HETATM    4  C6  UNL     1      12.205   8.533   8.974  1.00  0.00    -0.008 A 
HETATM    5  C7  UNL     1      12.560   9.906   8.533  1.00  0.00     0.012 A 
HETATM    6  C8  UNL     1      13.269   8.620   8.019  1.00  0.00     0.013 A 
HETATM    7  C9  UNL     1      13.032   8.361   6.591  1.00  0.00     0.096 C 
ENDROOT
BRANCH   7   8
HETATM    8  N1  UNL     1      13.186   9.612   5.865  1.00  0.00    -0.359 N 
HETATM    9  C10 UNL     1      14.469  10.203   5.678  1.00  0.00     0.182 C 
HETATM   10  N2  UNL     1      15.413  10.067   6.518  1.00  0.00    -0.374 N 
HETATM   11  N3  UNL     1      14.666  10.964   4.501  1.00  0.00    -0.064 NA
ATOM     12  H22 UNL     1      15.271   9.519   7.366  1.00  0.00     0.158 HD
ATOM     13  H21 UNL     1      16.331  10.490   6.385  1.00  0.00     0.158 HD
ATOM     14  H1  UNL     1      12.361  10.074   5.482  1.00  0.00     0.162 HD
ENDBRANCH   7   8
BRANCH   1  15
HETATM   15  C2  UNL     1      11.679   6.276   6.275  1.00  0.00    -0.030 C 
HETATM   16  C1  UNL     1      10.680   5.531   6.694  1.00  0.00     0.007 C 
ENDBRANCH   1  15
TORSDOF 2
ENDMDL
MODEL 3
REMARK VINA RESULT: -4.779507319      2.059      4.415
REMARK  2 active torsions:
REMARK  status: ('A' for Active; 'I' for Inactive)
REMARK    1  A    between atoms: C2_2  and  C3_3 
REMARK    2  A    between atoms: C9_9  and  N1_10 
REMARK       I    between atoms: N1_10  and  C10_12 
ROOT
HETATM    1  C3  UNL     1      12.682   9.541   9.582  1.00  0.00     0.030 C 
HETATM    2  C4  UNL     1      13.108  10.941   9.195  1.00  0.00     0.011 C 
HETATM    3  C5  UNL     1      14.515  10.958   8.649  1.00  0.00     0.006 C 
HETATM    4  C6  UNL     1      14.599  10.038   7.490  1.00  0.00    -0.008 A 
HETATM    5  C7  UNL     1      13.520   9.965   6.471  1.00  0.00     0.012 A 
HETATM    6  C8  UNL     1      13.846   8.819   7.472  1.00  0.00     0.013 A 
HETATM    7  C9  UNL     1      12.768   8.578   8.442  1.00  0.00     0.096 C 
ENDROOT
BRANCH   7   8
HETATM    8  N1  UNL     1      11.499   8.579   7.731  1.00  0.00    -0.359 N 
HETATM    9  C10 UNL     1      10.655   7.431   7.727  1.00  0.00     0.182 C 
HETATM   10  N2  UNL     1      11.112   6.247   7.803  1.00  0.00    -0.374 N 
HETATM   11  N3  UNL     1       9.261   7.653   7.632  1.00  0.00    -0.064 NA
ATOM     12  H22 UNL     1      12.116   6.087   7.872  1.00  0.00     0.158 HD
ATOM     13  H21 UNL     1      10.508   5.425   7.800  1.00  0.00     0.158 HD
ATOM     14  H1  UNL     1      11.208   9.417   7.227  1.00  0.00     0.162 HD
ENDBRANCH   7   8
BRANCH   1  15
HETATM   15  C2  UNL     1      13.507   9.170  10.762  1.00  0.00    -0.030 C 
HETATM   16  C1  UNL     1      13.322   9.585  11.995  1.00  0.00     0.007 C 
ENDBRANCH   1  15
TORSDOF 2
ENDMDL
MODEL 4
REMARK VINA RESULT: -4.659497194      8.590      9.667
REMARK  2 active torsions:
REMARK  status: ('A' for Active; 'I' for Inactive)
REMARK    1  A    between atoms: C2_2  and  C3_3 
REMARK    2  A    between atoms: C9_9  and  N1_10 
REMARK       I    between atoms: N1_10  and  C10_12 
ROOT
HETATM    1  C3  UNL     1      13.810  14.757   3.134  1.00  0.00     0.030 C 
HETATM    2  C4  UNL     1      12.388  14.573   2.650  1.00  0.00     0.011 C 
HETATM    3  C5  UNL     1      11.848  15.840   2.032  1.00  0.00     0.006 C 
HETATM    4  C6  UNL     1      12.737  16.258   0.922  1.00  0.00    -0.008 A 
HETATM    5  C7  UNL     1      13.307  15.275  -0.035  1.00  0.00     0.012 A 
HETATM    6  C8  UNL     1      14.153  16.060   1.010  1.00  0.00     0.013 A 
HETATM    7  C9  UNL     1      14.736  15.196   2.046  1.00  0.00     0.096 C 
ENDROOT
BRANCH   7   8
HETATM    8  N1  UNL     1      15.294  14.016   1.402  1.00  0.00    -0.359 N 
HETATM    9  C10 UNL     1      16.311  13.244   2.032  1.00  0.00     0.182 C 
HETATM   10  N2  UNL     1      17.165  13.754   2.824  1.00  0.00    -0.374 N 
HETATM   11  N3  UNL     1      16.344  11.859   1.745  1.00  0.00    -0.064 NA
ATOM     12  H22 UNL     1      17.142  14.752   3.031  1.00  0.00     0.158 HD
ATOM     13  H21 UNL     1      17.894  13.201   3.275  1.00  0.00     0.158 HD
ATOM     14  H1  UNL     1      14.950  13.738   0.483  1.00  0.00     0.162 HD
ENDBRANCH   7   8
BRANCH   1  15
HETATM   15  C2  UNL     1      13.735  15.691   4.289  1.00  0.00    -0.030 C 
HETATM   16  C1  UNL     1      14.737  16.377   4.793  1.00  0.00     0.007 C 
ENDBRANCH   1  15
TORSDOF 2
ENDMDL
MODEL 5
REMARK VINA RESULT: -4.640568842      8.542     10.031
REMARK  2 active torsions:
REMARK  status: ('A' for Active; 'I' for Inactive)
REMARK    1  A    between atoms: C2_2  and  C3_3 
REMARK    2  A    between atoms: C9_9  and  N1_10 
REMARK       I    between atoms: N1_10  and  C10_12 
ROOT
HETATM    1  C3  UNL     1      15.928  15.123   2.097  1.00  0.00     0.030 C 
HETATM    2  C4  UNL     1      15.606  15.148   3.576  1.00  0.00     0.011 C 
HETATM    3  C5  UNL     1      14.131  14.939   3.822  1.00  0.00     0.006 C 
HETATM    4  C6  UNL     1      13.711  13.657   3.208  1.00  0.00    -0.008 A 
HETATM    5  C7  UNL     1      14.551  12.435   3.298  1.00  0.00     0.012 A 
HETATM    6  C8  UNL     1      14.293  13.215   1.976  1.00  0.00     0.013 A 
HETATM    7  C9  UNL     1      15.504  13.851   1.437  1.00  0.00     0.096 C 
ENDROOT
BRANCH   7   8
HETATM    8  N1  UNL     1      16.599  12.896   1.513  1.00  0.00    -0.359 N 
HETATM    9  C10 UNL     1      17.749  13.026   0.682  1.00  0.00     0.182 C 
HETATM   10  N2  UNL     1      17.699  13.542  -0.479  1.00  0.00    -0.374 N 
HETATM   11  N3  UNL     1      18.978  12.553   1.199  1.00  0.00    -0.064 NA
ATOM     12  H22 UNL     1      16.814  13.883  -0.852  1.00  0.00     0.158 HD
ATOM     13  H21 UNL     1      18.522  13.635  -1.074  1.00  0.00     0.158 HD
ATOM     14  H1  UNL     1      16.542  12.120   2.172  1.00  0.00     0.162 HD
ENDBRANCH   7   8
BRANCH   1  15
HETATM   15  C2  UNL     1      15.313  16.348   1.521  1.00  0.00    -0.030 C 
HETATM   16  C1  UNL     1      14.700  16.432   0.361  1.00  0.00     0.007 C 
ENDBRANCH   1  15
TORSDOF 2
ENDMDL
