MODEL 1
REMARK VINA RESULT: -5.725893346      0.000      0.000
REMARK  2 active torsions:
REMARK  status: ('A' for Active; 'I' for Inactive)
REMARK       I    between atoms: N1_2  and  C2_4 
REMARK       I    between atoms: C2_4  and  N2_6 
REMARK       I    between atoms: N2_6  and  C3_8 
REMARK       I    between atoms: C3_8  and  N3_10 
REMARK    1  A    between atoms: N3_10  and  C4_12 
REMARK    2  A    between atoms: C4_12  and  C6_14 
ROOT
HETATM    1  C1  UNL     1      13.546   9.472  12.286  1.00  0.00     0.151 C 
HETATM    2  N1  UNL     1      13.135   9.275  10.814  1.00  0.00    -0.347 N 
ATOM      3  H1  UNL     1      12.849   8.359  10.469  1.00  0.00     0.163 HD
HETATM    4  C2  UNL     1      13.163  10.300  10.028  1.00  0.00     0.323 C 
HETATM    5  O1  UNL     1      13.510  11.448  10.404  1.00  0.00    -0.247 OA
HETATM    6  N2  UNL     1      12.765  10.370   8.386  1.00  0.00    -0.261 N 
ATOM      7  H2  UNL     1      12.772  11.149   7.727  1.00  0.00     0.175 HD
HETATM    8  C3  UNL     1      12.422   9.021   8.214  1.00  0.00     0.324 C 
HETATM    9  O2  UNL     1      12.373   8.060   8.918  1.00  0.00    -0.247 OA
HETATM   10  N3  UNL     1      12.012   8.678   6.811  1.00  0.00    -0.338 N 
ATOM     11  H3  UNL     1      12.002   9.396   6.087  1.00  0.00     0.164 HD
ENDROOT
BRANCH  10  12
HETATM   12  C4  UNL     1      11.642   7.357   6.508  1.00  0.00     0.086 C 
HETATM   13  C5  UNL     1      11.860   7.119   5.008  1.00  0.00     0.032 C 
BRANCH  12  14
HETATM   14  C6  UNL     1      10.221   6.986   6.852  1.00  0.00     0.008 A 
HETATM   15  C7  UNL     1       9.990   5.666   7.573  1.00  0.00     0.007 A 
HETATM   16  C8  UNL     1       9.712   7.008   8.241  1.00  0.00     0.007 A 
ENDBRANCH  12  14
ENDBRANCH  10  12
TORSDOF 2
ENDMDL
MODEL 2
REMARK VINA RESULT: -5.482036050      2.057      2.861
REMARK  2 active torsions:
REMARK  status: ('A' for Active; 'I' for Inactive)
REMARK       I    between atoms: N1_2  and  C2_4 
REMARK       I    between atoms: C2_4  and  N2_6 
REMARK       I    between atoms: N2_6  and  C3_8 
REMARK       I    between atoms: C3_8  and  N3_10 
REMARK    1  A    between atoms: N3_10  and  C4_12 
REMARK    2  A    between atoms: C4_12  and  C6_14 
ROOT
HETATM    1  C1  UNL     1      15.477  10.484   6.445  1.00  0.00     0.151 C 
HETATM    2  N1  UNL     1      14.147   9.840   6.877  1.00  0.00    -0.347 N 
ATOM      3  H1  UNL     1      13.505   9.449   6.187  1.00  0.00     0.163 HD
HETATM    4  C2  UNL     1      13.863   9.807   8.138  1.00  0.00     0.323 C 
HETATM    5  O1  UNL     1      14.618  10.276   9.026  1.00  0.00    -0.247 OA
HETATM    6  N2  UNL     1      12.489   9.165   8.884  1.00  0.00    -0.261 N 
ATOM      7  H2  UNL     1      12.220   9.116   9.867  1.00  0.00     0.175 HD
HETATM    8  C3  UNL     1      11.832   8.719   7.728  1.00  0.00     0.324 C 
HETATM    9  O2  UNL     1      12.072   8.722   6.560  1.00  0.00    -0.247 OA
HETATM   10  N3  UNL     1      10.503   8.078   7.999  1.00  0.00    -0.338 N 
ATOM     11  H3  UNL     1      10.153   7.999   8.954  1.00  0.00     0.164 HD
ENDROOT
BRANCH  10  12
HETATM   12  C4  UNL     1       9.745   7.587   6.923  1.00  0.00     0.086 C 
HETATM   13  C5  UNL     1       8.296   8.064   7.086  1.00  0.00     0.032 C 
BRANCH  12  14
HETATM   14  C6  UNL     1       9.742   6.088   6.762  1.00  0.00     0.008 A 
HETATM   15  C7  UNL     1      11.064   5.410   6.432  1.00  0.00     0.007 A 
HETATM   16  C8  UNL     1      10.352   5.184   7.762  1.00  0.00     0.007 A 
ENDBRANCH  12  14
ENDBRANCH  10  12
TORSDOF 2
ENDMDL
MODEL 3
REMARK VINA RESULT: -5.070572306      2.033      2.604
REMARK  2 active torsions:
REMARK  status: ('A' for Active; 'I' for Inactive)
REMARK       I    between atoms: N1_2  and  C2_4 
REMARK       I    between atoms: C2_4  and  N2_6 
REMARK       I    between atoms: N2_6  and  C3_8 
REMARK       I    between atoms: C3_8  and  N3_10 
REMARK    1  A    between atoms: N3_10  and  C4_12 
REMARK    2  A    between atoms: C4_12  and  C6_14 
ROOT
HETATM    1  C1  UNL     1      14.522  11.185   9.319  1.00  0.00     0.151 C 
HETATM    2  N1  UNL     1      13.730  10.070   8.610  1.00  0.00    -0.347 N 
ATOM      3  H1  UNL     1      12.947   9.608   9.073  1.00  0.00     0.163 HD
HETATM    4  C2  UNL     1      14.084   9.735   7.413  1.00  0.00     0.323 C 
HETATM    5  O1  UNL     1      15.041  10.272   6.801  1.00  0.00    -0.247 OA
HETATM    6  N2  UNL     1      13.397   8.559   6.411  1.00  0.00    -0.261 N 
ATOM      7  H2  UNL     1      13.639   8.258   5.466  1.00  0.00     0.175 HD
HETATM    8  C3  UNL     1      12.390   8.125   7.285  1.00  0.00     0.324 C 
HETATM    9  O2  UNL     1      12.032   8.422   8.383  1.00  0.00    -0.247 OA
HETATM   10  N3  UNL     1      11.543   7.020   6.726  1.00  0.00    -0.338 N 
ATOM     11  H3  UNL     1      11.724   6.652   5.793  1.00  0.00     0.164 HD
ENDROOT
BRANCH  10  12
HETATM   12  C4  UNL     1      10.495   6.497   7.505  1.00  0.00     0.086 C 
HETATM   13  C5  UNL     1      10.624   4.969   7.536  1.00  0.00     0.032 C 
BRANCH  12  14
HETATM   14  C6  UNL     1       9.105   6.853   7.044  1.00  0.00     0.008 A 
HETATM   15  C7  UNL     1       8.576   8.236   7.396  1.00  0.00     0.007 A 
HETATM   16  C8  UNL     1       8.856   7.823   5.955  1.00  0.00     0.007 A 
ENDBRANCH  12  14
ENDBRANCH  10  12
TORSDOF 2
ENDMDL
MODEL 4
REMARK VINA RESULT: -5.064571970      2.442      3.440
REMARK  2 active torsions:
REMARK  status: ('A' for Active; 'I' for Inactive)
REMARK       I    between atoms: N1_2  and  C2_4 
REMARK       I    between atoms: C2_4  and  N2_6 
REMARK       I    between atoms: N2_6  and  C3_8 
REMARK       I    between atoms: C3_8  and  N3_10 
REMARK    1  A    between atoms: N3_10  and  C4_12 
REMARK    2  A    between atoms: C4_12  and  C6_14 
ROOT
HETATM    1  C1  UNL     1      14.892  10.981   5.053  1.00  0.00     0.151 C 
HETATM    2  N1  UNL     1      13.935  10.150   5.927  1.00  0.00    -0.347 N 
ATOM      3  H1  UNL     1      13.015   9.877   5.582  1.00  0.00     0.163 HD
HETATM    4  C2  UNL     1      14.327   9.807   7.110  1.00  0.00     0.323 C 
HETATM    5  O1  UNL     1      15.450  10.119   7.581  1.00  0.00    -0.247 OA
HETATM    6  N2  UNL     1      13.491   8.902   8.268  1.00  0.00    -0.261 N 
ATOM      7  H2  UNL     1      13.756   8.608   9.209  1.00  0.00     0.175 HD
HETATM    8  C3  UNL     1      12.319   8.681   7.530  1.00  0.00     0.324 C 
HETATM    9  O2  UNL     1      11.935   8.971   6.439  1.00  0.00    -0.247 OA
HETATM   10  N3  UNL     1      11.281   7.890   8.271  1.00  0.00    -0.338 N 
ATOM     11  H3  UNL     1      11.460   7.567   9.221  1.00  0.00     0.164 HD
ENDROOT
BRANCH  10  12
HETATM   12  C4  UNL     1      10.060   7.599   7.639  1.00  0.00     0.086 C 
HETATM   13  C5  UNL     1       8.959   7.536   8.706  1.00  0.00     0.032 C 
BRANCH  12  14
HETATM   14  C6  UNL     1      10.031   6.319   6.842  1.00  0.00     0.008 A 
HETATM   15  C7  UNL     1      11.364   5.686   6.473  1.00  0.00     0.007 A 
HETATM   16  C8  UNL     1      10.390   5.011   7.433  1.00  0.00     0.007 A 
ENDBRANCH  12  14
ENDBRANCH  10  12
TORSDOF 2
ENDMDL
MODEL 5
REMARK VINA RESULT: -4.899352743      1.659      2.320
REMARK  2 active torsions:
REMARK  status: ('A' for Active; 'I' for Inactive)
REMARK       I    between atoms: N1_2  and  C2_4 
REMARK       I    between atoms: C2_4  and  N2_6 
REMARK       I    between atoms: N2_6  and  C3_8 
REMARK       I    between atoms: C3_8  and  N3_10 
REMARK    1  A    between atoms: N3_10  and  C4_12 
REMARK    2  A    between atoms: C4_12  and  C6_14 
ROOT
HETATM    1  C1  UNL     1      15.108  10.880   8.573  1.00  0.00     0.151 C 
HETATM    2  N1  UNL     1      13.811  10.053   8.497  1.00  0.00    -0.347 N 
ATOM      3  H1  UNL     1      13.423   9.769   7.597  1.00  0.00     0.163 HD
HETATM    4  C2  UNL     1      13.226   9.727   9.602  1.00  0.00     0.323 C 
HETATM    5  O1  UNL     1      13.663  10.053  10.735  1.00  0.00    -0.247 OA
HETATM    6  N2  UNL     1      11.808   8.831   9.810  1.00  0.00    -0.261 N 
ATOM      7  H2  UNL     1      11.310   8.551  10.656  1.00  0.00     0.175 HD
HETATM    8  C3  UNL     1      11.530   8.593   8.457  1.00  0.00     0.324 C 
HETATM    9  O2  UNL     1      12.054   8.866   7.421  1.00  0.00    -0.247 OA
HETATM   10  N3  UNL     1      10.274   7.803   8.229  1.00  0.00    -0.338 N 
ATOM     11  H3  UNL     1       9.709   7.493   9.020  1.00  0.00     0.164 HD
ENDROOT
BRANCH  10  12
HETATM   12  C4  UNL     1       9.885   7.496   6.914  1.00  0.00     0.086 C 
HETATM   13  C5  UNL     1       8.433   7.949   6.714  1.00  0.00     0.032 C 
BRANCH  12  14
HETATM   14  C6  UNL     1       9.993   6.042   6.529  1.00  0.00     0.008 A 
HETATM   15  C7  UNL     1      11.374   5.403   6.558  1.00  0.00     0.007 A 
HETATM   16  C8  UNL     1      10.269   4.979   7.521  1.00  0.00     0.007 A 
ENDBRANCH  12  14
ENDBRANCH  10  12
TORSDOF 2
ENDMDL
