MODEL 1
REMARK VINA RESULT: -5.053885645      0.000      0.000
REMARK  2 active torsions:
REMARK  status: ('A' for Active; 'I' for Inactive)
REMARK    1  A    between atoms: C2_2  and  C3_3 
REMARK    2  A    between atoms: C5_5  and  N1_6 
REMARK       I    between atoms: N1_6  and  C6_8 
ROOT
HETATM    1  C3  UNL     1      14.913  14.288   3.721  1.00  0.00     0.018 C 
HETATM    2  C4  UNL     1      15.965  14.792   2.711  1.00  0.00     0.035 C 
HETATM    3  C5  UNL     1      16.198  13.579   1.804  1.00  0.00     0.089 C 
HETATM    4  C7  UNL     1      15.693  12.494   2.662  1.00  0.00     0.018 A 
HETATM    5  C8  UNL     1      14.477  11.821   2.867  1.00  0.00     0.017 A 
HETATM    6  C9  UNL     1      14.311  13.241   2.906  1.00  0.00    -0.031 A 
HETATM    7  C10 UNL     1      13.675  13.804   1.622  1.00  0.00     0.016 C 
ENDROOT
BRANCH   3   8
HETATM    8  N1  UNL     1      17.644  13.434   1.669  1.00  0.00    -0.360 N 
HETATM    9  C6  UNL     1      18.164  12.854   0.477  1.00  0.00     0.182 C 
HETATM   10  N2  UNL     1      18.606  11.649   0.501  1.00  0.00    -0.374 N 
HETATM   11  N3  UNL     1      18.204  13.576  -0.738  1.00  0.00    -0.064 NA
ATOM     12  H22 UNL     1      18.577  11.129   1.377  1.00  0.00     0.158 HD
ATOM     13  H21 UNL     1      18.979  11.234  -0.353  1.00  0.00     0.158 HD
ATOM     14  H1  UNL     1      18.269  13.743   2.414  1.00  0.00     0.162 HD
ENDBRANCH   3   8
BRANCH   1  15
HETATM   15  C2  UNL     1      14.114  15.325   4.325  1.00  0.00    -0.031 C 
HETATM   16  C1  UNL     1      14.473  16.403   4.978  1.00  0.00     0.007 C 
ENDBRANCH   1  15
TORSDOF 2
ENDMDL
MODEL 2
REMARK VINA RESULT: -4.553009893      8.022      9.639
REMARK  2 active torsions:
REMARK  status: ('A' for Active; 'I' for Inactive)
REMARK    1  A    between atoms: C2_2  and  C3_3 
REMARK    2  A    between atoms: C5_5  and  N1_6 
REMARK       I    between atoms: N1_6  and  C6_8 
ROOT
HETATM    1  C3  UNL     1      11.395   6.640   7.533  1.00  0.00     0.018 C 
HETATM    2  C4  UNL     1      11.652   7.814   8.500  1.00  0.00     0.035 C 
HETATM    3  C5  UNL     1      12.137   8.936   7.577  1.00  0.00     0.089 C 
HETATM    4  C7  UNL     1      12.556   8.161   6.398  1.00  0.00     0.018 A 
HETATM    5  C8  UNL     1      11.983   7.725   5.191  1.00  0.00     0.017 A 
HETATM    6  C9  UNL     1      11.159   7.406   6.316  1.00  0.00    -0.031 A 
HETATM    7  C10 UNL     1       9.942   8.339   6.450  1.00  0.00     0.016 C 
ENDROOT
BRANCH   3   8
HETATM    8  N1  UNL     1      13.323   9.507   8.207  1.00  0.00    -0.360 N 
HETATM    9  C6  UNL     1      13.173  10.210   9.436  1.00  0.00     0.182 C 
HETATM   10  N2  UNL     1      13.235  11.492   9.444  1.00  0.00    -0.374 N 
HETATM   11  N3  UNL     1      12.955   9.526  10.655  1.00  0.00    -0.064 NA
ATOM     12  H22 UNL     1      13.392  11.985   8.566  1.00  0.00     0.158 HD
ATOM     13  H21 UNL     1      13.128  11.995  10.325  1.00  0.00     0.158 HD
ATOM     14  H1  UNL     1      14.242   9.405   7.775  1.00  0.00     0.162 HD
ENDBRANCH   3   8
BRANCH   1  15
HETATM   15  C2  UNL     1      10.442   5.668   8.007  1.00  0.00    -0.031 C 
HETATM   16  C1  UNL     1       9.858   4.675   7.382  1.00  0.00     0.007 C 
ENDBRANCH   1  15
TORSDOF 2
ENDMDL
MODEL 3
REMARK VINA RESULT: -4.421334553      1.455      2.787
REMARK  2 active torsions:
REMARK  status: ('A' for Active; 'I' for Inactive)
REMARK    1  A    between atoms: C2_2  and  C3_3 
REMARK    2  A    between atoms: C5_5  and  N1_6 
REMARK       I    between atoms: N1_6  and  C6_8 
ROOT
HETATM    1  C3  UNL     1      13.594  15.096   2.065  1.00  0.00     0.018 C 
HETATM    2  C4  UNL     1      14.329  13.832   1.570  1.00  0.00     0.035 C 
HETATM    3  C5  UNL     1      15.778  14.069   2.006  1.00  0.00     0.089 C 
HETATM    4  C7  UNL     1      15.772  15.528   2.198  1.00  0.00     0.018 A 
HETATM    5  C8  UNL     1      15.547  16.431   3.251  1.00  0.00     0.017 A 
HETATM    6  C9  UNL     1      14.498  15.466   3.146  1.00  0.00    -0.031 A 
HETATM    7  C10 UNL     1      14.582  14.371   4.226  1.00  0.00     0.016 C 
ENDROOT
BRANCH   3   8
HETATM    8  N1  UNL     1      16.615  13.752   0.854  1.00  0.00    -0.360 N 
HETATM    9  C6  UNL     1      17.645  12.780   1.003  1.00  0.00     0.182 C 
HETATM   10  N2  UNL     1      18.868  13.161   1.083  1.00  0.00    -0.374 N 
HETATM   11  N3  UNL     1      17.352  11.398   1.068  1.00  0.00    -0.064 NA
ATOM     12  H22 UNL     1      19.080  14.157   1.037  1.00  0.00     0.158 HD
ATOM     13  H21 UNL     1      19.606  12.465   1.190  1.00  0.00     0.158 HD
ATOM     14  H1  UNL     1      16.465  14.217  -0.042  1.00  0.00     0.162 HD
ENDBRANCH   3   8
BRANCH   1  15
HETATM   15  C2  UNL     1      12.182  14.921   2.290  1.00  0.00    -0.031 C 
HETATM   16  C1  UNL     1      11.152  15.323   1.586  1.00  0.00     0.007 C 
ENDBRANCH   1  15
TORSDOF 2
ENDMDL
MODEL 4
REMARK VINA RESULT: -4.334937425      7.760      9.459
REMARK  2 active torsions:
REMARK  status: ('A' for Active; 'I' for Inactive)
REMARK    1  A    between atoms: C2_2  and  C3_3 
REMARK    2  A    between atoms: C5_5  and  N1_6 
REMARK       I    between atoms: N1_6  and  C6_8 
ROOT
HETATM    1  C3  UNL     1      11.447   6.829   7.812  1.00  0.00     0.018 C 
HETATM    2  C4  UNL     1      11.310   7.818   8.987  1.00  0.00     0.035 C 
HETATM    3  C5  UNL     1      12.064   9.059   8.498  1.00  0.00     0.089 C 
HETATM    4  C7  UNL     1      12.896   8.473   7.435  1.00  0.00     0.018 A 
HETATM    5  C8  UNL     1      12.805   8.261   6.049  1.00  0.00     0.017 A 
HETATM    6  C9  UNL     1      11.642   7.791   6.736  1.00  0.00    -0.031 A 
HETATM    7  C10 UNL     1      10.433   8.733   6.578  1.00  0.00     0.016 C 
ENDROOT
BRANCH   3   8
HETATM    8  N1  UNL     1      12.931   9.478   9.595  1.00  0.00    -0.360 N 
HETATM    9  C6  UNL     1      13.653  10.698   9.468  1.00  0.00     0.182 C 
HETATM   10  N2  UNL     1      14.913  10.665   9.224  1.00  0.00    -0.374 N 
HETATM   11  N3  UNL     1      13.013  11.952   9.604  1.00  0.00    -0.064 NA
ATOM     12  H22 UNL     1      15.374   9.761   9.126  1.00  0.00     0.158 HD
ATOM     13  H21 UNL     1      15.430  11.539   9.133  1.00  0.00     0.158 HD
ATOM     14  H1  UNL     1      13.017   8.906  10.436  1.00  0.00     0.162 HD
ENDBRANCH   3   8
BRANCH   1  15
HETATM   15  C2  UNL     1      10.414   5.826   7.747  1.00  0.00    -0.031 C 
HETATM   16  C1  UNL     1      10.103   4.986   6.789  1.00  0.00     0.007 C 
ENDBRANCH   1  15
TORSDOF 2
ENDMDL
MODEL 5
REMARK VINA RESULT: -4.283448477      7.614      9.009
REMARK  2 active torsions:
REMARK  status: ('A' for Active; 'I' for Inactive)
REMARK    1  A    between atoms: C2_2  and  C3_3 
REMARK    2  A    between atoms: C5_5  and  N1_6 
REMARK       I    between atoms: N1_6  and  C6_8 
ROOT
HETATM    1  C3  UNL     1      14.060   9.357   7.181  1.00  0.00     0.018 C 
HETATM    2  C4  UNL     1      12.740   9.269   6.388  1.00  0.00     0.035 C 
HETATM    3  C5  UNL     1      11.697   8.948   7.464  1.00  0.00     0.089 C 
HETATM    4  C7  UNL     1      12.561   8.424   8.535  1.00  0.00     0.018 A 
HETATM    5  C8  UNL     1      13.235   8.930   9.660  1.00  0.00     0.017 A 
HETATM    6  C9  UNL     1      13.509   9.700   8.486  1.00  0.00    -0.031 A 
HETATM    7  C10 UNL     1      12.747  11.037   8.457  1.00  0.00     0.016 C 
ENDROOT
BRANCH   3   8
HETATM    8  N1  UNL     1      10.884   7.855   6.942  1.00  0.00    -0.360 N 
HETATM    9  C6  UNL     1      10.481   6.818   7.831  1.00  0.00     0.182 C 
HETATM   10  N2  UNL     1      11.059   5.674   7.773  1.00  0.00    -0.374 N 
HETATM   11  N3  UNL     1       9.453   7.020   8.781  1.00  0.00    -0.064 NA
ATOM     12  H22 UNL     1      11.800   5.528   7.088  1.00  0.00     0.158 HD
ATOM     13  H21 UNL     1      10.770   4.932   8.410  1.00  0.00     0.158 HD
ATOM     14  H1  UNL     1      10.611   7.834   5.959  1.00  0.00     0.162 HD
ENDBRANCH   3   8
BRANCH   1  15
HETATM   15  C2  UNL     1      15.081  10.162   6.561  1.00  0.00    -0.031 C 
HETATM   16  C1  UNL     1      15.047  10.886   5.469  1.00  0.00     0.007 C 
ENDBRANCH   1  15
TORSDOF 2
ENDMDL
