MODEL 1
REMARK VINA RESULT: -8.755194371      0.000      0.000
REMARK  4 active torsions:
REMARK  status: ('A' for Active; 'I' for Inactive)
REMARK    1  A    between atoms: C5_5  and  C6_6 
REMARK    2  A    between atoms: C6_6  and  C7_7 
REMARK    3  A    between atoms: C9_12  and  C10_13 
REMARK    4  A    between atoms: C10_13  and  C11_14 
ROOT
HETATM    1  C7  UNL     1     -11.745  69.851   4.509  1.00  0.00     0.104 A 
HETATM    2  N1  UNL     1     -12.165  68.728   5.121  1.00  0.00    -0.317 N 
ATOM      3  H1  UNL     1     -11.669  67.854   4.944  1.00  0.00     0.169 HD
HETATM    4  C8  UNL     1     -13.217  68.723   5.956  1.00  0.00     0.273 A 
HETATM    5  O1  UNL     1     -13.619  67.662   6.539  1.00  0.00    -0.266 OA
HETATM    6  C9  UNL     1     -13.905  69.887   6.214  1.00  0.00     0.106 A 
HETATM    7  N2  UNL     1     -13.483  71.001   5.604  1.00  0.00    -0.317 N 
ATOM      8  H2  UNL     1     -13.979  71.874   5.780  1.00  0.00     0.169 HD
HETATM    9  C16 UNL     1     -12.438  71.011   4.772  1.00  0.00     0.273 A 
HETATM   10  O3  UNL     1     -12.069  72.097   4.211  1.00  0.00    -0.266 OA
ENDROOT
BRANCH   1  11
HETATM   11  C6  UNL     1     -10.708  69.836   3.691  1.00  0.00     0.046 C 
BRANCH  11  12
HETATM   12  C5  UNL     1      -9.421  70.404   4.029  1.00  0.00    -0.034 A 
HETATM   13  C4  UNL     1      -8.559  69.805   4.919  1.00  0.00     0.012 A 
HETATM   14  C3  UNL     1      -7.350  70.398   5.198  1.00  0.00     0.007 A 
HETATM   15  C2  UNL     1      -6.963  71.583   4.614  1.00  0.00    -0.062 A 
HETATM   16  C1  UNL     1      -5.652  72.193   4.940  1.00  0.00     0.048 C 
HETATM   17  C18 UNL     1      -7.827  72.177   3.726  1.00  0.00     0.007 A 
HETATM   18  C17 UNL     1      -9.039  71.591   3.441  1.00  0.00     0.012 A 
ENDBRANCH  11  12
ENDBRANCH   1  11
BRANCH   6  19
HETATM   19  C10 UNL     1     -14.955  69.917   7.040  1.00  0.00     0.072 C 
BRANCH  19  20
HETATM   20  C11 UNL     1     -16.237  70.446   6.663  1.00  0.00     0.078 A 
HETATM   21  C12 UNL     1     -16.965  69.967   5.576  1.00  0.00     0.040 A 
HETATM   22  C13 UNL     1     -18.114  70.711   5.539  1.00  0.00     0.035 A 
HETATM   23  C14 UNL     1     -18.058  71.610   6.587  1.00  0.00     0.050 A 
HETATM   24  C15 UNL     1     -19.104  72.624   6.931  1.00  0.00     0.076 C 
HETATM   25  O2  UNL     1     -16.933  71.400   7.203  1.00  0.00    -0.316 OA
ENDBRANCH  19  20
ENDBRANCH   6  19
TORSDOF 4
ENDMDL
MODEL 2
REMARK VINA RESULT: -8.657790982      1.733      7.986
REMARK  4 active torsions:
REMARK  status: ('A' for Active; 'I' for Inactive)
REMARK    1  A    between atoms: C5_5  and  C6_6 
REMARK    2  A    between atoms: C6_6  and  C7_7 
REMARK    3  A    between atoms: C9_12  and  C10_13 
REMARK    4  A    between atoms: C10_13  and  C11_14 
ROOT
HETATM    1  C7  UNL     1     -13.419  68.555   5.532  1.00  0.00     0.104 A 
HETATM    2  N1  UNL     1     -13.058  69.734   4.995  1.00  0.00    -0.317 N 
ATOM      3  H1  UNL     1     -13.739  70.493   4.965  1.00  0.00     0.169 HD
HETATM    4  C8  UNL     1     -11.828  69.943   4.495  1.00  0.00     0.273 A 
HETATM    5  O1  UNL     1     -11.480  71.058   3.984  1.00  0.00    -0.266 OA
HETATM    6  C9  UNL     1     -10.888  68.937   4.522  1.00  0.00     0.106 A 
HETATM    7  N2  UNL     1     -11.253  67.766   5.058  1.00  0.00    -0.317 N 
ATOM      8  H2  UNL     1     -10.571  67.007   5.087  1.00  0.00     0.169 HD
HETATM    9  C16 UNL     1     -12.474  67.554   5.556  1.00  0.00     0.273 A 
HETATM   10  O3  UNL     1     -12.779  66.421   6.058  1.00  0.00    -0.266 OA
ENDROOT
BRANCH   1  11
HETATM   11  C6  UNL     1     -14.634  68.369   6.018  1.00  0.00     0.046 C 
BRANCH  11  12
HETATM   12  C5  UNL     1     -15.632  69.415   6.084  1.00  0.00    -0.034 A 
HETATM   13  C4  UNL     1     -15.613  70.395   7.050  1.00  0.00     0.012 A 
HETATM   14  C3  UNL     1     -16.593  71.361   7.057  1.00  0.00     0.007 A 
HETATM   15  C2  UNL     1     -17.603  71.386   6.123  1.00  0.00    -0.062 A 
HETATM   16  C1  UNL     1     -18.642  72.443   6.162  1.00  0.00     0.048 C 
HETATM   17  C18 UNL     1     -17.617  70.406   5.160  1.00  0.00     0.007 A 
HETATM   18  C17 UNL     1     -16.641  69.436   5.146  1.00  0.00     0.012 A 
ENDBRANCH  11  12
ENDBRANCH   1  11
BRANCH   6  19
HETATM   19  C10 UNL     1      -9.657  69.111   4.035  1.00  0.00     0.072 C 
BRANCH  19  20
HETATM   20  C11 UNL     1      -8.641  69.867   4.716  1.00  0.00     0.078 A 
HETATM   21  C12 UNL     1      -8.609  70.021   6.100  1.00  0.00     0.040 A 
HETATM   22  C13 UNL     1      -7.511  70.793   6.365  1.00  0.00     0.035 A 
HETATM   23  C14 UNL     1      -6.909  71.086   5.156  1.00  0.00     0.050 A 
HETATM   24  C15 UNL     1      -5.673  71.908   4.966  1.00  0.00     0.076 C 
HETATM   25  O2  UNL     1      -7.623  70.512   4.232  1.00  0.00    -0.316 OA
ENDBRANCH  19  20
ENDBRANCH   6  19
TORSDOF 4
ENDMDL
MODEL 3
REMARK VINA RESULT: -8.642630396      5.746      8.176
REMARK  4 active torsions:
REMARK  status: ('A' for Active; 'I' for Inactive)
REMARK    1  A    between atoms: C5_5  and  C6_6 
REMARK    2  A    between atoms: C6_6  and  C7_7 
REMARK    3  A    between atoms: C9_12  and  C10_13 
REMARK    4  A    between atoms: C10_13  and  C11_14 
ROOT
HETATM    1  C7  UNL     1     -11.260  70.726   1.044  1.00  0.00     0.104 A 
HETATM    2  N1  UNL     1     -10.128  70.751   0.318  1.00  0.00    -0.317 N 
ATOM      3  H1  UNL     1      -9.236  70.590   0.788  1.00  0.00     0.169 HD
HETATM    4  C8  UNL     1     -10.135  70.980  -1.006  1.00  0.00     0.273 A 
HETATM    5  O1  UNL     1      -9.064  71.004  -1.699  1.00  0.00    -0.266 OA
HETATM    6  C9  UNL     1     -11.322  71.198  -1.666  1.00  0.00     0.106 A 
HETATM    7  N2  UNL     1     -12.446  71.173  -0.940  1.00  0.00    -0.317 N 
ATOM      8  H2  UNL     1     -13.338  71.333  -1.409  1.00  0.00     0.169 HD
HETATM    9  C16 UNL     1     -12.444  70.946   0.377  1.00  0.00     0.273 A 
HETATM   10  O3  UNL     1     -13.540  70.930   1.031  1.00  0.00    -0.266 OA
ENDROOT
BRANCH   1  11
HETATM   11  C6  UNL     1     -11.233  70.499   2.345  1.00  0.00     0.046 C 
BRANCH  11  12
HETATM   12  C5  UNL     1     -10.033  70.617   3.147  1.00  0.00    -0.034 A 
HETATM   13  C4  UNL     1      -9.402  69.525   3.698  1.00  0.00     0.012 A 
HETATM   14  C3  UNL     1      -8.265  69.706   4.451  1.00  0.00     0.007 A 
HETATM   15  C2  UNL     1      -7.728  70.953   4.678  1.00  0.00    -0.062 A 
HETATM   16  C1  UNL     1      -6.501  71.109   5.495  1.00  0.00     0.048 C 
HETATM   17  C18 UNL     1      -8.362  72.040   4.125  1.00  0.00     0.007 A 
HETATM   18  C17 UNL     1      -9.499  71.868   3.371  1.00  0.00     0.012 A 
ENDBRANCH  11  12
ENDBRANCH   1  11
BRANCH   6  19
HETATM   19  C10 UNL     1     -11.365  71.429  -2.982  1.00  0.00     0.072 C 
BRANCH  19  20
HETATM   20  C11 UNL     1     -11.522  70.385  -3.958  1.00  0.00     0.078 A 
HETATM   21  C12 UNL     1     -11.750  69.054  -3.616  1.00  0.00     0.040 A 
HETATM   22  C13 UNL     1     -11.841  68.375  -4.801  1.00  0.00     0.035 A 
HETATM   23  C14 UNL     1     -11.670  69.293  -5.819  1.00  0.00     0.050 A 
HETATM   24  C15 UNL     1     -11.693  68.994  -7.286  1.00  0.00     0.076 C 
HETATM   25  O2  UNL     1     -11.488  70.450  -5.255  1.00  0.00    -0.316 OA
ENDBRANCH  19  20
ENDBRANCH   6  19
TORSDOF 4
ENDMDL
MODEL 4
REMARK VINA RESULT: -8.611216675      2.541      4.145
REMARK  4 active torsions:
REMARK  status: ('A' for Active; 'I' for Inactive)
REMARK    1  A    between atoms: C5_5  and  C6_6 
REMARK    2  A    between atoms: C6_6  and  C7_7 
REMARK    3  A    between atoms: C9_12  and  C10_13 
REMARK    4  A    between atoms: C10_13  and  C11_14 
ROOT
HETATM    1  C7  UNL     1      -9.033  71.045   4.422  1.00  0.00     0.104 A 
HETATM    2  N1  UNL     1      -8.930  69.939   3.663  1.00  0.00    -0.317 N 
ATOM      3  H1  UNL     1      -8.227  69.910   2.924  1.00  0.00     0.169 HD
HETATM    4  C8  UNL     1      -9.726  68.873   3.847  1.00  0.00     0.273 A 
HETATM    5  O1  UNL     1      -9.634  67.821   3.131  1.00  0.00    -0.266 OA
HETATM    6  C9  UNL     1     -10.683  68.883   4.837  1.00  0.00     0.106 A 
HETATM    7  N2  UNL     1     -10.780  69.986   5.589  1.00  0.00    -0.317 N 
ATOM      8  H2  UNL     1     -11.484  70.015   6.328  1.00  0.00     0.169 HD
HETATM    9  C16 UNL     1      -9.992  71.049   5.409  1.00  0.00     0.273 A 
HETATM   10  O3  UNL     1     -10.118  72.080   6.151  1.00  0.00    -0.266 OA
ENDROOT
BRANCH   1  11
HETATM   11  C6  UNL     1      -8.241  72.085   4.225  1.00  0.00     0.046 C 
BRANCH  11  12
HETATM   12  C5  UNL     1      -8.075  72.724   2.937  1.00  0.00    -0.034 A 
HETATM   13  C4  UNL     1      -9.128  72.937   2.076  1.00  0.00     0.012 A 
HETATM   14  C3  UNL     1      -8.902  73.550   0.865  1.00  0.00     0.007 A 
HETATM   15  C2  UNL     1      -7.649  73.964   0.477  1.00  0.00    -0.062 A 
HETATM   16  C1  UNL     1      -7.444  74.621  -0.836  1.00  0.00     0.048 C 
HETATM   17  C18 UNL     1      -6.601  73.750   1.340  1.00  0.00     0.007 A 
HETATM   18  C17 UNL     1      -6.818  73.137   2.552  1.00  0.00     0.012 A 
ENDBRANCH  11  12
ENDBRANCH   1  11
BRANCH   6  19
HETATM   19  C10 UNL     1     -11.490  67.840   5.047  1.00  0.00     0.072 C 
BRANCH  19  20
HETATM   20  C11 UNL     1     -12.900  67.974   5.299  1.00  0.00     0.078 A 
HETATM   21  C12 UNL     1     -13.691  66.924   5.761  1.00  0.00     0.040 A 
HETATM   22  C13 UNL     1     -14.956  67.433   5.875  1.00  0.00     0.035 A 
HETATM   23  C14 UNL     1     -14.907  68.758   5.487  1.00  0.00     0.050 A 
HETATM   24  C15 UNL     1     -16.063  69.708   5.455  1.00  0.00     0.076 C 
HETATM   25  O2  UNL     1     -13.672  69.008   5.163  1.00  0.00    -0.316 OA
ENDBRANCH  19  20
ENDBRANCH   6  19
TORSDOF 4
ENDMDL
MODEL 5
REMARK VINA RESULT: -8.575518994      1.943      8.256
REMARK  4 active torsions:
REMARK  status: ('A' for Active; 'I' for Inactive)
REMARK    1  A    between atoms: C5_5  and  C6_6 
REMARK    2  A    between atoms: C6_6  and  C7_7 
REMARK    3  A    between atoms: C9_12  and  C10_13 
REMARK    4  A    between atoms: C10_13  and  C11_14 
ROOT
HETATM    1  C7  UNL     1     -15.314  70.055   5.154  1.00  0.00     0.104 A 
HETATM    2  N1  UNL     1     -15.079  70.359   3.865  1.00  0.00    -0.317 N 
ATOM      3  H1  UNL     1     -15.823  70.219   3.180  1.00  0.00     0.169 HD
HETATM    4  C8  UNL     1     -13.895  70.840   3.451  1.00  0.00     0.273 A 
HETATM    5  O1  UNL     1     -13.666  71.130   2.230  1.00  0.00    -0.266 OA
HETATM    6  C9  UNL     1     -12.873  71.040   4.352  1.00  0.00     0.106 A 
HETATM    7  N2  UNL     1     -13.112  70.736   5.633  1.00  0.00    -0.317 N 
ATOM      8  H2  UNL     1     -12.369  70.875   6.317  1.00  0.00     0.169 HD
HETATM    9  C16 UNL     1     -14.288  70.256   6.049  1.00  0.00     0.273 A 
HETATM   10  O3  UNL     1     -14.473  69.980   7.281  1.00  0.00    -0.266 OA
ENDROOT
BRANCH   1  11
HETATM   11  C6  UNL     1     -16.485  69.582   5.542  1.00  0.00     0.046 C 
BRANCH  11  12
HETATM   12  C5  UNL     1     -17.692  70.380   5.576  1.00  0.00    -0.034 A 
HETATM   13  C4  UNL     1     -18.623  70.357   4.562  1.00  0.00     0.012 A 
HETATM   14  C3  UNL     1     -19.749  71.141   4.656  1.00  0.00     0.007 A 
HETATM   15  C2  UNL     1     -19.984  71.958   5.738  1.00  0.00    -0.062 A 
HETATM   16  C1  UNL     1     -21.210  72.790   5.805  1.00  0.00     0.048 C 
HETATM   17  C18 UNL     1     -19.053  71.978   6.748  1.00  0.00     0.007 A 
HETATM   18  C17 UNL     1     -17.923  71.197   6.662  1.00  0.00     0.012 A 
ENDBRANCH  11  12
ENDBRANCH   1  11
BRANCH   6  19
HETATM   19  C10 UNL     1     -11.684  71.517   3.974  1.00  0.00     0.072 C 
BRANCH  19  20
HETATM   20  C11 UNL     1     -10.586  71.702   4.884  1.00  0.00     0.078 A 
HETATM   21  C12 UNL     1     -10.091  72.957   5.230  1.00  0.00     0.040 A 
HETATM   22  C13 UNL     1      -9.063  72.725   6.103  1.00  0.00     0.035 A 
HETATM   23  C14 UNL     1      -8.957  71.357   6.265  1.00  0.00     0.050 A 
HETATM   24  C15 UNL     1      -7.966  70.648   7.134  1.00  0.00     0.076 C 
HETATM   25  O2  UNL     1      -9.880  70.819   5.523  1.00  0.00    -0.316 OA
ENDBRANCH  19  20
ENDBRANCH   6  19
TORSDOF 4
ENDMDL
