MODEL 1
REMARK VINA RESULT: -8.127881712      0.000      0.000
REMARK  2 active torsions:
REMARK  status: ('A' for Active; 'I' for Inactive)
REMARK    1  A    between atoms: N2_9  and  S1_10 
REMARK    2  A    between atoms: S1_10  and  N3_13 
ROOT
HETATM    1  O1  UNL     1     -10.528  67.754  -1.320  1.00  0.00    -0.247 OA
HETATM    2  C1  UNL     1     -10.630  68.939  -0.865  1.00  0.00     0.316 C 
HETATM    3  N1  UNL     1     -10.826  70.082  -1.654  1.00  0.00    -0.341 N 
ATOM      4  H1  UNL     1     -10.909  70.078  -2.671  1.00  0.00     0.164 HD
HETATM    5  C2  UNL     1     -10.895  71.265  -0.827  1.00  0.00     0.156 C 
HETATM    6  C3  UNL     1     -10.944  70.747   0.606  1.00  0.00     0.059 C 
HETATM    7  C4  UNL     1      -9.933  71.515   1.393  1.00  0.00     0.079 C 
HETATM    8  C5  UNL     1     -10.287  71.765   2.814  1.00  0.00     0.085 C 
HETATM    9  N2  UNL     1     -11.380  71.078   3.333  1.00  0.00    -0.253 N 
HETATM   10  C12 UNL     1     -12.516  70.824   2.560  1.00  0.00     0.085 C 
HETATM   11  C13 UNL     1     -12.359  70.933   1.085  1.00  0.00     0.079 C 
HETATM   12  N4  UNL     1     -10.572  69.367   0.488  1.00  0.00    -0.332 N 
ATOM     13  H4  UNL     1     -10.301  68.773   1.271  1.00  0.00     0.165 HD
ENDROOT
BRANCH   9  14
HETATM   14  S1  UNL     1     -11.318  70.509   4.908  1.00  0.00     0.326 S 
HETATM   15  O2  UNL     1     -12.318  71.152   5.826  1.00  0.00    -0.182 OA
HETATM   16  O3  UNL     1     -11.643  69.026   4.919  1.00  0.00    -0.182 OA
BRANCH  14  17
HETATM   17  N3  UNL     1      -9.758  70.795   5.572  1.00  0.00    -0.294 N 
HETATM   18  C6  UNL     1      -8.846  69.730   5.376  1.00  0.00     0.137 C 
HETATM   19  C7  UNL     1      -7.569  70.132   4.681  1.00  0.00     0.021 C 
HETATM   20  C8  UNL     1      -6.797  71.051   5.605  1.00  0.00     0.002 C 
HETATM   21  C9  UNL     1      -7.653  72.239   5.901  1.00  0.00     0.002 C 
HETATM   22  C10 UNL     1      -8.457  72.065   7.172  1.00  0.00     0.021 C 
HETATM   23  C11 UNL     1      -9.759  71.378   6.869  1.00  0.00     0.137 C 
ENDBRANCH  14  17
ENDBRANCH   9  14
TORSDOF 2
ENDMDL
MODEL 2
REMARK VINA RESULT: -7.456673446      1.634      1.918
REMARK  2 active torsions:
REMARK  status: ('A' for Active; 'I' for Inactive)
REMARK    1  A    between atoms: N2_9  and  S1_10 
REMARK    2  A    between atoms: S1_10  and  N3_13 
ROOT
HETATM    1  O1  UNL     1     -13.843  71.597  -1.936  1.00  0.00    -0.247 OA
HETATM    2  C1  UNL     1     -12.729  71.145  -1.518  1.00  0.00     0.316 C 
HETATM    3  N1  UNL     1     -11.629  70.851  -2.337  1.00  0.00    -0.341 N 
ATOM      4  H1  UNL     1     -11.612  70.972  -3.350  1.00  0.00     0.164 HD
HETATM    5  C2  UNL     1     -10.526  70.352  -1.549  1.00  0.00     0.156 C 
HETATM    6  C3  UNL     1     -10.946  70.561  -0.098  1.00  0.00     0.059 C 
HETATM    7  C4  UNL     1     -10.694  69.280   0.629  1.00  0.00     0.079 C 
HETATM    8  C5  UNL     1     -10.292  69.423   2.051  1.00  0.00     0.085 C 
HETATM    9  N2  UNL     1     -10.415  70.683   2.629  1.00  0.00    -0.253 N 
HETATM   10  C12 UNL     1     -10.151  71.847   1.903  1.00  0.00     0.085 C 
HETATM   11  C13 UNL     1     -10.145  71.725   0.421  1.00  0.00     0.079 C 
HETATM   12  N4  UNL     1     -12.350  70.843  -0.183  1.00  0.00    -0.332 N 
ATOM     13  H4  UNL     1     -12.991  70.828   0.610  1.00  0.00     0.165 HD
ENDROOT
BRANCH   9  14
HETATM   14  S1  UNL     1     -10.929  70.808   4.219  1.00  0.00     0.326 S 
HETATM   15  O2  UNL     1     -11.802  72.002   4.483  1.00  0.00    -0.182 OA
HETATM   16  O3  UNL     1     -11.774  69.596   4.571  1.00  0.00    -0.182 OA
BRANCH  14  17
HETATM   17  N3  UNL     1      -9.571  70.927   5.266  1.00  0.00    -0.294 N 
HETATM   18  C6  UNL     1      -8.626  69.886   5.102  1.00  0.00     0.137 C 
HETATM   19  C7  UNL     1      -7.226  70.364   4.804  1.00  0.00     0.021 C 
HETATM   20  C8  UNL     1      -6.703  71.085   6.029  1.00  0.00     0.002 C 
HETATM   21  C9  UNL     1      -7.618  72.228   6.323  1.00  0.00     0.002 C 
HETATM   22  C10 UNL     1      -8.694  71.860   7.322  1.00  0.00     0.021 C 
HETATM   23  C11 UNL     1      -9.881  71.276   6.610  1.00  0.00     0.137 C 
ENDBRANCH  14  17
ENDBRANCH   9  14
TORSDOF 2
ENDMDL
MODEL 3
REMARK VINA RESULT: -7.419834236      1.723      2.271
REMARK  2 active torsions:
REMARK  status: ('A' for Active; 'I' for Inactive)
REMARK    1  A    between atoms: N2_9  and  S1_10 
REMARK    2  A    between atoms: S1_10  and  N3_13 
ROOT
HETATM    1  O1  UNL     1      -8.301  72.620  -1.222  1.00  0.00    -0.247 OA
HETATM    2  C1  UNL     1      -9.282  71.871  -0.906  1.00  0.00     0.316 C 
HETATM    3  N1  UNL     1      -9.918  70.978  -1.780  1.00  0.00    -0.341 N 
ATOM      4  H1  UNL     1      -9.657  70.837  -2.756  1.00  0.00     0.164 HD
HETATM    5  C2  UNL     1     -10.994  70.286  -1.107  1.00  0.00     0.156 C 
HETATM    6  C3  UNL     1     -10.849  70.661   0.364  1.00  0.00     0.059 C 
HETATM    7  C4  UNL     1     -12.198  71.079   0.852  1.00  0.00     0.079 C 
HETATM    8  C5  UNL     1     -12.491  70.755   2.272  1.00  0.00     0.085 C 
HETATM    9  N2  UNL     1     -11.430  70.322   3.062  1.00  0.00    -0.253 N 
HETATM   10  C12 UNL     1     -10.424  69.502   2.547  1.00  0.00     0.085 C 
HETATM   11  C13 UNL     1     -10.293  69.452   1.066  1.00  0.00     0.079 C 
HETATM   12  N4  UNL     1      -9.937  71.767   0.350  1.00  0.00    -0.332 N 
ATOM     13  H4  UNL     1      -9.779  72.396   1.138  1.00  0.00     0.165 HD
ENDROOT
BRANCH   9  14
HETATM   14  S1  UNL     1     -11.339  70.829   4.657  1.00  0.00     0.326 S 
HETATM   15  O2  UNL     1     -12.175  72.039   4.958  1.00  0.00    -0.182 OA
HETATM   16  O3  UNL     1     -11.864  69.730   5.564  1.00  0.00    -0.182 OA
BRANCH  14  17
HETATM   17  N3  UNL     1      -9.712  71.219   5.055  1.00  0.00    -0.294 N 
HETATM   18  C6  UNL     1      -9.489  71.408   6.440  1.00  0.00     0.137 C 
HETATM   19  C7  UNL     1      -8.406  70.529   7.015  1.00  0.00     0.021 C 
HETATM   20  C8  UNL     1      -7.083  70.955   6.414  1.00  0.00     0.002 C 
HETATM   21  C9  UNL     1      -7.176  70.804   4.930  1.00  0.00     0.002 C 
HETATM   22  C10 UNL     1      -7.600  72.088   4.248  1.00  0.00     0.021 C 
HETATM   23  C11 UNL     1      -9.100  72.171   4.193  1.00  0.00     0.137 C 
ENDBRANCH  14  17
ENDBRANCH   9  14
TORSDOF 2
ENDMDL
MODEL 4
REMARK VINA RESULT: -7.400545462      3.741      5.487
REMARK  2 active torsions:
REMARK  status: ('A' for Active; 'I' for Inactive)
REMARK    1  A    between atoms: N2_9  and  S1_10 
REMARK    2  A    between atoms: S1_10  and  N3_13 
ROOT
HETATM    1  O1  UNL     1     -12.611  64.720   5.890  1.00  0.00    -0.247 OA
HETATM    2  C1  UNL     1     -13.439  65.686   5.946  1.00  0.00     0.316 C 
HETATM    3  N1  UNL     1     -14.671  65.642   6.615  1.00  0.00    -0.341 N 
ATOM      4  H1  UNL     1     -15.025  64.834   7.127  1.00  0.00     0.164 HD
HETATM    5  C2  UNL     1     -15.368  66.901   6.480  1.00  0.00     0.156 C 
HETATM    6  C3  UNL     1     -14.361  67.847   5.837  1.00  0.00     0.059 C 
HETATM    7  C4  UNL     1     -15.050  68.527   4.699  1.00  0.00     0.079 C 
HETATM    8  C5  UNL     1     -14.620  69.924   4.436  1.00  0.00     0.085 C 
HETATM    9  N2  UNL     1     -13.483  70.380   5.095  1.00  0.00    -0.253 N 
HETATM   10  C12 UNL     1     -13.196  69.995   6.407  1.00  0.00     0.085 C 
HETATM   11  C13 UNL     1     -13.897  68.786   6.918  1.00  0.00     0.079 C 
HETATM   12  N4  UNL     1     -13.320  66.978   5.369  1.00  0.00    -0.332 N 
ATOM     13  H4  UNL     1     -12.592  67.251   4.709  1.00  0.00     0.165 HD
ENDROOT
BRANCH   9  14
HETATM   14  S1  UNL     1     -12.412  71.382   4.283  1.00  0.00     0.326 S 
HETATM   15  O2  UNL     1     -12.510  71.290   2.787  1.00  0.00    -0.182 OA
HETATM   16  O3  UNL     1     -12.719  72.829   4.627  1.00  0.00    -0.182 OA
BRANCH  14  17
HETATM   17  N3  UNL     1     -10.796  70.983   4.714  1.00  0.00    -0.294 N 
HETATM   18  C6  UNL     1     -10.121  72.007   5.422  1.00  0.00     0.137 C 
HETATM   19  C7  UNL     1      -9.566  71.571   6.755  1.00  0.00     0.021 C 
HETATM   20  C8  UNL     1      -8.458  70.570   6.501  1.00  0.00     0.002 C 
HETATM   21  C9  UNL     1      -9.037  69.416   5.749  1.00  0.00     0.002 C 
HETATM   22  C10 UNL     1      -8.883  69.572   4.250  1.00  0.00     0.021 C 
HETATM   23  C11 UNL     1     -10.047  70.341   3.690  1.00  0.00     0.137 C 
ENDBRANCH  14  17
ENDBRANCH   9  14
TORSDOF 2
ENDMDL
MODEL 5
REMARK VINA RESULT: -7.389173392      3.188      5.079
REMARK  2 active torsions:
REMARK  status: ('A' for Active; 'I' for Inactive)
REMARK    1  A    between atoms: N2_9  and  S1_10 
REMARK    2  A    between atoms: S1_10  and  N3_13 
ROOT
HETATM    1  O1  UNL     1     -15.703  71.031   7.566  1.00  0.00    -0.247 OA
HETATM    2  C1  UNL     1     -15.053  70.391   6.676  1.00  0.00     0.316 C 
HETATM    3  N1  UNL     1     -15.499  69.216   6.055  1.00  0.00    -0.341 N 
ATOM      4  H1  UNL     1     -16.389  68.757   6.251  1.00  0.00     0.164 HD
HETATM    5  C2  UNL     1     -14.523  68.745   5.098  1.00  0.00     0.156 C 
HETATM    6  C3  UNL     1     -13.490  69.862   5.001  1.00  0.00     0.059 C 
HETATM    7  C4  UNL     1     -12.140  69.233   5.129  1.00  0.00     0.079 C 
HETATM    8  C5  UNL     1     -11.057  69.886   4.351  1.00  0.00     0.085 C 
HETATM    9  N2  UNL     1     -11.333  71.125   3.781  1.00  0.00    -0.253 N 
HETATM   10  C12 UNL     1     -12.592  71.420   3.253  1.00  0.00     0.085 C 
HETATM   11  C13 UNL     1     -13.720  70.550   3.683  1.00  0.00     0.079 C 
HETATM   12  N4  UNL     1     -13.781  70.700   6.127  1.00  0.00    -0.332 N 
ATOM     13  H4  UNL     1     -13.157  71.423   6.486  1.00  0.00     0.165 HD
ENDROOT
BRANCH   9  14
HETATM   14  S1  UNL     1     -10.141  72.303   3.764  1.00  0.00     0.326 S 
HETATM   15  O2  UNL     1      -9.474  72.472   2.429  1.00  0.00    -0.182 OA
HETATM   16  O3  UNL     1     -10.762  73.650   4.088  1.00  0.00    -0.182 OA
BRANCH  14  17
HETATM   17  N3  UNL     1      -8.914  71.909   4.902  1.00  0.00    -0.294 N 
HETATM   18  C6  UNL     1      -9.128  72.455   6.190  1.00  0.00     0.137 C 
HETATM   19  C7  UNL     1      -9.143  71.431   7.299  1.00  0.00     0.021 C 
HETATM   20  C8  UNL     1      -7.750  70.850   7.423  1.00  0.00     0.002 C 
HETATM   21  C9  UNL     1      -7.386  70.229   6.113  1.00  0.00     0.002 C 
HETATM   22  C10 UNL     1      -6.624  71.183   5.217  1.00  0.00     0.021 C 
HETATM   23  C11 UNL     1      -7.585  72.004   4.403  1.00  0.00     0.137 C 
ENDBRANCH  14  17
ENDBRANCH   9  14
TORSDOF 2
ENDMDL
