MODEL 1
REMARK VINA RESULT: -8.235028051      0.000      0.000
REMARK  2 active torsions:
REMARK  status: ('A' for Active; 'I' for Inactive)
REMARK       I    between atoms: N2_7  and  C4_9 
REMARK    1  A    between atoms: C4_9  and  C5_11 
REMARK    2  A    between atoms: C5_11  and  N3_12 
ROOT
HETATM    1  N3  UNL     1     -10.042  71.038   3.449  1.00  0.00    -0.259 N 
HETATM    2  C6  UNL     1      -9.477  72.358   3.302  1.00  0.00     0.326 C 
HETATM    3  O3  UNL     1     -10.154  73.350   2.916  1.00  0.00    -0.247 OA
HETATM    4  N4  UNL     1      -8.098  72.324   3.654  1.00  0.00    -0.323 N 
ATOM      5  H4  UNL     1      -7.381  73.011   3.420  1.00  0.00     0.165 HD
HETATM    6  C7  UNL     1      -7.932  71.115   4.407  1.00  0.00     0.127 A 
HETATM    7  C8  UNL     1      -8.965  70.226   3.894  1.00  0.00     0.258 C 
HETATM    8  O4  UNL     1      -8.940  68.953   3.842  1.00  0.00    -0.270 OA
HETATM    9  C9  UNL     1      -6.712  70.709   5.063  1.00  0.00     0.031 A 
HETATM   10  C10 UNL     1      -5.501  71.612   5.054  1.00  0.00     0.014 C 
HETATM   11  C11 UNL     1      -7.841  71.186   5.916  1.00  0.00    -0.007 A 
HETATM   12  C12 UNL     1      -7.850  72.596   6.454  1.00  0.00     0.018 C 
HETATM   13  C13 UNL     1      -8.656  70.193   6.708  1.00  0.00     0.018 C 
ENDROOT
BRANCH   1  14
HETATM   14  C5  UNL     1     -11.421  70.653   3.187  1.00  0.00     0.240 C 
BRANCH  14  15
HETATM   15  C4  UNL     1     -12.239  71.030   4.348  1.00  0.00     0.242 C 
HETATM   16  N2  UNL     1     -13.615  71.281   4.194  1.00  0.00    -0.304 N 
HETATM   17  C3  UNL     1     -14.387  71.083   5.211  1.00  0.00     0.180 A 
ATOM     18  H2  UNL     1     -13.992  71.611   3.306  1.00  0.00     0.171 HD
HETATM   19  O1  UNL     1     -14.085  70.667   6.418  1.00  0.00    -0.219 OA
HETATM   20  C14 UNL     1     -15.743  71.293   5.180  1.00  0.00     0.015 A 
HETATM   21  N1  UNL     1     -15.139  70.596   7.158  1.00  0.00    -0.263 N 
HETATM   22  C2  UNL     1     -16.210  70.976   6.438  1.00  0.00     0.039 A 
ATOM     23  H1  UNL     1     -15.158  70.298   8.134  1.00  0.00     0.194 HD
HETATM   24  C1  UNL     1     -17.639  71.064   6.837  1.00  0.00     0.071 C 
HETATM   25  C15 UNL     1     -16.536  71.768   4.015  1.00  0.00     0.055 C 
HETATM   26  O2  UNL     1     -11.702  71.125   5.468  1.00  0.00    -0.271 OA
ENDBRANCH  14  15
ENDBRANCH   1  14
TORSDOF 2
ENDMDL
MODEL 2
REMARK VINA RESULT: -8.130606661      4.023      5.924
REMARK  2 active torsions:
REMARK  status: ('A' for Active; 'I' for Inactive)
REMARK       I    between atoms: N2_7  and  C4_9 
REMARK    1  A    between atoms: C4_9  and  C5_11 
REMARK    2  A    between atoms: C5_11  and  N3_12 
ROOT
HETATM    1  N3  UNL     1     -10.623  71.038   2.708  1.00  0.00    -0.259 N 
HETATM    2  C6  UNL     1      -9.562  72.009   2.578  1.00  0.00     0.326 C 
HETATM    3  O3  UNL     1      -9.603  72.954   1.744  1.00  0.00    -0.247 OA
HETATM    4  N4  UNL     1      -8.531  71.712   3.514  1.00  0.00    -0.323 N 
ATOM      5  H4  UNL     1      -7.567  72.045   3.501  1.00  0.00     0.165 HD
HETATM    6  C7  UNL     1      -9.140  70.844   4.479  1.00  0.00     0.127 A 
HETATM    7  C8  UNL     1     -10.193  70.162   3.739  1.00  0.00     0.258 C 
HETATM    8  O4  UNL     1     -10.664  68.998   3.952  1.00  0.00    -0.270 OA
HETATM    9  C9  UNL     1      -8.500  70.363   5.681  1.00  0.00     0.031 A 
HETATM   10  C10 UNL     1      -7.109  70.827   6.044  1.00  0.00     0.014 C 
HETATM   11  C11 UNL     1      -9.562  71.403   5.821  1.00  0.00    -0.007 A 
HETATM   12  C12 UNL     1      -9.191  72.854   6.012  1.00  0.00     0.018 C 
HETATM   13  C13 UNL     1     -10.927  71.018   6.335  1.00  0.00     0.018 C 
ENDROOT
BRANCH   1  14
HETATM   14  C5  UNL     1     -11.853  70.991   1.931  1.00  0.00     0.240 C 
BRANCH  14  15
HETATM   15  C4  UNL     1     -11.542  70.453   0.599  1.00  0.00     0.242 C 
HETATM   16  N2  UNL     1     -12.329  70.810  -0.511  1.00  0.00    -0.304 N 
HETATM   17  C3  UNL     1     -11.778  70.792  -1.679  1.00  0.00     0.180 A 
ATOM     18  H2  UNL     1     -13.307  71.077  -0.397  1.00  0.00     0.171 HD
HETATM   19  O1  UNL     1     -10.549  70.479  -2.016  1.00  0.00    -0.219 OA
HETATM   20  C14 UNL     1     -12.444  71.120  -2.833  1.00  0.00     0.015 A 
HETATM   21  N1  UNL     1     -10.379  70.582  -3.290  1.00  0.00    -0.263 N 
HETATM   22  C2  UNL     1     -11.532  70.980  -3.858  1.00  0.00     0.039 A 
ATOM     23  H1  UNL     1      -9.509  70.392  -3.789  1.00  0.00     0.194 HD
HETATM   24  C1  UNL     1     -11.846  71.240  -5.287  1.00  0.00     0.071 C 
HETATM   25  C15 UNL     1     -13.866  71.541  -2.941  1.00  0.00     0.055 C 
HETATM   26  O2  UNL     1     -10.577  69.678   0.463  1.00  0.00    -0.271 OA
ENDBRANCH  14  15
ENDBRANCH   1  14
TORSDOF 2
ENDMDL
MODEL 3
REMARK VINA RESULT: -8.116764697      1.716      7.534
REMARK  2 active torsions:
REMARK  status: ('A' for Active; 'I' for Inactive)
REMARK       I    between atoms: N2_7  and  C4_9 
REMARK    1  A    between atoms: C4_9  and  C5_11 
REMARK    2  A    between atoms: C5_11  and  N3_12 
ROOT
HETATM    1  N3  UNL     1     -13.753  69.162   5.807  1.00  0.00    -0.259 N 
HETATM    2  C6  UNL     1     -13.952  70.167   6.823  1.00  0.00     0.326 C 
HETATM    3  O3  UNL     1     -12.997  70.683   7.467  1.00  0.00    -0.247 OA
HETATM    4  N4  UNL     1     -15.342  70.446   6.948  1.00  0.00    -0.323 N 
ATOM      5  H4  UNL     1     -15.815  70.906   7.726  1.00  0.00     0.165 HD
HETATM    6  C7  UNL     1     -15.935  69.941   5.744  1.00  0.00     0.127 A 
HETATM    7  C8  UNL     1     -15.057  68.853   5.337  1.00  0.00     0.258 C 
HETATM    8  O4  UNL     1     -15.368  67.806   4.681  1.00  0.00    -0.270 OA
HETATM    9  C9  UNL     1     -17.324  70.093   5.378  1.00  0.00     0.031 A 
HETATM   10  C10 UNL     1     -18.262  70.893   6.251  1.00  0.00     0.014 C 
HETATM   11  C11 UNL     1     -16.312  70.905   4.640  1.00  0.00    -0.007 A 
HETATM   12  C12 UNL     1     -16.083  72.353   5.000  1.00  0.00     0.018 C 
HETATM   13  C13 UNL     1     -15.931  70.528   3.229  1.00  0.00     0.018 C 
ENDROOT
BRANCH   1  14
HETATM   14  C5  UNL     1     -12.479  68.601   5.382  1.00  0.00     0.240 C 
BRANCH  14  15
HETATM   15  C4  UNL     1     -11.593  69.706   4.987  1.00  0.00     0.242 C 
HETATM   16  N2  UNL     1     -10.429  69.980   5.728  1.00  0.00    -0.304 N 
HETATM   17  C3  UNL     1      -9.438  70.540   5.119  1.00  0.00     0.180 A 
ATOM     18  H2  UNL     1     -10.370  69.744   6.719  1.00  0.00     0.171 HD
HETATM   19  O1  UNL     1      -9.333  70.913   3.865  1.00  0.00    -0.219 OA
HETATM   20  C14 UNL     1      -8.253  70.855   5.736  1.00  0.00     0.015 A 
HETATM   21  N1  UNL     1      -8.178  71.439   3.635  1.00  0.00    -0.263 N 
HETATM   22  C2  UNL     1      -7.456  71.432   4.769  1.00  0.00     0.039 A 
ATOM     23  H1  UNL     1      -7.863  71.804   2.735  1.00  0.00     0.194 HD
HETATM   24  C1  UNL     1      -6.076  71.922   5.019  1.00  0.00     0.071 C 
HETATM   25  C15 UNL     1      -7.912  70.616   7.164  1.00  0.00     0.055 C 
HETATM   26  O2  UNL     1     -11.884  70.396   3.993  1.00  0.00    -0.271 OA
ENDBRANCH  14  15
ENDBRANCH   1  14
TORSDOF 2
ENDMDL
MODEL 4
REMARK VINA RESULT: -8.074563308      2.089      7.826
REMARK  2 active torsions:
REMARK  status: ('A' for Active; 'I' for Inactive)
REMARK       I    between atoms: N2_7  and  C4_9 
REMARK    1  A    between atoms: C4_9  and  C5_11 
REMARK    2  A    between atoms: C5_11  and  N3_12 
ROOT
HETATM    1  N3  UNL     1     -15.602  70.580   5.377  1.00  0.00    -0.259 N 
HETATM    2  C6  UNL     1     -15.277  71.344   4.196  1.00  0.00     0.326 C 
HETATM    3  O3  UNL     1     -14.306  71.056   3.444  1.00  0.00    -0.247 OA
HETATM    4  N4  UNL     1     -16.206  72.414   4.054  1.00  0.00    -0.323 N 
ATOM      5  H4  UNL     1     -16.102  73.254   3.486  1.00  0.00     0.165 HD
HETATM    6  C7  UNL     1     -17.320  72.055   4.881  1.00  0.00     0.127 A 
HETATM    7  C8  UNL     1     -16.741  71.224   5.928  1.00  0.00     0.258 C 
HETATM    8  O4  UNL     1     -17.154  71.079   7.124  1.00  0.00    -0.270 OA
HETATM    9  C9  UNL     1     -18.556  72.796   4.974  1.00  0.00     0.031 A 
HETATM   10  C10 UNL     1     -18.786  74.012   4.107  1.00  0.00     0.014 C 
HETATM   11  C11 UNL     1     -18.572  71.494   4.242  1.00  0.00    -0.007 A 
HETATM   12  C12 UNL     1     -18.516  71.464   2.733  1.00  0.00     0.018 C 
HETATM   13  C13 UNL     1     -19.196  70.279   4.883  1.00  0.00     0.018 C 
ENDROOT
BRANCH   1  14
HETATM   14  C5  UNL     1     -14.892  69.410   5.872  1.00  0.00     0.240 C 
BRANCH  14  15
HETATM   15  C4  UNL     1     -13.535  69.819   6.261  1.00  0.00     0.242 C 
HETATM   16  N2  UNL     1     -12.424  69.394   5.509  1.00  0.00    -0.304 N 
HETATM   17  C3  UNL     1     -11.368  70.138   5.510  1.00  0.00     0.180 A 
ATOM     18  H2  UNL     1     -12.451  68.523   4.979  1.00  0.00     0.171 HD
HETATM   19  O1  UNL     1     -11.151  71.276   6.125  1.00  0.00    -0.219 OA
HETATM   20  C14 UNL     1     -10.226  69.827   4.815  1.00  0.00     0.015 A 
HETATM   21  N1  UNL     1      -9.964  71.715   5.878  1.00  0.00    -0.263 N 
HETATM   22  C2  UNL     1      -9.335  70.851   5.063  1.00  0.00     0.039 A 
ATOM     23  H1  UNL     1      -9.566  72.581   6.243  1.00  0.00     0.194 HD
HETATM   24  C1  UNL     1      -7.963  70.907   4.496  1.00  0.00     0.071 C 
HETATM   25  C15 UNL     1     -10.008  68.625   3.969  1.00  0.00     0.055 C 
HETATM   26  O2  UNL     1     -13.378  70.543   7.262  1.00  0.00    -0.271 OA
ENDBRANCH  14  15
ENDBRANCH   1  14
TORSDOF 2
ENDMDL
MODEL 5
REMARK VINA RESULT: -8.055894482      2.383      4.031
REMARK  2 active torsions:
REMARK  status: ('A' for Active; 'I' for Inactive)
REMARK       I    between atoms: N2_7  and  C4_9 
REMARK    1  A    between atoms: C4_9  and  C5_11 
REMARK    2  A    between atoms: C5_11  and  N3_12 
ROOT
HETATM    1  N3  UNL     1     -13.043  68.927   5.095  1.00  0.00    -0.259 N 
HETATM    2  C6  UNL     1     -12.044  67.925   5.381  1.00  0.00     0.326 C 
HETATM    3  O3  UNL     1     -12.330  66.710   5.564  1.00  0.00    -0.247 OA
HETATM    4  N4  UNL     1     -10.757  68.535   5.412  1.00  0.00    -0.323 N 
ATOM      5  H4  UNL     1      -9.904  68.160   5.825  1.00  0.00     0.165 HD
HETATM    6  C7  UNL     1     -10.921  69.790   4.739  1.00  0.00     0.127 A 
HETATM    7  C8  UNL     1     -12.317  70.140   4.961  1.00  0.00     0.258 C 
HETATM    8  O4  UNL     1     -12.826  71.306   5.026  1.00  0.00    -0.270 OA
HETATM    9  C9  UNL     1      -9.853  70.713   4.437  1.00  0.00     0.031 A 
HETATM   10  C10 UNL     1      -8.421  70.360   4.765  1.00  0.00     0.014 C 
HETATM   11  C11 UNL     1     -10.446  69.934   3.309  1.00  0.00    -0.007 A 
HETATM   12  C12 UNL     1      -9.749  68.704   2.779  1.00  0.00     0.018 C 
HETATM   13  C13 UNL     1     -11.375  70.614   2.334  1.00  0.00     0.018 C 
ENDROOT
BRANCH   1  14
HETATM   14  C5  UNL     1     -14.478  68.710   4.981  1.00  0.00     0.240 C 
BRANCH  14  15
HETATM   15  C4  UNL     1     -15.168  69.725   5.788  1.00  0.00     0.242 C 
HETATM   16  N2  UNL     1     -15.928  70.731   5.163  1.00  0.00    -0.304 N 
HETATM   17  C3  UNL     1     -16.911  71.249   5.823  1.00  0.00     0.180 A 
ATOM     18  H2  UNL     1     -15.711  71.041   4.216  1.00  0.00     0.171 HD
HETATM   19  O1  UNL     1     -17.334  70.981   7.035  1.00  0.00    -0.219 OA
HETATM   20  C14 UNL     1     -17.721  72.235   5.317  1.00  0.00     0.015 A 
HETATM   21  N1  UNL     1     -18.349  71.716   7.342  1.00  0.00    -0.263 N 
HETATM   22  C2  UNL     1     -18.639  72.522   6.306  1.00  0.00     0.039 A 
ATOM     23  H1  UNL     1     -18.852  71.689   8.230  1.00  0.00     0.194 HD
HETATM   24  C1  UNL     1     -19.710  73.543   6.168  1.00  0.00     0.071 C 
HETATM   25  C15 UNL     1     -17.619  72.858   3.971  1.00  0.00     0.055 C 
HETATM   26  O2  UNL     1     -15.072  69.688   7.029  1.00  0.00    -0.271 OA
ENDBRANCH  14  15
ENDBRANCH   1  14
TORSDOF 2
ENDMDL
