MODEL 1
REMARK VINA RESULT: -7.375601315      0.000      0.000
REMARK  2 active torsions:
REMARK  status: ('A' for Active; 'I' for Inactive)
REMARK    1  A    between atoms: C4_6  and  S1_7 
REMARK    2  A    between atoms: S1_7  and  N2_10 
ROOT
HETATM    1  C1  UNL     1     -14.201  65.273   5.975  1.00  0.00     0.019 C 
HETATM    2  C2  UNL     1     -13.749  66.371   5.757  1.00  0.00    -0.059 C 
HETATM    3  C3  UNL     1     -13.215  67.707   5.514  1.00  0.00     0.093 A 
HETATM    4  N1  UNL     1     -11.939  68.027   5.250  1.00  0.00    -0.338 N 
ATOM      5  H1  UNL     1     -11.181  67.347   5.190  1.00  0.00     0.167 HD
HETATM    6  C4  UNL     1     -11.776  69.359   5.073  1.00  0.00     0.150 A 
HETATM    7  C12 UNL     1     -13.046  69.884   5.243  1.00  0.00     0.053 A 
HETATM    8  C13 UNL     1     -13.945  68.875   5.517  1.00  0.00    -0.024 A 
HETATM    9  C14 UNL     1     -15.399  68.948   5.769  1.00  0.00     0.051 C 
ENDROOT
BRANCH   6  10
HETATM   10  S1  UNL     1     -10.277  70.204   4.723  1.00  0.00     0.279 S 
HETATM   11  O1  UNL     1      -9.197  69.177   4.569  1.00  0.00    -0.199 OA
HETATM   12  O2  UNL     1      -9.933  70.950   6.010  1.00  0.00    -0.199 OA
BRANCH  10  13
HETATM   13  N2  UNL     1     -10.427  71.290   3.483  1.00  0.00    -0.260 N 
HETATM   14  C5  UNL     1      -9.620  72.447   3.479  1.00  0.00     0.112 C 
HETATM   15  C6  UNL     1     -10.108  73.542   4.406  1.00  0.00     0.064 C 
HETATM   16  C7  UNL     1      -8.142  72.190   3.768  1.00  0.00     0.064 C 
HETATM   17  N3  UNL     1      -9.660  72.893   2.096  1.00  0.00    -0.332 N 
HETATM   18  C8  UNL     1      -9.912  71.739   1.318  1.00  0.00     0.248 C 
ATOM     19  H3  UNL     1      -9.533  73.846   1.756  1.00  0.00     0.165 HD
HETATM   20  O3  UNL     1      -9.536  71.507   0.118  1.00  0.00    -0.271 OA
HETATM   21  C9  UNL     1     -10.714  70.830   2.181  1.00  0.00     0.119 C 
HETATM   22  C10 UNL     1     -10.344  69.431   1.861  1.00  0.00     0.049 C 
HETATM   23  C11 UNL     1     -12.173  71.040   1.775  1.00  0.00     0.049 C 
ENDBRANCH  10  13
ENDBRANCH   6  10
TORSDOF 2
ENDMDL
MODEL 2
REMARK VINA RESULT: -7.358382841      0.693      1.670
REMARK  2 active torsions:
REMARK  status: ('A' for Active; 'I' for Inactive)
REMARK    1  A    between atoms: C4_6  and  S1_7 
REMARK    2  A    between atoms: S1_7  and  N2_10 
ROOT
HETATM    1  C1  UNL     1     -16.768  69.608   5.521  1.00  0.00     0.019 C 
HETATM    2  C2  UNL     1     -15.588  69.367   5.438  1.00  0.00    -0.059 C 
HETATM    3  C3  UNL     1     -14.167  69.054   5.325  1.00  0.00     0.093 A 
HETATM    4  N1  UNL     1     -13.178  69.909   5.024  1.00  0.00    -0.338 N 
ATOM      5  H1  UNL     1     -13.320  70.901   4.834  1.00  0.00     0.167 HD
HETATM    6  C4  UNL     1     -11.970  69.299   5.000  1.00  0.00     0.150 A 
HETATM    7  C12 UNL     1     -12.249  67.978   5.308  1.00  0.00     0.053 A 
HETATM    8  C13 UNL     1     -13.602  67.811   5.511  1.00  0.00    -0.024 A 
HETATM    9  C14 UNL     1     -14.363  66.594   5.859  1.00  0.00     0.051 C 
ENDROOT
BRANCH   6  10
HETATM   10  S1  UNL     1     -10.418  70.038   4.639  1.00  0.00     0.279 S 
HETATM   11  O1  UNL     1      -9.430  68.936   4.403  1.00  0.00    -0.199 OA
HETATM   12  O2  UNL     1      -9.978  70.693   5.946  1.00  0.00    -0.199 OA
BRANCH  10  13
HETATM   13  N2  UNL     1     -10.516  71.189   3.454  1.00  0.00    -0.260 N 
HETATM   14  C5  UNL     1      -9.699  72.335   3.539  1.00  0.00     0.112 C 
HETATM   15  C6  UNL     1     -10.208  73.385   4.506  1.00  0.00     0.064 C 
HETATM   16  C7  UNL     1      -8.234  72.048   3.863  1.00  0.00     0.064 C 
HETATM   17  N3  UNL     1      -9.688  72.854   2.181  1.00  0.00    -0.332 N 
HETATM   18  C8  UNL     1      -9.923  71.746   1.334  1.00  0.00     0.248 C 
ATOM     19  H3  UNL     1      -9.540  73.823   1.897  1.00  0.00     0.165 HD
HETATM   20  O3  UNL     1      -9.508  71.574   0.137  1.00  0.00    -0.271 OA
HETATM   21  C9  UNL     1     -10.763  70.801   2.120  1.00  0.00     0.119 C 
HETATM   22  C10 UNL     1     -10.394  69.417   1.739  1.00  0.00     0.049 C 
HETATM   23  C11 UNL     1     -12.204  71.048   1.678  1.00  0.00     0.049 C 
ENDBRANCH  10  13
ENDBRANCH   6  10
TORSDOF 2
ENDMDL
MODEL 3
REMARK VINA RESULT: -7.226561332      1.944      3.650
REMARK  2 active torsions:
REMARK  status: ('A' for Active; 'I' for Inactive)
REMARK    1  A    between atoms: C4_6  and  S1_7 
REMARK    2  A    between atoms: S1_7  and  N2_10 
ROOT
HETATM    1  C1  UNL     1     -15.107  69.359   7.066  1.00  0.00     0.019 C 
HETATM    2  C2  UNL     1     -14.088  69.153   6.453  1.00  0.00    -0.059 C 
HETATM    3  C3  UNL     1     -12.868  68.885   5.699  1.00  0.00     0.093 A 
HETATM    4  N1  UNL     1     -12.064  69.791   5.123  1.00  0.00    -0.338 N 
ATOM      5  H1  UNL     1     -12.227  70.798   5.151  1.00  0.00     0.167 HD
HETATM    6  C4  UNL     1     -11.012  69.213   4.499  1.00  0.00     0.150 A 
HETATM    7  C12 UNL     1     -11.192  67.856   4.711  1.00  0.00     0.053 A 
HETATM    8  C13 UNL     1     -12.336  67.639   5.450  1.00  0.00    -0.024 A 
HETATM    9  C14 UNL     1     -12.930  66.370   5.920  1.00  0.00     0.051 C 
ENDROOT
BRANCH   6  10
HETATM   10  S1  UNL     1      -9.730  70.023   3.612  1.00  0.00     0.279 S 
HETATM   11  O1  UNL     1     -10.249  70.339   2.242  1.00  0.00    -0.199 OA
HETATM   12  O2  UNL     1      -8.661  68.955   3.395  1.00  0.00    -0.199 OA
BRANCH  10  13
HETATM   13  N2  UNL     1      -9.075  71.293   4.450  1.00  0.00    -0.260 N 
HETATM   14  C5  UNL     1      -9.776  72.515   4.506  1.00  0.00     0.112 C 
HETATM   15  C6  UNL     1      -9.643  73.360   3.255  1.00  0.00     0.064 C 
HETATM   16  C7  UNL     1     -11.260  72.380   4.845  1.00  0.00     0.064 C 
HETATM   17  N3  UNL     1      -9.191  73.197   5.648  1.00  0.00    -0.332 N 
HETATM   18  C8  UNL     1      -8.702  72.183   6.504  1.00  0.00     0.248 C 
ATOM     19  H3  UNL     1      -9.143  74.205   5.801  1.00  0.00     0.165 HD
HETATM   20  O3  UNL     1      -8.595  72.218   7.777  1.00  0.00    -0.271 OA
HETATM   21  C9  UNL     1      -8.326  71.047   5.619  1.00  0.00     0.119 C 
HETATM   22  C10 UNL     1      -8.595  69.781   6.342  1.00  0.00     0.049 C 
HETATM   23  C11 UNL     1      -6.817  71.159   5.403  1.00  0.00     0.049 C 
ENDBRANCH  10  13
ENDBRANCH   6  10
TORSDOF 2
ENDMDL
MODEL 4
REMARK VINA RESULT: -7.145480798      2.933      5.390
REMARK  2 active torsions:
REMARK  status: ('A' for Active; 'I' for Inactive)
REMARK    1  A    between atoms: C4_6  and  S1_7 
REMARK    2  A    between atoms: S1_7  and  N2_10 
ROOT
HETATM    1  C1  UNL     1     -11.226  68.090  -1.176  1.00  0.00     0.019 C 
HETATM    2  C2  UNL     1     -10.866  69.092  -0.608  1.00  0.00    -0.059 C 
HETATM    3  C3  UNL     1     -10.448  70.317   0.068  1.00  0.00     0.093 A 
HETATM    4  N1  UNL     1     -10.175  70.462   1.373  1.00  0.00    -0.338 N 
ATOM      5  H1  UNL     1     -10.233  69.705   2.055  1.00  0.00     0.167 HD
HETATM    6  C4  UNL     1      -9.814  71.730   1.678  1.00  0.00     0.150 A 
HETATM    7  C12 UNL     1      -9.874  72.402   0.469  1.00  0.00     0.053 A 
HETATM    8  C13 UNL     1     -10.265  71.542  -0.535  1.00  0.00    -0.024 A 
HETATM    9  C14 UNL     1     -10.465  71.801  -1.975  1.00  0.00     0.051 C 
ENDROOT
BRANCH   6  10
HETATM   10  S1  UNL     1      -9.388  72.357   3.263  1.00  0.00     0.279 S 
HETATM   11  O1  UNL     1      -9.975  73.730   3.385  1.00  0.00    -0.199 OA
HETATM   12  O2  UNL     1      -7.877  72.574   3.210  1.00  0.00    -0.199 OA
BRANCH  10  13
HETATM   13  N2  UNL     1      -9.748  71.302   4.488  1.00  0.00    -0.260 N 
HETATM   14  C5  UNL     1      -9.068  71.419   5.718  1.00  0.00     0.112 C 
HETATM   15  C6  UNL     1      -7.673  70.825   5.709  1.00  0.00     0.064 C 
HETATM   16  C7  UNL     1      -8.985  72.842   6.265  1.00  0.00     0.064 C 
HETATM   17  N3  UNL     1      -9.920  70.705   6.653  1.00  0.00    -0.332 N 
HETATM   18  C8  UNL     1     -11.230  70.774   6.124  1.00  0.00     0.248 C 
ATOM     19  H3  UNL     1      -9.631  70.247   7.518  1.00  0.00     0.165 HD
HETATM   20  O3  UNL     1     -12.334  70.779   6.767  1.00  0.00    -0.271 OA
HETATM   21  C9  UNL     1     -11.070  70.839   4.645  1.00  0.00     0.119 C 
HETATM   22  C10 UNL     1     -12.155  71.686   4.094  1.00  0.00     0.049 C 
HETATM   23  C11 UNL     1     -11.274  69.413   4.134  1.00  0.00     0.049 C 
ENDBRANCH  10  13
ENDBRANCH   6  10
TORSDOF 2
ENDMDL
MODEL 5
REMARK VINA RESULT: -6.886667452      1.293      2.597
REMARK  2 active torsions:
REMARK  status: ('A' for Active; 'I' for Inactive)
REMARK    1  A    between atoms: C4_6  and  S1_7 
REMARK    2  A    between atoms: S1_7  and  N2_10 
ROOT
HETATM    1  C1  UNL     1     -12.760  64.880   6.048  1.00  0.00     0.019 C 
HETATM    2  C2  UNL     1     -12.826  66.070   5.858  1.00  0.00    -0.059 C 
HETATM    3  C3  UNL     1     -12.926  67.511   5.645  1.00  0.00     0.093 A 
HETATM    4  N1  UNL     1     -11.913  68.390   5.606  1.00  0.00    -0.338 N 
ATOM      5  H1  UNL     1     -10.932  68.135   5.725  1.00  0.00     0.167 HD
HETATM    6  C4  UNL     1     -12.346  69.653   5.389  1.00  0.00     0.150 A 
HETATM    7  C12 UNL     1     -13.722  69.531   5.292  1.00  0.00     0.053 A 
HETATM    8  C13 UNL     1     -14.095  68.213   5.448  1.00  0.00    -0.024 A 
HETATM    9  C14 UNL     1     -15.439  67.603   5.422  1.00  0.00     0.051 C 
ENDROOT
BRANCH   6  10
HETATM   10  S1  UNL     1     -11.362  71.104   5.279  1.00  0.00     0.279 S 
HETATM   11  O1  UNL     1     -10.725  71.329   6.617  1.00  0.00    -0.199 OA
HETATM   12  O2  UNL     1     -12.360  72.249   5.118  1.00  0.00    -0.199 OA
BRANCH  10  13
HETATM   13  N2  UNL     1     -10.334  71.085   3.981  1.00  0.00    -0.260 N 
HETATM   14  C5  UNL     1     -10.750  70.467   2.783  1.00  0.00     0.112 C 
HETATM   15  C6  UNL     1     -10.645  68.955   2.802  1.00  0.00     0.064 C 
HETATM   16  C7  UNL     1     -12.157  70.850   2.327  1.00  0.00     0.064 C 
HETATM   17  N3  UNL     1      -9.863  71.028   1.778  1.00  0.00    -0.332 N 
HETATM   18  C8  UNL     1      -9.465  72.294   2.267  1.00  0.00     0.248 C 
ATOM     19  H3  UNL     1      -9.585  70.596   0.897  1.00  0.00     0.165 HD
HETATM   20  O3  UNL     1      -9.153  73.332   1.590  1.00  0.00    -0.271 OA
HETATM   21  C9  UNL     1      -9.477  72.181   3.751  1.00  0.00     0.119 C 
HETATM   22  C10 UNL     1      -9.884  73.489   4.317  1.00  0.00     0.049 C 
HETATM   23  C11 UNL     1      -8.031  71.913   4.167  1.00  0.00     0.049 C 
ENDBRANCH  10  13
ENDBRANCH   6  10
TORSDOF 2
ENDMDL
