MODEL 1
REMARK VINA RESULT: -5.950704602      0.000      0.000
REMARK  9 active torsions:
REMARK  status: ('A' for Active; 'I' for Inactive)
REMARK    1  A    between atoms: N1_1  and  N2_4 
REMARK    2  A    between atoms: N2_4  and  C1_5 
REMARK       I    between atoms: N5_13  and  C5_15 
REMARK    3  A    between atoms: C5_15  and  C6_17 
REMARK    4  A    between atoms: C6_17  and  O2_18 
REMARK    5  A    between atoms: O2_18  and  N6_19 
REMARK    6  A    between atoms: C7_24  and  N8_25 
REMARK    7  A    between atoms: N8_25  and  O5_27 
REMARK    8  A    between atoms: C9_30  and  O6_31 
REMARK    9  A    between atoms: C10_33  and  O7_34 
ROOT
HETATM    1  C1  UNL     1     -23.773  13.971  16.081  1.00  0.00     0.223 C 
HETATM    2  N3  UNL     1     -23.006  13.515  17.184  1.00  0.00    -0.396 N 
ATOM      3  H3  UNL     1     -22.105  13.053  17.065  1.00  0.00     0.155 HD
HETATM    4  C2  UNL     1     -23.578  13.747  18.472  1.00  0.00     0.174 C 
HETATM    5  C3  UNL     1     -23.278  15.172  18.838  1.00  0.00     0.056 A 
HETATM    6  N4  UNL     1     -22.634  15.286  20.025  1.00  0.00    -0.193 N 
ATOM      7  H4  UNL     1     -22.402  14.456  20.570  1.00  0.00     0.184 HD
HETATM    8  C4  UNL     1     -22.307  16.504  20.469  1.00  0.00     0.686 A 
HETATM    9  N5  UNL     1     -21.713  16.692  21.550  1.00  0.00    -0.158 N 
ATOM     10  H5  UNL     1     -21.573  17.694  21.676  1.00  0.00     0.187 HD
HETATM   11  C5  UNL     1     -21.188  16.044  22.614  1.00  0.00     0.262 C 
HETATM   12  O1  UNL     1     -20.699  16.745  23.571  1.00  0.00    -0.270 OA
HETATM   13  N7  UNL     1     -22.626  17.622  19.724  1.00  0.00    -0.174 N 
ATOM     14  H7  UNL     1     -22.368  18.542  20.080  1.00  0.00     0.186 HD
HETATM   15  C7  UNL     1     -23.258  17.541  18.559  1.00  0.00     0.151 A 
HETATM   16  C8  UNL     1     -23.604  16.280  18.084  1.00  0.00     0.044 A 
HETATM   17  C9  UNL     1     -24.305  16.326  16.772  1.00  0.00     0.189 C 
HETATM   18  C10 UNL     1     -23.629  15.433  15.771  1.00  0.00     0.191 C 
ENDROOT
BRANCH  11  19
HETATM   19  C6  UNL     1     -21.134  14.572  22.760  1.00  0.00     0.311 C 
BRANCH  19  20
HETATM   20  O2  UNL     1     -19.968  14.040  22.109  1.00  0.00    -0.212 OA
BRANCH  20  21
HETATM   21  N6  UNL     1     -20.190  13.253  21.010  1.00  0.00     0.005 N 
HETATM   22  O3  UNL     1     -21.276  12.651  20.903  1.00  0.00    -0.511 OA
HETATM   23  O4  UNL     1     -19.278  13.091  20.013  1.00  0.00    -0.511 OA
ENDBRANCH  20  21
ENDBRANCH  19  20
ENDBRANCH  11  19
BRANCH  15  24
HETATM   24  N8  UNL     1     -23.572  18.565  17.837  1.00  0.00    -0.252 N 
ATOM     25  H8  UNL     1     -23.711  18.457  16.833  1.00  0.00     0.196 HD
BRANCH  24  26
HETATM   26  O5  UNL     1     -23.715  19.782  18.418  1.00  0.00    -0.288 OA
ATOM     27  H5  UNL     1     -23.430  20.563  17.957  1.00  0.00     0.244 HD
ENDBRANCH  24  26
ENDBRANCH  15  24
BRANCH  17  28
HETATM   28  O6  UNL     1     -24.230  17.632  16.294  1.00  0.00    -0.388 OA
ATOM     29  H6  UNL     1     -24.965  18.115  16.655  1.00  0.00     0.210 HD
ENDBRANCH  17  28
BRANCH   1  30
HETATM   30  N2  UNL     1     -25.140  13.560  16.235  1.00  0.00    -0.120 NA
BRANCH  30  31
HETATM   31  N1  UNL     1     -25.501  12.686  15.224  1.00  0.00    -0.346 N 
ATOM     32  H12 UNL     1     -25.567  12.949  14.241  1.00  0.00     0.172 HD
ATOM     33  H11 UNL     1     -25.688  11.757  15.603  1.00  0.00     0.172 HD
ENDBRANCH  30  31
ENDBRANCH   1  30
BRANCH  18  34
HETATM   34  O7  UNL     1     -22.299  15.754  15.621  1.00  0.00    -0.389 OA
ATOM     35  H7  UNL     1     -22.048  16.408  16.263  1.00  0.00     0.210 HD
ENDBRANCH  18  34
TORSDOF 9
ENDMDL
MODEL 2
REMARK VINA RESULT: -5.626457658      2.289      4.581
REMARK  9 active torsions:
REMARK  status: ('A' for Active; 'I' for Inactive)
REMARK    1  A    between atoms: N1_1  and  N2_4 
REMARK    2  A    between atoms: N2_4  and  C1_5 
REMARK       I    between atoms: N5_13  and  C5_15 
REMARK    3  A    between atoms: C5_15  and  C6_17 
REMARK    4  A    between atoms: C6_17  and  O2_18 
REMARK    5  A    between atoms: O2_18  and  N6_19 
REMARK    6  A    between atoms: C7_24  and  N8_25 
REMARK    7  A    between atoms: N8_25  and  O5_27 
REMARK    8  A    between atoms: C9_30  and  O6_31 
REMARK    9  A    between atoms: C10_33  and  O7_34 
ROOT
HETATM    1  C1  UNL     1     -25.770  19.259  19.034  1.00  0.00     0.223 C 
HETATM    2  N3  UNL     1     -25.401  18.697  20.283  1.00  0.00    -0.396 N 
ATOM      3  H3  UNL     1     -26.071  18.210  20.879  1.00  0.00     0.155 HD
HETATM    4  C2  UNL     1     -24.031  18.857  20.652  1.00  0.00     0.174 C 
HETATM    5  C3  UNL     1     -23.253  17.794  19.932  1.00  0.00     0.056 A 
HETATM    6  N4  UNL     1     -22.522  17.018  20.769  1.00  0.00    -0.193 N 
ATOM      7  H4  UNL     1     -22.538  17.185  21.775  1.00  0.00     0.184 HD
HETATM    8  C4  UNL     1     -21.781  16.031  20.255  1.00  0.00     0.686 A 
HETATM    9  N5  UNL     1     -21.083  15.274  20.958  1.00  0.00    -0.158 N 
ATOM     10  H5  UNL     1     -20.612  14.604  20.350  1.00  0.00     0.187 HD
HETATM   11  C5  UNL     1     -20.727  15.022  22.238  1.00  0.00     0.262 C 
HETATM   12  O1  UNL     1     -19.864  14.098  22.457  1.00  0.00    -0.270 OA
HETATM   13  N7  UNL     1     -21.767  15.814  18.891  1.00  0.00    -0.174 N 
ATOM     14  H7  UNL     1     -21.196  15.055  18.519  1.00  0.00     0.186 HD
HETATM   15  C7  UNL     1     -22.471  16.558  18.047  1.00  0.00     0.151 A 
HETATM   16  C8  UNL     1     -23.247  17.589  18.567  1.00  0.00     0.044 A 
HETATM   17  C9  UNL     1     -23.987  18.345  17.521  1.00  0.00     0.189 C 
HETATM   18  C10 UNL     1     -25.453  18.408  17.839  1.00  0.00     0.191 C 
ENDROOT
BRANCH  11  19
HETATM   19  C6  UNL     1     -21.262  15.738  23.417  1.00  0.00     0.311 C 
BRANCH  19  20
HETATM   20  O2  UNL     1     -20.858  17.118  23.400  1.00  0.00    -0.212 OA
BRANCH  20  21
HETATM   21  N6  UNL     1     -21.169  17.856  24.512  1.00  0.00     0.005 N 
HETATM   22  O3  UNL     1     -20.416  18.789  24.851  1.00  0.00    -0.511 OA
HETATM   23  O4  UNL     1     -22.269  17.623  25.276  1.00  0.00    -0.511 OA
ENDBRANCH  20  21
ENDBRANCH  19  20
ENDBRANCH  11  19
BRANCH  15  24
HETATM   24  N8  UNL     1     -22.481  16.383  16.767  1.00  0.00    -0.252 N 
ATOM     25  H8  UNL     1     -22.410  17.186  16.142  1.00  0.00     0.196 HD
BRANCH  24  26
HETATM   26  O5  UNL     1     -22.588  15.130  16.258  1.00  0.00    -0.288 OA
ATOM     27  H5  UNL     1     -23.265  14.935  15.621  1.00  0.00     0.244 HD
ENDBRANCH  24  26
ENDBRANCH  15  24
BRANCH  17  28
HETATM   28  O6  UNL     1     -23.842  17.660  16.317  1.00  0.00    -0.388 OA
ATOM     29  H6  UNL     1     -22.922  17.446  16.213  1.00  0.00     0.210 HD
ENDBRANCH  17  28
BRANCH   1  30
HETATM   30  N2  UNL     1     -25.252  20.594  18.928  1.00  0.00    -0.120 NA
BRANCH  30  31
HETATM   31  N1  UNL     1     -26.025  21.348  18.061  1.00  0.00    -0.346 N 
ATOM     32  H12 UNL     1     -27.025  21.508  18.183  1.00  0.00     0.172 HD
ATOM     33  H11 UNL     1     -25.455  21.712  17.297  1.00  0.00     0.172 HD
ENDBRANCH  30  31
ENDBRANCH   1  30
BRANCH  18  34
HETATM   34  O7  UNL     1     -25.992  17.152  17.999  1.00  0.00    -0.389 OA
ATOM     35  H7  UNL     1     -26.799  17.078  17.504  1.00  0.00     0.210 HD
ENDBRANCH  18  34
TORSDOF 9
ENDMDL
MODEL 3
REMARK VINA RESULT: -5.591930977      2.249      4.509
REMARK  9 active torsions:
REMARK  status: ('A' for Active; 'I' for Inactive)
REMARK    1  A    between atoms: N1_1  and  N2_4 
REMARK    2  A    between atoms: N2_4  and  C1_5 
REMARK       I    between atoms: N5_13  and  C5_15 
REMARK    3  A    between atoms: C5_15  and  C6_17 
REMARK    4  A    between atoms: C6_17  and  O2_18 
REMARK    5  A    between atoms: O2_18  and  N6_19 
REMARK    6  A    between atoms: C7_24  and  N8_25 
REMARK    7  A    between atoms: N8_25  and  O5_27 
REMARK    8  A    between atoms: C9_30  and  O6_31 
REMARK    9  A    between atoms: C10_33  and  O7_34 
ROOT
HETATM    1  C1  UNL     1     -25.259  19.422  19.965  1.00  0.00     0.223 C 
HETATM    2  N3  UNL     1     -24.924  18.464  20.956  1.00  0.00    -0.396 N 
ATOM      3  H3  UNL     1     -25.632  17.910  21.437  1.00  0.00     0.155 HD
HETATM    4  C2  UNL     1     -23.531  18.327  21.237  1.00  0.00     0.174 C 
HETATM    5  C3  UNL     1     -22.951  17.443  20.172  1.00  0.00     0.056 A 
HETATM    6  N4  UNL     1     -22.308  16.363  20.677  1.00  0.00    -0.193 N 
ATOM      7  H4  UNL     1     -22.255  16.216  21.685  1.00  0.00     0.184 HD
HETATM    8  C4  UNL     1     -21.744  15.491  19.833  1.00  0.00     0.686 A 
HETATM    9  N5  UNL     1     -21.136  14.474  20.219  1.00  0.00    -0.158 N 
ATOM     10  H5  UNL     1     -20.795  13.966  19.403  1.00  0.00     0.187 HD
HETATM   11  C5  UNL     1     -20.766  13.801  21.333  1.00  0.00     0.262 C 
HETATM   12  O1  UNL     1     -20.041  12.752  21.195  1.00  0.00    -0.270 OA
HETATM   13  N7  UNL     1     -21.821  15.700  18.470  1.00  0.00    -0.174 N 
ATOM     14  H7  UNL     1     -21.385  15.023  17.843  1.00  0.00     0.186 HD
HETATM   15  C7  UNL     1     -22.443  16.749  17.946  1.00  0.00     0.151 A 
HETATM   16  C8  UNL     1     -23.034  17.663  18.812  1.00  0.00     0.044 A 
HETATM   17  C9  UNL     1     -23.697  18.790  18.102  1.00  0.00     0.189 C 
HETATM   18  C10 UNL     1     -25.124  18.941  18.549  1.00  0.00     0.191 C 
ENDROOT
BRANCH  11  19
HETATM   19  C6  UNL     1     -21.138  14.188  22.712  1.00  0.00     0.311 C 
BRANCH  19  20
HETATM   20  O2  UNL     1     -20.487  15.413  23.089  1.00  0.00    -0.212 OA
BRANCH  20  21
HETATM   21  N6  UNL     1     -21.291  16.393  23.609  1.00  0.00     0.005 N 
HETATM   22  O3  UNL     1     -22.496  16.149  23.811  1.00  0.00    -0.511 OA
HETATM   23  O4  UNL     1     -20.839  17.637  23.923  1.00  0.00    -0.511 OA
ENDBRANCH  20  21
ENDBRANCH  19  20
ENDBRANCH  11  19
BRANCH  15  24
HETATM   24  N8  UNL     1     -22.533  16.974  16.678  1.00  0.00    -0.252 N 
ATOM     25  H8  UNL     1     -22.889  17.869  16.342  1.00  0.00     0.196 HD
BRANCH  24  26
HETATM   26  O5  UNL     1     -22.154  16.017  15.794  1.00  0.00    -0.288 OA
ATOM     27  H5  UNL     1     -21.326  16.098  15.335  1.00  0.00     0.244 HD
ENDBRANCH  24  26
ENDBRANCH  15  24
BRANCH  17  28
HETATM   28  O6  UNL     1     -23.708  18.490  16.742  1.00  0.00    -0.388 OA
ATOM     29  H6  UNL     1     -23.067  19.048  16.317  1.00  0.00     0.210 HD
ENDBRANCH  17  28
BRANCH   1  30
HETATM   30  N2  UNL     1     -24.554  20.648  20.212  1.00  0.00    -0.120 NA
BRANCH  30  31
HETATM   31  N1  UNL     1     -25.218  21.716  19.634  1.00  0.00    -0.346 N 
ATOM     32  H12 UNL     1     -26.222  21.730  19.451  1.00  0.00     0.172 HD
ATOM     33  H11 UNL     1     -24.566  22.472  19.422  1.00  0.00     0.172 HD
ENDBRANCH  30  31
ENDBRANCH   1  30
BRANCH  18  34
HETATM   34  O7  UNL     1     -25.835  17.775  18.377  1.00  0.00    -0.389 OA
ATOM     35  H7  UNL     1     -25.666  17.415  17.515  1.00  0.00     0.210 HD
ENDBRANCH  18  34
TORSDOF 9
ENDMDL
MODEL 4
REMARK VINA RESULT: -5.532291818      2.625      4.309
REMARK  9 active torsions:
REMARK  status: ('A' for Active; 'I' for Inactive)
REMARK    1  A    between atoms: N1_1  and  N2_4 
REMARK    2  A    between atoms: N2_4  and  C1_5 
REMARK       I    between atoms: N5_13  and  C5_15 
REMARK    3  A    between atoms: C5_15  and  C6_17 
REMARK    4  A    between atoms: C6_17  and  O2_18 
REMARK    5  A    between atoms: O2_18  and  N6_19 
REMARK    6  A    between atoms: C7_24  and  N8_25 
REMARK    7  A    between atoms: N8_25  and  O5_27 
REMARK    8  A    between atoms: C9_30  and  O6_31 
REMARK    9  A    between atoms: C10_33  and  O7_34 
ROOT
HETATM    1  C1  UNL     1     -24.178  16.487  16.327  1.00  0.00     0.223 C 
HETATM    2  N3  UNL     1     -23.996  15.089  16.165  1.00  0.00    -0.396 N 
ATOM      3  H3  UNL     1     -23.543  14.692  15.342  1.00  0.00     0.155 HD
HETATM    4  C2  UNL     1     -24.490  14.274  17.229  1.00  0.00     0.174 C 
HETATM    5  C3  UNL     1     -23.455  14.294  18.316  1.00  0.00     0.056 A 
HETATM    6  N4  UNL     1     -23.042  13.054  18.672  1.00  0.00    -0.193 N 
ATOM      7  H4  UNL     1     -23.429  12.228  18.215  1.00  0.00     0.184 HD
HETATM    8  C4  UNL     1     -22.119  12.929  19.632  1.00  0.00     0.686 A 
HETATM    9  N5  UNL     1     -21.688  11.823  20.015  1.00  0.00    -0.158 N 
ATOM     10  H5  UNL     1     -20.997  11.978  20.749  1.00  0.00     0.187 HD
HETATM   11  C5  UNL     1     -21.807  10.492  19.806  1.00  0.00     0.262 C 
HETATM   12  O1  UNL     1     -21.136   9.697  20.556  1.00  0.00    -0.270 OA
HETATM   13  N7  UNL     1     -21.602  14.053  20.245  1.00  0.00    -0.174 N 
ATOM     14  H7  UNL     1     -20.899  13.936  20.975  1.00  0.00     0.186 HD
HETATM   15  C7  UNL     1     -21.988  15.280  19.919  1.00  0.00     0.151 A 
HETATM   16  C8  UNL     1     -22.947  15.425  18.922  1.00  0.00     0.044 A 
HETATM   17  C9  UNL     1     -23.291  16.847  18.649  1.00  0.00     0.189 C 
HETATM   18  C10 UNL     1     -23.150  17.163  17.187  1.00  0.00     0.191 C 
ENDROOT
BRANCH  11  19
HETATM   19  C6  UNL     1     -22.662   9.878  18.766  1.00  0.00     0.311 C 
BRANCH  19  20
HETATM   20  O2  UNL     1     -22.049   9.995  17.470  1.00  0.00    -0.212 OA
BRANCH  20  21
HETATM   21  N6  UNL     1     -22.618  10.896  16.608  1.00  0.00     0.005 N 
HETATM   22  O3  UNL     1     -21.884  11.683  15.980  1.00  0.00    -0.511 OA
HETATM   23  O4  UNL     1     -23.959  10.980  16.397  1.00  0.00    -0.511 OA
ENDBRANCH  20  21
ENDBRANCH  19  20
ENDBRANCH  11  19
BRANCH  15  24
HETATM   24  N8  UNL     1     -21.526  16.352  20.471  1.00  0.00    -0.252 N 
ATOM     25  H8  UNL     1     -21.452  17.214  19.931  1.00  0.00     0.196 HD
BRANCH  24  26
HETATM   26  O5  UNL     1     -21.138  16.329  21.771  1.00  0.00    -0.288 OA
ATOM     27  H5  UNL     1     -21.411  17.024  22.359  1.00  0.00     0.244 HD
ENDBRANCH  24  26
ENDBRANCH  15  24
BRANCH  17  28
HETATM   28  O6  UNL     1     -22.388  17.645  19.345  1.00  0.00    -0.388 OA
ATOM     29  H6  UNL     1     -22.773  18.509  19.435  1.00  0.00     0.210 HD
ENDBRANCH  17  28
BRANCH   1  30
HETATM   30  N2  UNL     1     -25.526  16.759  16.742  1.00  0.00    -0.120 NA
BRANCH  30  31
HETATM   31  N1  UNL     1     -26.314  17.083  15.650  1.00  0.00    -0.346 N 
ATOM     32  H12 UNL     1     -26.447  16.473  14.844  1.00  0.00     0.172 HD
ATOM     33  H11 UNL     1     -26.734  18.005  15.773  1.00  0.00     0.172 HD
ENDBRANCH  30  31
ENDBRANCH   1  30
BRANCH  18  34
HETATM   34  O7  UNL     1     -21.886  16.874  16.726  1.00  0.00    -0.389 OA
ATOM     35  H7  UNL     1     -21.236  17.168  17.353  1.00  0.00     0.210 HD
ENDBRANCH  18  34
TORSDOF 9
ENDMDL
MODEL 5
REMARK VINA RESULT: -5.444286234      3.989      5.903
REMARK  9 active torsions:
REMARK  status: ('A' for Active; 'I' for Inactive)
REMARK    1  A    between atoms: N1_1  and  N2_4 
REMARK    2  A    between atoms: N2_4  and  C1_5 
REMARK       I    between atoms: N5_13  and  C5_15 
REMARK    3  A    between atoms: C5_15  and  C6_17 
REMARK    4  A    between atoms: C6_17  and  O2_18 
REMARK    5  A    between atoms: O2_18  and  N6_19 
REMARK    6  A    between atoms: C7_24  and  N8_25 
REMARK    7  A    between atoms: N8_25  and  O5_27 
REMARK    8  A    between atoms: C9_30  and  O6_31 
REMARK    9  A    between atoms: C10_33  and  O7_34 
ROOT
HETATM    1  C1  UNL     1     -20.982  11.721  20.583  1.00  0.00     0.223 C 
HETATM    2  N3  UNL     1     -21.065  11.159  21.883  1.00  0.00    -0.396 N 
ATOM      3  H3  UNL     1     -20.336  10.554  22.260  1.00  0.00     0.155 HD
HETATM    4  C2  UNL     1     -22.236  11.496  22.629  1.00  0.00     0.174 C 
HETATM    5  C3  UNL     1     -22.006  12.856  23.220  1.00  0.00     0.056 A 
HETATM    6  N4  UNL     1     -22.156  12.877  24.567  1.00  0.00    -0.193 N 
ATOM      7  H4  UNL     1     -22.400  12.026  25.073  1.00  0.00     0.184 HD
HETATM    8  C4  UNL     1     -21.979  14.030  25.220  1.00  0.00     0.686 A 
HETATM    9  N5  UNL     1     -22.097  14.131  26.457  1.00  0.00    -0.158 N 
ATOM     10  H5  UNL     1     -21.917  15.098  26.726  1.00  0.00     0.187 HD
HETATM   11  C5  UNL     1     -22.380  13.417  27.571  1.00  0.00     0.262 C 
HETATM   12  O1  UNL     1     -22.440  14.039  28.692  1.00  0.00    -0.270 OA
HETATM   13  N7  UNL     1     -21.649  15.176  24.524  1.00  0.00    -0.174 N 
ATOM     14  H7  UNL     1     -21.518  16.046  25.042  1.00  0.00     0.186 HD
HETATM   15  C7  UNL     1     -21.497  15.187  23.206  1.00  0.00     0.151 A 
HETATM   16  C8  UNL     1     -21.678  13.995  22.513  1.00  0.00     0.044 A 
HETATM   17  C9  UNL     1     -21.479  14.140  21.045  1.00  0.00     0.189 C 
HETATM   18  C10 UNL     1     -20.483  13.137  20.537  1.00  0.00     0.191 C 
ENDROOT
BRANCH  11  19
HETATM   19  C6  UNL     1     -22.626  11.958  27.595  1.00  0.00     0.311 C 
BRANCH  19  20
HETATM   20  O2  UNL     1     -21.446  11.237  27.204  1.00  0.00    -0.212 OA
BRANCH  20  21
HETATM   21  N6  UNL     1     -20.275  11.613  27.808  1.00  0.00     0.005 N 
HETATM   22  O3  UNL     1     -20.017  11.190  28.951  1.00  0.00    -0.511 OA
HETATM   23  O4  UNL     1     -19.365  12.436  27.220  1.00  0.00    -0.511 OA
ENDBRANCH  20  21
ENDBRANCH  19  20
ENDBRANCH  11  19
BRANCH  15  24
HETATM   24  N8  UNL     1     -21.190  16.240  22.524  1.00  0.00    -0.252 N 
ATOM     25  H8  UNL     1     -21.499  16.330  21.557  1.00  0.00     0.196 HD
BRANCH  24  26
HETATM   26  O5  UNL     1     -20.454  17.225  23.098  1.00  0.00    -0.288 OA
ATOM     27  H5  UNL     1     -19.965  17.829  22.552  1.00  0.00     0.244 HD
ENDBRANCH  24  26
ENDBRANCH  15  24
BRANCH  17  28
HETATM   28  O6  UNL     1     -20.961  15.410  20.809  1.00  0.00    -0.388 OA
ATOM     29  H6  UNL     1     -20.145  15.486  21.291  1.00  0.00     0.210 HD
ENDBRANCH  17  28
BRANCH   1  30
HETATM   30  N2  UNL     1     -22.229  11.542  19.893  1.00  0.00    -0.120 NA
BRANCH  30  31
HETATM   31  N1  UNL     1     -22.034  11.567  18.523  1.00  0.00    -0.346 N 
ATOM     32  H12 UNL     1     -22.429  12.275  17.905  1.00  0.00     0.172 HD
ATOM     33  H11 UNL     1     -21.446  10.785  18.231  1.00  0.00     0.172 HD
ENDBRANCH  30  31
ENDBRANCH   1  30
BRANCH  18  34
HETATM   34  O7  UNL     1     -19.281  13.234  21.200  1.00  0.00    -0.389 OA
ATOM     35  H7  UNL     1     -19.418  13.144  22.136  1.00  0.00     0.210 HD
ENDBRANCH  18  34
TORSDOF 9
ENDMDL
