MODEL 1
REMARK VINA RESULT: -4.734711678      0.000      0.000
REMARK  10 active torsions:
REMARK  status: ('A' for Active; 'I' for Inactive)
REMARK    1  A    between atoms: N1_1  and  C1_5 
REMARK    2  A    between atoms: C1_5  and  O1_6 
REMARK    3  A    between atoms: C1_5  and  C2_8 
REMARK    4  A    between atoms: C2_8  and  N2_9 
REMARK    5  A    between atoms: C2_8  and  C3_13 
REMARK    6  A    between atoms: C2_8  and  C5_21 
REMARK    7  A    between atoms: C3_13  and  O2_14 
REMARK    8  A    between atoms: C3_13  and  C4_16 
REMARK    9  A    between atoms: C4_16  and  O3_17 
REMARK   10  A    between atoms: C4_16  and  O4_19 
ROOT
HETATM    1  C2  UNL     1     -23.330  15.500  18.228  1.00  0.00     0.219 C 
ENDROOT
BRANCH   1   2
HETATM    2  C1  UNL     1     -23.879  14.718  17.077  1.00  0.00     0.356 C 
BRANCH   2   3
HETATM    3  N1  UNL     1     -24.780  15.382  16.210  1.00  0.00    -0.050 N 
ATOM      4  H13 UNL     1     -24.580  16.382  16.195  1.00  0.00     0.277 HD
ATOM      5  H12 UNL     1     -24.574  15.144  15.241  1.00  0.00     0.277 HD
ATOM      6  H11 UNL     1     -25.769  15.226  16.407  1.00  0.00     0.277 HD
ENDBRANCH   2   3
BRANCH   2   7
HETATM    7  O1  UNL     1     -22.823  14.062  16.448  1.00  0.00    -0.368 OA
ATOM      8  H1  UNL     1     -21.972  14.471  16.552  1.00  0.00     0.212 HD
ENDBRANCH   2   7
ENDBRANCH   1   2
BRANCH   1   9
HETATM    9  N2  UNL     1     -24.570  16.046  18.870  1.00  0.00    -0.062 N 
ATOM     10  H23 UNL     1     -25.441  15.617  18.556  1.00  0.00     0.275 HD
ATOM     11  H22 UNL     1     -24.688  15.801  19.853  1.00  0.00     0.275 HD
ATOM     12  H21 UNL     1     -24.493  17.046  18.683  1.00  0.00     0.275 HD
ENDBRANCH   1   9
BRANCH   1  13
HETATM   13  C3  UNL     1     -22.612  16.770  17.831  1.00  0.00     0.214 C 
BRANCH  13  14
HETATM   14  O2  UNL     1     -22.240  16.827  16.499  1.00  0.00    -0.388 OA
ATOM     15  H2  UNL     1     -22.962  16.947  15.893  1.00  0.00     0.210 HD
ENDBRANCH  13  14
BRANCH  13  16
HETATM   16  C4  UNL     1     -23.427  18.027  18.054  1.00  0.00     0.285 C 
BRANCH  16  17
HETATM   17  O3  UNL     1     -23.024  18.910  17.015  1.00  0.00    -0.369 OA
ATOM     18  H3  UNL     1     -23.547  19.693  17.146  1.00  0.00     0.212 HD
ENDBRANCH  16  17
BRANCH  16  19
HETATM   19  O4  UNL     1     -23.122  18.706  19.221  1.00  0.00    -0.369 OA
ATOM     20  H4  UNL     1     -22.245  19.069  19.245  1.00  0.00     0.212 HD
ENDBRANCH  16  19
ENDBRANCH  13  16
ENDBRANCH   1  13
BRANCH   1  21
HETATM   21  C5  UNL     1     -22.702  14.703  19.292  1.00  0.00     0.142 C 
HETATM   22  S1  UNL     1     -24.015  13.774  20.190  1.00  0.00    -0.085 SA
HETATM   23  S2  UNL     1     -22.839  12.292  21.247  1.00  0.00    -0.054 SA
HETATM   24  C6  UNL     1     -21.289  13.202  21.605  1.00  0.00     0.350 C 
HETATM   25  N3  UNL     1     -20.811  13.955  20.507  1.00  0.00    -0.039 N 
HETATM   26  C9  UNL     1     -21.568  13.961  22.843  1.00  0.00     0.266 C 
HETATM   27  C7  UNL     1     -21.645  15.155  20.171  1.00  0.00     0.296 C 
ATOM     28  H32 UNL     1     -19.840  14.227  20.658  1.00  0.00     0.280 HD
ATOM     29  H31 UNL     1     -20.700  13.358  19.688  1.00  0.00     0.280 HD
HETATM   30  C8  UNL     1     -21.902  15.909  21.389  1.00  0.00     0.256 C 
HETATM   31  O5  UNL     1     -21.905  17.160  21.447  1.00  0.00    -0.271 OA
HETATM   32  N4  UNL     1     -22.173  15.247  22.645  1.00  0.00    -0.293 N 
ATOM     33  H4  UNL     1     -22.765  15.674  23.357  1.00  0.00     0.171 HD
HETATM   34  O6  UNL     1     -21.279  13.471  23.943  1.00  0.00    -0.270 OA
ENDBRANCH   1  21
TORSDOF 10
ENDMDL
MODEL 2
REMARK VINA RESULT: -4.714168920      2.920      4.048
REMARK  10 active torsions:
REMARK  status: ('A' for Active; 'I' for Inactive)
REMARK    1  A    between atoms: N1_1  and  C1_5 
REMARK    2  A    between atoms: C1_5  and  O1_6 
REMARK    3  A    between atoms: C1_5  and  C2_8 
REMARK    4  A    between atoms: C2_8  and  N2_9 
REMARK    5  A    between atoms: C2_8  and  C3_13 
REMARK    6  A    between atoms: C2_8  and  C5_21 
REMARK    7  A    between atoms: C3_13  and  O2_14 
REMARK    8  A    between atoms: C3_13  and  C4_16 
REMARK    9  A    between atoms: C4_16  and  O3_17 
REMARK   10  A    between atoms: C4_16  and  O4_19 
ROOT
HETATM    1  C2  UNL     1     -22.270  13.713  21.455  1.00  0.00     0.219 C 
ENDROOT
BRANCH   1   2
HETATM    2  C1  UNL     1     -22.299  12.427  20.692  1.00  0.00     0.356 C 
BRANCH   2   3
HETATM    3  N1  UNL     1     -22.417  12.509  19.283  1.00  0.00    -0.050 N 
ATOM      4  H13 UNL     1     -23.216  13.091  19.032  1.00  0.00     0.277 HD
ATOM      5  H12 UNL     1     -21.658  13.071  18.900  1.00  0.00     0.277 HD
ATOM      6  H11 UNL     1     -22.469  11.613  18.798  1.00  0.00     0.277 HD
ENDBRANCH   2   3
BRANCH   2   7
HETATM    7  O1  UNL     1     -21.265  11.618  21.156  1.00  0.00    -0.368 OA
ATOM      8  H1  UNL     1     -21.522  10.949  21.780  1.00  0.00     0.212 HD
ENDBRANCH   2   7
ENDBRANCH   1   2
BRANCH   1   9
HETATM    9  N2  UNL     1     -23.474  14.432  20.924  1.00  0.00    -0.062 N 
ATOM     10  H23 UNL     1     -24.344  13.902  20.967  1.00  0.00     0.275 HD
ATOM     11  H22 UNL     1     -23.800  15.207  21.501  1.00  0.00     0.275 HD
ATOM     12  H21 UNL     1     -23.178  14.693  19.983  1.00  0.00     0.275 HD
ENDBRANCH   1   9
BRANCH   1  13
HETATM   13  C3  UNL     1     -21.156  14.652  21.050  1.00  0.00     0.214 C 
BRANCH  13  14
HETATM   14  O2  UNL     1     -20.252  14.115  20.150  1.00  0.00    -0.388 OA
ATOM     15  H2  UNL     1     -19.466  14.634  20.023  1.00  0.00     0.210 HD
ENDBRANCH  13  14
BRANCH  13  16
HETATM   16  C4  UNL     1     -21.640  15.926  20.391  1.00  0.00     0.285 C 
BRANCH  16  17
HETATM   17  O3  UNL     1     -20.729  16.152  19.324  1.00  0.00    -0.369 OA
ATOM     18  H3  UNL     1     -21.270  16.182  18.544  1.00  0.00     0.212 HD
ENDBRANCH  16  17
BRANCH  16  19
HETATM   19  O4  UNL     1     -21.531  17.056  21.182  1.00  0.00    -0.369 OA
ATOM     20  H4  UNL     1     -21.808  17.860  20.759  1.00  0.00     0.212 HD
ENDBRANCH  16  19
ENDBRANCH  13  16
ENDBRANCH   1  13
BRANCH   1  21
HETATM   21  C5  UNL     1     -22.534  13.599  22.897  1.00  0.00     0.142 C 
HETATM   22  S1  UNL     1     -24.331  13.874  23.195  1.00  0.00    -0.085 SA
HETATM   23  S2  UNL     1     -24.552  13.091  25.204  1.00  0.00    -0.054 SA
HETATM   24  C6  UNL     1     -22.938  13.504  25.968  1.00  0.00     0.350 C 
HETATM   25  N3  UNL     1     -21.832  13.232  25.129  1.00  0.00    -0.039 N 
HETATM   26  C9  UNL     1     -23.079  14.904  26.425  1.00  0.00     0.266 C 
HETATM   27  C7  UNL     1     -21.708  14.149  23.951  1.00  0.00     0.296 C 
ATOM     28  H32 UNL     1     -20.967  13.229  25.671  1.00  0.00     0.280 HD
ATOM     29  H31 UNL     1     -21.849  12.259  24.823  1.00  0.00     0.280 HD
HETATM   30  C8  UNL     1     -21.828  15.526  24.408  1.00  0.00     0.256 C 
HETATM   31  O5  UNL     1     -21.142  16.473  23.958  1.00  0.00    -0.271 OA
HETATM   32  N4  UNL     1     -22.767  15.900  25.441  1.00  0.00    -0.293 N 
ATOM     33  H4  UNL     1     -23.189  16.829  25.469  1.00  0.00     0.171 HD
HETATM   34  O6  UNL     1     -23.442  15.138  27.585  1.00  0.00    -0.270 OA
ENDBRANCH   1  21
TORSDOF 10
ENDMDL
MODEL 3
REMARK VINA RESULT: -4.538731052      1.436      1.749
REMARK  10 active torsions:
REMARK  status: ('A' for Active; 'I' for Inactive)
REMARK    1  A    between atoms: N1_1  and  C1_5 
REMARK    2  A    between atoms: C1_5  and  O1_6 
REMARK    3  A    between atoms: C1_5  and  C2_8 
REMARK    4  A    between atoms: C2_8  and  N2_9 
REMARK    5  A    between atoms: C2_8  and  C3_13 
REMARK    6  A    between atoms: C2_8  and  C5_21 
REMARK    7  A    between atoms: C3_13  and  O2_14 
REMARK    8  A    between atoms: C3_13  and  C4_16 
REMARK    9  A    between atoms: C4_16  and  O3_17 
REMARK   10  A    between atoms: C4_16  and  O4_19 
ROOT
HETATM    1  C2  UNL     1     -24.017  17.130  18.248  1.00  0.00     0.219 C 
ENDROOT
BRANCH   1   2
HETATM    2  C1  UNL     1     -24.554  16.734  16.908  1.00  0.00     0.356 C 
BRANCH   2   3
HETATM    3  N1  UNL     1     -25.695  17.426  16.435  1.00  0.00    -0.050 N 
ATOM      4  H13 UNL     1     -25.714  18.372  16.815  1.00  0.00     0.277 HD
ATOM      5  H12 UNL     1     -25.593  17.633  15.442  1.00  0.00     0.277 HD
ATOM      6  H11 UNL     1     -26.588  16.962  16.607  1.00  0.00     0.277 HD
ENDBRANCH   2   3
BRANCH   2   7
HETATM    7  O1  UNL     1     -23.490  16.661  16.013  1.00  0.00    -0.368 OA
ATOM      8  H1  UNL     1     -23.061  15.815  15.961  1.00  0.00     0.212 HD
ENDBRANCH   2   7
ENDBRANCH   1   2
BRANCH   1   9
HETATM    9  N2  UNL     1     -25.262  17.242  19.076  1.00  0.00    -0.062 N 
ATOM     10  H23 UNL     1     -26.132  17.089  18.566  1.00  0.00     0.275 HD
ATOM     11  H22 UNL     1     -25.403  16.484  19.743  1.00  0.00     0.275 HD
ATOM     12  H21 UNL     1     -25.167  18.169  19.492  1.00  0.00     0.275 HD
ENDBRANCH   1   9
BRANCH   1  13
HETATM   13  C3  UNL     1     -23.484  18.543  18.312  1.00  0.00     0.214 C 
BRANCH  13  14
HETATM   14  O2  UNL     1     -23.319  19.151  17.079  1.00  0.00    -0.388 OA
ATOM     15  H2  UNL     1     -23.065  18.560  16.380  1.00  0.00     0.210 HD
ENDBRANCH  13  14
BRANCH  13  16
HETATM   16  C4  UNL     1     -24.368  19.494  19.091  1.00  0.00     0.285 C 
BRANCH  16  17
HETATM   17  O3  UNL     1     -24.120  20.772  18.519  1.00  0.00    -0.369 OA
ATOM     18  H3  UNL     1     -24.981  21.127  18.335  1.00  0.00     0.212 HD
ENDBRANCH  16  17
BRANCH  16  19
HETATM   19  O4  UNL     1     -24.018  19.639  20.422  1.00  0.00    -0.369 OA
ATOM     20  H4  UNL     1     -24.606  20.190  20.925  1.00  0.00     0.212 HD
ENDBRANCH  16  19
ENDBRANCH  13  16
ENDBRANCH   1  13
BRANCH   1  21
HETATM   21  C5  UNL     1     -23.224  16.103  18.939  1.00  0.00     0.142 C 
HETATM   22  S1  UNL     1     -24.347  14.740  19.465  1.00  0.00    -0.085 SA
HETATM   23  S2  UNL     1     -22.926  13.160  19.891  1.00  0.00    -0.054 SA
HETATM   24  C6  UNL     1     -21.480  14.092  20.525  1.00  0.00     0.350 C 
HETATM   25  N3  UNL     1     -21.176  15.245  19.766  1.00  0.00    -0.039 N 
HETATM   26  C9  UNL     1     -21.767  14.314  21.959  1.00  0.00     0.266 C 
HETATM   27  C7  UNL     1     -22.173  16.356  19.902  1.00  0.00     0.296 C 
ATOM     28  H32 UNL     1     -20.238  15.580  19.986  1.00  0.00     0.280 HD
ATOM     29  H31 UNL     1     -21.048  15.001  18.784  1.00  0.00     0.280 HD
HETATM   30  C8  UNL     1     -22.438  16.584  21.315  1.00  0.00     0.256 C 
HETATM   31  O5  UNL     1     -22.592  17.719  21.822  1.00  0.00    -0.271 OA
HETATM   32  N4  UNL     1     -22.538  15.487  22.251  1.00  0.00    -0.293 N 
ATOM     33  H4  UNL     1     -23.129  15.545  23.081  1.00  0.00     0.171 HD
HETATM   34  O6  UNL     1     -21.344  13.510  22.801  1.00  0.00    -0.270 OA
ENDBRANCH   1  21
TORSDOF 10
ENDMDL
MODEL 4
REMARK VINA RESULT: -4.508316942      2.205      5.884
REMARK  10 active torsions:
REMARK  status: ('A' for Active; 'I' for Inactive)
REMARK    1  A    between atoms: N1_1  and  C1_5 
REMARK    2  A    between atoms: C1_5  and  O1_6 
REMARK    3  A    between atoms: C1_5  and  C2_8 
REMARK    4  A    between atoms: C2_8  and  N2_9 
REMARK    5  A    between atoms: C2_8  and  C3_13 
REMARK    6  A    between atoms: C2_8  and  C5_21 
REMARK    7  A    between atoms: C3_13  and  O2_14 
REMARK    8  A    between atoms: C3_13  and  C4_16 
REMARK    9  A    between atoms: C4_16  and  O3_17 
REMARK   10  A    between atoms: C4_16  and  O4_19 
ROOT
HETATM    1  C2  UNL     1     -21.869  15.230  21.421  1.00  0.00     0.219 C 
ENDROOT
BRANCH   1   2
HETATM    2  C1  UNL     1     -21.732  15.937  22.733  1.00  0.00     0.356 C 
BRANCH   2   3
HETATM    3  N1  UNL     1     -21.824  15.151  23.907  1.00  0.00    -0.050 N 
ATOM      4  H13 UNL     1     -22.377  14.314  23.726  1.00  0.00     0.277 HD
ATOM      5  H12 UNL     1     -20.920  14.727  24.116  1.00  0.00     0.277 HD
ATOM      6  H11 UNL     1     -22.182  15.637  24.729  1.00  0.00     0.277 HD
ENDBRANCH   2   3
BRANCH   2   7
HETATM    7  O1  UNL     1     -20.625  16.779  22.665  1.00  0.00    -0.368 OA
ATOM      8  H1  UNL     1     -20.222  16.851  21.808  1.00  0.00     0.212 HD
ENDBRANCH   2   7
ENDBRANCH   1   2
BRANCH   1   9
HETATM    9  N2  UNL     1     -23.050  14.336  21.655  1.00  0.00    -0.062 N 
ATOM     10  H23 UNL     1     -23.595  14.119  20.822  1.00  0.00     0.275 HD
ATOM     11  H22 UNL     1     -22.817  13.369  21.878  1.00  0.00     0.275 HD
ATOM     12  H21 UNL     1     -23.561  14.834  22.385  1.00  0.00     0.275 HD
ENDBRANCH   1   9
BRANCH   1  13
HETATM   13  C3  UNL     1     -20.778  14.221  21.141  1.00  0.00     0.214 C 
BRANCH  13  14
HETATM   14  O2  UNL     1     -19.749  14.218  22.067  1.00  0.00    -0.388 OA
ATOM     15  H2  UNL     1     -19.398  13.357  22.263  1.00  0.00     0.210 HD
ENDBRANCH  13  14
BRANCH  13  16
HETATM   16  C4  UNL     1     -21.266  12.789  21.107  1.00  0.00     0.285 C 
BRANCH  16  17
HETATM   17  O3  UNL     1     -20.167  12.018  21.578  1.00  0.00    -0.369 OA
ATOM     18  H3  UNL     1     -20.562  11.298  22.055  1.00  0.00     0.212 HD
ENDBRANCH  16  17
BRANCH  16  19
HETATM   19  O4  UNL     1     -21.510  12.298  19.836  1.00  0.00    -0.369 OA
ATOM     20  H4  UNL     1     -20.728  12.142  19.319  1.00  0.00     0.212 HD
ENDBRANCH  16  19
ENDBRANCH  13  16
ENDBRANCH   1  13
BRANCH   1  21
HETATM   21  C5  UNL     1     -22.282  16.073  20.289  1.00  0.00     0.142 C 
HETATM   22  S1  UNL     1     -23.859  16.919  20.724  1.00  0.00    -0.085 SA
HETATM   23  S2  UNL     1     -23.931  18.481  19.223  1.00  0.00    -0.054 SA
HETATM   24  C6  UNL     1     -23.138  17.676  17.779  1.00  0.00     0.350 C 
HETATM   25  N3  UNL     1     -21.971  16.950  18.110  1.00  0.00    -0.039 N 
HETATM   26  C9  UNL     1     -24.221  16.907  17.128  1.00  0.00     0.266 C 
HETATM   27  C7  UNL     1     -22.223  15.696  18.893  1.00  0.00     0.296 C 
ATOM     28  H32 UNL     1     -21.430  16.742  17.270  1.00  0.00     0.280 HD
ATOM     29  H31 UNL     1     -21.307  17.548  18.601  1.00  0.00     0.280 HD
HETATM   30  C8  UNL     1     -23.275  14.933  18.238  1.00  0.00     0.256 C 
HETATM   31  O5  UNL     1     -23.272  13.685  18.135  1.00  0.00    -0.271 OA
HETATM   32  N4  UNL     1     -24.421  15.583  17.643  1.00  0.00    -0.293 N 
ATOM     33  H4  UNL     1     -25.330  15.122  17.591  1.00  0.00     0.171 HD
HETATM   34  O6  UNL     1     -24.872  17.421  16.209  1.00  0.00    -0.270 OA
ENDBRANCH   1  21
TORSDOF 10
ENDMDL
MODEL 5
REMARK VINA RESULT: -4.457342284      3.053      4.179
REMARK  10 active torsions:
REMARK  status: ('A' for Active; 'I' for Inactive)
REMARK    1  A    between atoms: N1_1  and  C1_5 
REMARK    2  A    between atoms: C1_5  and  O1_6 
REMARK    3  A    between atoms: C1_5  and  C2_8 
REMARK    4  A    between atoms: C2_8  and  N2_9 
REMARK    5  A    between atoms: C2_8  and  C3_13 
REMARK    6  A    between atoms: C2_8  and  C5_21 
REMARK    7  A    between atoms: C3_13  and  O2_14 
REMARK    8  A    between atoms: C3_13  and  C4_16 
REMARK    9  A    between atoms: C4_16  and  O3_17 
REMARK   10  A    between atoms: C4_16  and  O4_19 
ROOT
HETATM    1  C2  UNL     1     -22.181  13.707  21.755  1.00  0.00     0.219 C 
ENDROOT
BRANCH   1   2
HETATM    2  C1  UNL     1     -22.523  12.619  20.786  1.00  0.00     0.356 C 
BRANCH   2   3
HETATM    3  N1  UNL     1     -23.004  13.011  19.513  1.00  0.00    -0.050 N 
ATOM      4  H13 UNL     1     -22.780  13.990  19.340  1.00  0.00     0.277 HD
ATOM      5  H12 UNL     1     -22.452  12.569  18.779  1.00  0.00     0.277 HD
ATOM      6  H11 UNL     1     -23.998  12.845  19.353  1.00  0.00     0.277 HD
ENDBRANCH   2   3
BRANCH   2   7
HETATM    7  O1  UNL     1     -21.477  11.700  20.770  1.00  0.00    -0.368 OA
ATOM      8  H1  UNL     1     -20.606  12.076  20.819  1.00  0.00     0.212 HD
ENDBRANCH   2   7
ENDBRANCH   1   2
BRANCH   1   9
HETATM    9  N2  UNL     1     -23.414  14.560  21.734  1.00  0.00    -0.062 N 
ATOM     10  H23 UNL     1     -23.743  14.862  22.650  1.00  0.00     0.275 HD
ATOM     11  H22 UNL     1     -23.278  15.500  21.361  1.00  0.00     0.275 HD
ATOM     12  H21 UNL     1     -24.072  13.982  21.211  1.00  0.00     0.275 HD
ENDBRANCH   1   9
BRANCH   1  13
HETATM   13  C3  UNL     1     -21.134  14.677  21.257  1.00  0.00     0.214 C 
BRANCH  13  14
HETATM   14  O2  UNL     1     -20.480  14.274  20.106  1.00  0.00    -0.388 OA
ATOM     15  H2  UNL     1     -19.918  14.936  19.720  1.00  0.00     0.210 HD
ENDBRANCH  13  14
BRANCH  13  16
HETATM   16  C4  UNL     1     -21.682  16.049  20.926  1.00  0.00     0.285 C 
BRANCH  16  17
HETATM   17  O3  UNL     1     -20.976  16.450  19.759  1.00  0.00    -0.369 OA
ATOM     18  H3  UNL     1     -21.529  17.109  19.355  1.00  0.00     0.212 HD
ENDBRANCH  16  17
BRANCH  16  19
HETATM   19  O4  UNL     1     -21.383  17.025  21.861  1.00  0.00    -0.369 OA
ATOM     20  H4  UNL     1     -20.656  17.587  21.622  1.00  0.00     0.212 HD
ENDBRANCH  16  19
ENDBRANCH  13  16
ENDBRANCH   1  13
BRANCH   1  21
HETATM   21  C5  UNL     1     -22.065  13.288  23.160  1.00  0.00     0.142 C 
HETATM   22  S1  UNL     1     -23.695  12.640  23.722  1.00  0.00    -0.085 SA
HETATM   23  S2  UNL     1     -23.132  11.582  25.528  1.00  0.00    -0.054 SA
HETATM   24  C6  UNL     1     -21.746  12.600  26.164  1.00  0.00     0.350 C 
HETATM   25  N3  UNL     1     -20.832  12.996  25.161  1.00  0.00    -0.039 N 
HETATM   26  C9  UNL     1     -22.392  13.692  26.925  1.00  0.00     0.266 C 
HETATM   27  C7  UNL     1     -21.369  14.014  24.201  1.00  0.00     0.296 C 
ATOM     28  H32 UNL     1     -19.963  13.328  25.582  1.00  0.00     0.280 HD
ATOM     29  H31 UNL     1     -20.481  12.182  24.658  1.00  0.00     0.280 HD
HETATM   30  C8  UNL     1     -21.986  15.096  24.954  1.00  0.00     0.256 C 
HETATM   31  O5  UNL     1     -21.896  16.305  24.640  1.00  0.00    -0.271 OA
HETATM   32  N4  UNL     1     -22.760  14.840  26.148  1.00  0.00    -0.293 N 
ATOM     33  H4  UNL     1     -23.532  15.447  26.425  1.00  0.00     0.171 HD
HETATM   34  O6  UNL     1     -22.574  13.567  28.144  1.00  0.00    -0.270 OA
ENDBRANCH   1  21
TORSDOF 10
ENDMDL
