MODEL 1
REMARK VINA RESULT: -5.974284707      0.000      0.000
REMARK  9 active torsions:
REMARK  status: ('A' for Active; 'I' for Inactive)
REMARK    1  A    between atoms: N3_4  and  C2_6 
REMARK    2  A    between atoms: C3_8  and  N4_9 
REMARK    3  A    between atoms: C4_13  and  N5_14 
REMARK    4  A    between atoms: N5_14  and  C5_16 
REMARK    5  A    between atoms: C5_16  and  N6_17 
REMARK    6  A    between atoms: C5_16  and  C6_21 
REMARK    7  A    between atoms: C7_22  and  C8_23 
REMARK    8  A    between atoms: N7_24  and  O2_26 
REMARK    9  A    between atoms: N9_32  and  N10_33 
ROOT
HETATM    1  C5  UNL     1     -22.554  16.303  23.119  1.00  0.00     0.338 C 
ENDROOT
BRANCH   1   2
HETATM    2  N5  UNL     1     -21.434  16.839  23.936  1.00  0.00    -0.344 N 
ATOM      3  H5  UNL     1     -20.598  16.275  24.087  1.00  0.00     0.163 HD
BRANCH   2   4
HETATM    4  C4  UNL     1     -21.527  18.152  24.512  1.00  0.00     0.139 C 
HETATM    5  C3  UNL     1     -22.782  18.920  24.312  1.00  0.00     0.389 C 
HETATM    6  O1  UNL     1     -22.561  20.291  24.422  1.00  0.00    -0.319 OA
HETATM    7  C2  UNL     1     -22.050  20.569  25.710  1.00  0.00     0.320 C 
HETATM    8  C10 UNL     1     -20.700  19.953  25.731  1.00  0.00     0.272 C 
HETATM    9  N11 UNL     1     -20.550  18.655  25.187  1.00  0.00    -0.309 N 
HETATM   10  O4  UNL     1     -19.710  20.589  26.230  1.00  0.00    -0.268 OA
ATOM     11  H11 UNL     1     -19.687  18.129  25.325  1.00  0.00     0.170 HD
BRANCH   5  12
HETATM   12  N4  UNL     1     -23.791  18.578  25.311  1.00  0.00    -0.046 N 
ATOM     13  H43 UNL     1     -23.440  18.617  26.268  1.00  0.00     0.277 HD
ATOM     14  H42 UNL     1     -24.516  19.288  25.412  1.00  0.00     0.277 HD
ATOM     15  H41 UNL     1     -24.158  17.661  25.053  1.00  0.00     0.277 HD
ENDBRANCH   5  12
BRANCH   7  16
HETATM   16  N3  UNL     1     -22.027  21.991  25.900  1.00  0.00    -0.333 N 
HETATM   17  C1  UNL     1     -22.913  22.636  26.584  1.00  0.00     0.199 C 
HETATM   18  N1  UNL     1     -23.955  21.876  27.171  1.00  0.00    -0.067 NA
HETATM   19  N2  UNL     1     -22.789  24.042  26.704  1.00  0.00    -0.067 NA
ATOM     20  H3  UNL     1     -21.269  22.522  25.470  1.00  0.00     0.164 HD
ENDBRANCH   7  16
ENDBRANCH   2   4
ENDBRANCH   1   2
BRANCH   1  21
HETATM   21  N6  UNL     1     -23.007  15.142  23.818  1.00  0.00    -0.052 N 
ATOM     22  H63 UNL     1     -23.179  14.340  23.213  1.00  0.00     0.277 HD
ATOM     23  H62 UNL     1     -22.289  14.704  24.395  1.00  0.00     0.277 HD
ATOM     24  H61 UNL     1     -23.827  15.446  24.341  1.00  0.00     0.277 HD
ENDBRANCH   1  21
BRANCH   1  25
HETATM   25  C6  UNL     1     -22.069  16.063  21.734  1.00  0.00     0.116 A 
HETATM   26  C7  UNL     1     -21.223  15.110  21.235  1.00  0.00     0.082 A 
HETATM   27  N8  UNL     1     -21.107  15.375  19.901  1.00  0.00    -0.304 N 
HETATM   28  C9  UNL     1     -21.851  16.452  19.574  1.00  0.00     0.346 A 
ATOM     29  H8  UNL     1     -20.540  14.837  19.246  1.00  0.00     0.171 HD
HETATM   30  O3  UNL     1     -21.985  16.984  18.439  1.00  0.00    -0.245 OA
HETATM   31  N9  UNL     1     -22.445  16.883  20.689  1.00  0.00    -0.210 N 
BRANCH  26  32
HETATM   32  C8  UNL     1     -20.581  14.012  21.936  1.00  0.00     0.145 C 
HETATM   33  N7  UNL     1     -19.812  13.145  21.404  1.00  0.00    -0.278 N 
ATOM     34  H7  UNL     1     -19.453  12.448  22.056  1.00  0.00     0.193 HD
BRANCH  33  35
HETATM   35  O2  UNL     1     -19.395  12.988  20.148  1.00  0.00    -0.290 OA
ATOM     36  H2  UNL     1     -18.666  13.371  19.675  1.00  0.00     0.244 HD
ENDBRANCH  33  35
ENDBRANCH  26  32
BRANCH  31  37
HETATM   37  N10 UNL     1     -23.311  17.980  20.798  1.00  0.00    -0.334 N 
ATOM     38 2H10 UNL     1     -23.180  18.797  21.394  1.00  0.00     0.177 HD
ATOM     39 1H10 UNL     1     -24.186  18.089  20.284  1.00  0.00     0.177 HD
ENDBRANCH  31  37
ENDBRANCH   1  25
TORSDOF 9
ENDMDL
MODEL 2
REMARK VINA RESULT: -5.955827654      3.398      9.125
REMARK  9 active torsions:
REMARK  status: ('A' for Active; 'I' for Inactive)
REMARK    1  A    between atoms: N3_4  and  C2_6 
REMARK    2  A    between atoms: C3_8  and  N4_9 
REMARK    3  A    between atoms: C4_13  and  N5_14 
REMARK    4  A    between atoms: N5_14  and  C5_16 
REMARK    5  A    between atoms: C5_16  and  N6_17 
REMARK    6  A    between atoms: C5_16  and  C6_21 
REMARK    7  A    between atoms: C7_22  and  C8_23 
REMARK    8  A    between atoms: N7_24  and  O2_26 
REMARK    9  A    between atoms: N9_32  and  N10_33 
ROOT
HETATM    1  C5  UNL     1     -24.314  23.165  27.657  1.00  0.00     0.338 C 
ENDROOT
BRANCH   1   2
HETATM    2  N5  UNL     1     -23.053  23.173  26.872  1.00  0.00    -0.344 N 
ATOM      3  H5  UNL     1     -22.579  24.056  26.678  1.00  0.00     0.163 HD
BRANCH   2   4
HETATM    4  C4  UNL     1     -22.500  21.941  26.384  1.00  0.00     0.139 C 
HETATM    5  C3  UNL     1     -23.424  20.941  25.790  1.00  0.00     0.389 C 
HETATM    6  O1  UNL     1     -22.896  19.655  25.864  1.00  0.00    -0.319 OA
HETATM    7  C2  UNL     1     -21.670  19.623  25.162  1.00  0.00     0.320 C 
HETATM    8  C10 UNL     1     -20.747  20.471  25.958  1.00  0.00     0.272 C 
HETATM    9  N11 UNL     1     -21.234  21.702  26.456  1.00  0.00    -0.309 N 
HETATM   10  O4  UNL     1     -19.549  20.085  26.179  1.00  0.00    -0.268 OA
ATOM     11  H11 UNL     1     -20.598  22.387  26.863  1.00  0.00     0.170 HD
BRANCH   5  12
HETATM   12  N4  UNL     1     -23.676  21.209  24.377  1.00  0.00    -0.046 N 
ATOM     13  H43 UNL     1     -23.209  20.551  23.753  1.00  0.00     0.277 HD
ATOM     14  H42 UNL     1     -24.632  21.000  24.090  1.00  0.00     0.277 HD
ATOM     15  H41 UNL     1     -23.410  22.180  24.212  1.00  0.00     0.277 HD
ENDBRANCH   5  12
BRANCH   7  16
HETATM   16  N3  UNL     1     -21.236  18.260  25.053  1.00  0.00    -0.333 N 
HETATM   17  C1  UNL     1     -21.597  17.468  24.098  1.00  0.00     0.199 C 
HETATM   18  N1  UNL     1     -22.469  17.997  23.115  1.00  0.00    -0.067 NA
HETATM   19  N2  UNL     1     -21.105  16.140  24.092  1.00  0.00    -0.067 NA
ATOM     20  H3  UNL     1     -20.608  17.896  25.769  1.00  0.00     0.164 HD
ENDBRANCH   7  16
ENDBRANCH   2   4
ENDBRANCH   1   2
BRANCH   1  21
HETATM   21  N6  UNL     1     -25.075  24.266  27.161  1.00  0.00    -0.052 N 
ATOM     22  H63 UNL     1     -24.586  25.160  27.213  1.00  0.00     0.277 HD
ATOM     23  H62 UNL     1     -25.199  24.257  26.149  1.00  0.00     0.277 HD
ATOM     24  H61 UNL     1     -25.950  24.246  27.683  1.00  0.00     0.277 HD
ENDBRANCH   1  21
BRANCH   1  25
HETATM   25  C6  UNL     1     -23.980  23.222  29.106  1.00  0.00     0.116 A 
HETATM   26  C7  UNL     1     -23.200  24.100  29.809  1.00  0.00     0.082 A 
HETATM   27  N8  UNL     1     -23.223  23.666  31.102  1.00  0.00    -0.304 N 
HETATM   28  C9  UNL     1     -23.988  22.560  31.209  1.00  0.00     0.346 A 
ATOM     29  H8  UNL     1     -22.733  24.113  31.877  1.00  0.00     0.171 HD
HETATM   30  O3  UNL     1     -24.237  21.887  32.246  1.00  0.00    -0.245 OA
HETATM   31  N9  UNL     1     -24.458  22.278  29.992  1.00  0.00    -0.210 N 
BRANCH  26  32
HETATM   32  C8  UNL     1     -22.497  25.275  29.326  1.00  0.00     0.145 C 
HETATM   33  N7  UNL     1     -21.424  25.262  28.637  1.00  0.00    -0.278 N 
ATOM     34  H7  UNL     1     -21.075  26.188  28.388  1.00  0.00     0.193 HD
BRANCH  33  35
HETATM   35  O2  UNL     1     -20.677  24.255  28.185  1.00  0.00    -0.290 OA
ATOM     36  H2  UNL     1     -20.407  24.018  27.306  1.00  0.00     0.244 HD
ENDBRANCH  33  35
ENDBRANCH  26  32
BRANCH  31  37
HETATM   37  N10 UNL     1     -25.298  21.208  29.653  1.00  0.00    -0.334 N 
ATOM     38 2H10 UNL     1     -25.050  20.404  29.076  1.00  0.00     0.177 HD
ATOM     39 1H10 UNL     1     -26.269  21.109  29.949  1.00  0.00     0.177 HD
ENDBRANCH  31  37
ENDBRANCH   1  25
TORSDOF 9
ENDMDL
MODEL 3
REMARK VINA RESULT: -5.749587484      2.101      3.020
REMARK  9 active torsions:
REMARK  status: ('A' for Active; 'I' for Inactive)
REMARK    1  A    between atoms: N3_4  and  C2_6 
REMARK    2  A    between atoms: C3_8  and  N4_9 
REMARK    3  A    between atoms: C4_13  and  N5_14 
REMARK    4  A    between atoms: N5_14  and  C5_16 
REMARK    5  A    between atoms: C5_16  and  N6_17 
REMARK    6  A    between atoms: C5_16  and  C6_21 
REMARK    7  A    between atoms: C7_22  and  C8_23 
REMARK    8  A    between atoms: N7_24  and  O2_26 
REMARK    9  A    between atoms: N9_32  and  N10_33 
ROOT
HETATM    1  C5  UNL     1     -24.150  14.636  21.881  1.00  0.00     0.338 C 
ENDROOT
BRANCH   1   2
HETATM    2  N5  UNL     1     -23.412  14.632  23.171  1.00  0.00    -0.344 N 
ATOM      3  H5  UNL     1     -23.233  13.751  23.653  1.00  0.00     0.163 HD
BRANCH   2   4
HETATM    4  C4  UNL     1     -22.953  15.868  23.741  1.00  0.00     0.139 C 
HETATM    5  C3  UNL     1     -21.496  16.038  23.972  1.00  0.00     0.389 C 
HETATM    6  O1  UNL     1     -21.246  16.973  24.973  1.00  0.00    -0.319 OA
HETATM    7  C2  UNL     1     -21.800  18.215  24.586  1.00  0.00     0.320 C 
HETATM    8  C10 UNL     1     -23.269  18.006  24.605  1.00  0.00     0.272 C 
HETATM    9  N11 UNL     1     -23.780  16.810  24.046  1.00  0.00    -0.309 N 
HETATM   10  O4  UNL     1     -24.038  18.890  25.115  1.00  0.00    -0.268 OA
ATOM     11  H11 UNL     1     -24.781  16.695  23.889  1.00  0.00     0.170 HD
BRANCH   5  12
HETATM   12  N4  UNL     1     -20.810  16.514  22.774  1.00  0.00    -0.046 N 
ATOM     13  H43 UNL     1     -21.431  16.627  21.973  1.00  0.00     0.277 HD
ATOM     14  H42 UNL     1     -20.509  17.486  22.841  1.00  0.00     0.277 HD
ATOM     15  H41 UNL     1     -20.042  15.865  22.600  1.00  0.00     0.277 HD
ENDBRANCH   5  12
BRANCH   7  16
HETATM   16  N3  UNL     1     -21.359  19.223  25.506  1.00  0.00    -0.333 N 
HETATM   17  C1  UNL     1     -20.220  19.828  25.415  1.00  0.00     0.199 C 
HETATM   18  N1  UNL     1     -19.378  19.459  24.337  1.00  0.00    -0.067 NA
HETATM   19  N2  UNL     1     -19.891  20.808  26.382  1.00  0.00    -0.067 NA
ATOM     20  H3  UNL     1     -21.978  19.477  26.276  1.00  0.00     0.164 HD
ENDBRANCH   7  16
ENDBRANCH   2   4
ENDBRANCH   1   2
BRANCH   1  21
HETATM   21  N6  UNL     1     -24.730  13.336  21.774  1.00  0.00    -0.052 N 
ATOM     22  H63 UNL     1     -24.049  12.593  21.615  1.00  0.00     0.277 HD
ATOM     23  H62 UNL     1     -25.094  12.975  22.656  1.00  0.00     0.277 HD
ATOM     24  H61 UNL     1     -25.433  13.414  21.040  1.00  0.00     0.277 HD
ENDBRANCH   1  21
BRANCH   1  25
HETATM   25  C6  UNL     1     -23.208  15.004  20.790  1.00  0.00     0.116 A 
HETATM   26  C7  UNL     1     -22.144  14.326  20.260  1.00  0.00     0.082 A 
HETATM   27  N8  UNL     1     -21.622  15.143  19.299  1.00  0.00    -0.304 N 
HETATM   28  C9  UNL     1     -22.330  16.288  19.226  1.00  0.00     0.346 A 
ATOM     29  H8  UNL     1     -20.813  14.919  18.719  1.00  0.00     0.171 HD
HETATM   30  O3  UNL     1     -22.139  17.269  18.457  1.00  0.00    -0.245 OA
HETATM   31  N9  UNL     1     -23.306  16.215  20.134  1.00  0.00    -0.210 N 
BRANCH  26  32
HETATM   32  C8  UNL     1     -21.652  13.003  20.602  1.00  0.00     0.145 C 
HETATM   33  N7  UNL     1     -20.451  12.601  20.454  1.00  0.00    -0.278 N 
ATOM     34  H7  UNL     1     -20.292  11.638  20.750  1.00  0.00     0.193 HD
BRANCH  33  35
HETATM   35  O2  UNL     1     -19.367  13.214  19.980  1.00  0.00    -0.290 OA
ATOM     36  H2  UNL     1     -18.827  13.039  19.219  1.00  0.00     0.244 HD
ENDBRANCH  33  35
ENDBRANCH  26  32
BRANCH  31  37
HETATM   37  N10 UNL     1     -24.276  17.194  20.392  1.00  0.00    -0.334 N 
ATOM     38 2H10 UNL     1     -25.286  17.055  20.408  1.00  0.00     0.177 HD
ATOM     39 1H10 UNL     1     -24.079  18.174  20.597  1.00  0.00     0.177 HD
ENDBRANCH  31  37
ENDBRANCH   1  25
TORSDOF 9
ENDMDL
MODEL 4
REMARK VINA RESULT: -5.646666566      1.997      7.609
REMARK  9 active torsions:
REMARK  status: ('A' for Active; 'I' for Inactive)
REMARK    1  A    between atoms: N3_4  and  C2_6 
REMARK    2  A    between atoms: C3_8  and  N4_9 
REMARK    3  A    between atoms: C4_13  and  N5_14 
REMARK    4  A    between atoms: N5_14  and  C5_16 
REMARK    5  A    between atoms: C5_16  and  N6_17 
REMARK    6  A    between atoms: C5_16  and  C6_21 
REMARK    7  A    between atoms: C7_22  and  C8_23 
REMARK    8  A    between atoms: N7_24  and  O2_26 
REMARK    9  A    between atoms: N9_32  and  N10_33 
ROOT
HETATM    1  C5  UNL     1     -23.840  18.047  23.783  1.00  0.00     0.338 C 
ENDROOT
BRANCH   1   2
HETATM    2  N5  UNL     1     -23.715  17.977  22.304  1.00  0.00    -0.344 N 
ATOM      3  H5  UNL     1     -24.165  18.683  21.721  1.00  0.00     0.163 HD
BRANCH   2   4
HETATM    4  C4  UNL     1     -22.963  16.917  21.694  1.00  0.00     0.139 C 
HETATM    5  C3  UNL     1     -22.902  15.606  22.390  1.00  0.00     0.389 C 
HETATM    6  O1  UNL     1     -21.769  14.886  22.020  1.00  0.00    -0.319 OA
HETATM    7  C2  UNL     1     -21.802  14.666  20.624  1.00  0.00     0.320 C 
HETATM    8  C10 UNL     1     -21.628  16.009  20.017  1.00  0.00     0.272 C 
HETATM    9  N11 UNL     1     -22.353  17.091  20.570  1.00  0.00    -0.309 N 
HETATM   10  O4  UNL     1     -20.840  16.168  19.023  1.00  0.00    -0.268 OA
ATOM     11  H11 UNL     1     -22.393  17.990  20.091  1.00  0.00     0.170 HD
BRANCH   5  12
HETATM   12  N4  UNL     1     -24.054  14.768  22.066  1.00  0.00    -0.046 N 
ATOM     13  H43 UNL     1     -24.016  14.379  21.124  1.00  0.00     0.277 HD
ATOM     14  H42 UNL     1     -24.062  13.881  22.570  1.00  0.00     0.277 HD
ATOM     15  H41 UNL     1     -24.885  15.335  22.236  1.00  0.00     0.277 HD
ENDBRANCH   5  12
BRANCH   7  16
HETATM   16  N3  UNL     1     -20.757  13.747  20.277  1.00  0.00    -0.333 N 
HETATM   17  C1  UNL     1     -20.900  12.462  20.292  1.00  0.00     0.199 C 
HETATM   18  N1  UNL     1     -22.167  11.957  20.675  1.00  0.00    -0.067 NA
HETATM   19  N2  UNL     1     -19.796  11.652  19.929  1.00  0.00    -0.067 NA
ATOM     20  H3  UNL     1     -19.851  14.128  20.004  1.00  0.00     0.164 HD
ENDBRANCH   7  16
ENDBRANCH   2   4
ENDBRANCH   1   2
BRANCH   1  21
HETATM   21  N6  UNL     1     -25.169  18.508  24.028  1.00  0.00    -0.052 N 
ATOM     22  H63 UNL     1     -25.888  17.954  23.563  1.00  0.00     0.277 HD
ATOM     23  H62 UNL     1     -25.491  18.344  24.982  1.00  0.00     0.277 HD
ATOM     24  H61 UNL     1     -25.166  19.491  23.757  1.00  0.00     0.277 HD
ENDBRANCH   1  21
BRANCH   1  25
HETATM   25  C6  UNL     1     -22.756  18.915  24.317  1.00  0.00     0.116 A 
HETATM   26  C7  UNL     1     -22.640  20.278  24.355  1.00  0.00     0.082 A 
HETATM   27  N8  UNL     1     -21.430  20.533  24.934  1.00  0.00    -0.304 N 
HETATM   28  C9  UNL     1     -20.811  19.376  25.249  1.00  0.00     0.346 A 
ATOM     29  H8  UNL     1     -21.049  21.463  25.105  1.00  0.00     0.171 HD
HETATM   30  O3  UNL     1     -19.684  19.224  25.793  1.00  0.00    -0.245 OA
HETATM   31  N9  UNL     1     -21.614  18.377  24.875  1.00  0.00    -0.210 N 
BRANCH  26  32
HETATM   32  C8  UNL     1     -23.589  21.281  23.908  1.00  0.00     0.145 C 
HETATM   33  N7  UNL     1     -23.357  22.179  23.034  1.00  0.00    -0.278 N 
ATOM     34  H7  UNL     1     -24.147  22.798  22.848  1.00  0.00     0.193 HD
BRANCH  33  35
HETATM   35  O2  UNL     1     -22.267  22.455  22.319  1.00  0.00    -0.290 OA
ATOM     36  H2  UNL     1     -21.398  22.737  22.579  1.00  0.00     0.244 HD
ENDBRANCH  33  35
ENDBRANCH  26  32
BRANCH  31  37
HETATM   37  N10 UNL     1     -21.357  17.006  25.020  1.00  0.00    -0.334 N 
ATOM     38 2H10 UNL     1     -21.732  16.394  25.745  1.00  0.00     0.177 HD
ATOM     39 1H10 UNL     1     -20.757  16.455  24.407  1.00  0.00     0.177 HD
ENDBRANCH  31  37
ENDBRANCH   1  25
TORSDOF 9
ENDMDL
MODEL 5
REMARK VINA RESULT: -5.602506174      2.381      3.742
REMARK  9 active torsions:
REMARK  status: ('A' for Active; 'I' for Inactive)
REMARK    1  A    between atoms: N3_4  and  C2_6 
REMARK    2  A    between atoms: C3_8  and  N4_9 
REMARK    3  A    between atoms: C4_13  and  N5_14 
REMARK    4  A    between atoms: N5_14  and  C5_16 
REMARK    5  A    between atoms: C5_16  and  N6_17 
REMARK    6  A    between atoms: C5_16  and  C6_21 
REMARK    7  A    between atoms: C7_22  and  C8_23 
REMARK    8  A    between atoms: N7_24  and  O2_26 
REMARK    9  A    between atoms: N9_32  and  N10_33 
ROOT
HETATM    1  C5  UNL     1     -23.775  14.480  21.552  1.00  0.00     0.338 C 
ENDROOT
BRANCH   1   2
HETATM    2  N5  UNL     1     -24.112  14.888  22.941  1.00  0.00    -0.344 N 
ATOM      3  H5  UNL     1     -24.770  14.334  23.490  1.00  0.00     0.163 HD
BRANCH   2   4
HETATM    4  C4  UNL     1     -23.514  16.063  23.511  1.00  0.00     0.139 C 
HETATM    5  C3  UNL     1     -22.801  15.931  24.808  1.00  0.00     0.389 C 
HETATM    6  O1  UNL     1     -22.755  17.145  25.488  1.00  0.00    -0.319 OA
HETATM    7  C2  UNL     1     -22.080  18.093  24.685  1.00  0.00     0.320 C 
HETATM    8  C10 UNL     1     -22.979  18.328  23.527  1.00  0.00     0.272 C 
HETATM    9  N11 UNL     1     -23.588  17.206  22.918  1.00  0.00    -0.309 N 
HETATM   10  O4  UNL     1     -23.186  19.516  23.104  1.00  0.00    -0.268 OA
ATOM     11  H11 UNL     1     -24.078  17.298  22.028  1.00  0.00     0.170 HD
BRANCH   5  12
HETATM   12  N4  UNL     1     -21.417  15.502  24.623  1.00  0.00    -0.046 N 
ATOM     13  H43 UNL     1     -20.789  16.266  24.374  1.00  0.00     0.277 HD
ATOM     14  H42 UNL     1     -20.957  15.238  25.494  1.00  0.00     0.277 HD
ATOM     15  H41 UNL     1     -21.433  14.751  23.932  1.00  0.00     0.277 HD
ENDBRANCH   5  12
BRANCH   7  16
HETATM   16  N3  UNL     1     -21.843  19.273  25.466  1.00  0.00    -0.333 N 
HETATM   17  C1  UNL     1     -20.711  19.896  25.495  1.00  0.00     0.199 C 
HETATM   18  N1  UNL     1     -19.662  19.367  24.703  1.00  0.00    -0.067 NA
HETATM   19  N2  UNL     1     -20.592  21.053  26.304  1.00  0.00    -0.067 NA
ATOM     20  H3  UNL     1     -22.609  19.640  26.030  1.00  0.00     0.164 HD
ENDBRANCH   7  16
ENDBRANCH   2   4
ENDBRANCH   1   2
BRANCH   1  21
HETATM   21  N6  UNL     1     -24.905  13.737  21.094  1.00  0.00    -0.052 N 
ATOM     22  H63 UNL     1     -24.923  13.599  20.083  1.00  0.00     0.277 HD
ATOM     23  H62 UNL     1     -24.878  12.750  21.348  1.00  0.00     0.277 HD
ATOM     24  H61 UNL     1     -25.718  14.233  21.456  1.00  0.00     0.277 HD
ENDBRANCH   1  21
BRANCH   1  25
HETATM   25  C6  UNL     1     -22.487  13.735  21.569  1.00  0.00     0.116 A 
HETATM   26  C7  UNL     1     -22.053  12.718  22.376  1.00  0.00     0.082 A 
HETATM   27  N8  UNL     1     -20.784  12.432  21.964  1.00  0.00    -0.304 N 
HETATM   28  C9  UNL     1     -20.434  13.235  20.938  1.00  0.00     0.346 A 
ATOM     29  H8  UNL     1     -20.186  11.713  22.372  1.00  0.00     0.171 HD
HETATM   30  O3  UNL     1     -19.343  13.256  20.308  1.00  0.00    -0.245 OA
HETATM   31  N9  UNL     1     -21.470  14.039  20.687  1.00  0.00    -0.210 N 
BRANCH  26  32
HETATM   32  C8  UNL     1     -22.767  12.040  23.442  1.00  0.00     0.145 C 
HETATM   33  N7  UNL     1     -22.419  12.022  24.669  1.00  0.00    -0.278 N 
ATOM     34  H7  UNL     1     -23.047  11.492  25.275  1.00  0.00     0.193 HD
BRANCH  33  35
HETATM   35  O2  UNL     1     -21.383  12.571  25.301  1.00  0.00    -0.290 OA
ATOM     36  H2  UNL     1     -20.735  12.199  25.887  1.00  0.00     0.244 HD
ENDBRANCH  33  35
ENDBRANCH  26  32
BRANCH  31  37
HETATM   37  N10 UNL     1     -21.532  15.029  19.696  1.00  0.00    -0.334 N 
ATOM     38 2H10 UNL     1     -22.314  15.204  19.064  1.00  0.00     0.177 HD
ATOM     39 1H10 UNL     1     -20.792  15.699  19.490  1.00  0.00     0.177 HD
ENDBRANCH  31  37
ENDBRANCH   1  25
TORSDOF 9
ENDMDL
