MODEL 1
REMARK VINA RESULT: -5.192557123      0.000      0.000
REMARK  11 active torsions:
REMARK  status: ('A' for Active; 'I' for Inactive)
REMARK    1  A    between atoms: N1_1  and  N2_4 
REMARK    2  A    between atoms: N2_4  and  C1_6 
REMARK    3  A    between atoms: C1_6  and  O1_7 
REMARK    4  A    between atoms: C1_6  and  C2_9 
REMARK    5  A    between atoms: C3_10  and  C4_11 
REMARK    6  A    between atoms: C5_16  and  C6_17 
REMARK    7  A    between atoms: N5_23  and  O6_24 
REMARK    8  A    between atoms: C8_26  and  O7_27 
REMARK    9  A    between atoms: C9_29  and  C10_30 
REMARK   10  A    between atoms: C10_30  and  O8_31 
REMARK   11  A    between atoms: C10_30  and  O9_33 
ROOT
HETATM    1  C2  UNL     1     -22.649  12.608  19.920  1.00  0.00     0.077 C 
HETATM    2  C3  UNL     1     -23.267  13.644  19.381  1.00  0.00     0.124 C 
HETATM    3  N3  UNL     1     -23.370  14.682  20.456  1.00  0.00    -0.356 N 
ATOM      4  H3  UNL     1     -24.093  15.391  20.578  1.00  0.00     0.162 HD
HETATM    5  C5  UNL     1     -22.219  14.448  21.269  1.00  0.00     0.198 A 
HETATM    6  C7  UNL     1     -22.421  12.948  21.371  1.00  0.00     0.089 A 
HETATM    7  N4  UNL     1     -22.355  12.316  22.468  1.00  0.00    -0.272 N 
ATOM      8  H4  UNL     1     -22.466  11.302  22.461  1.00  0.00     0.189 HD
HETATM    9  N5  UNL     1     -22.132  12.969  23.699  1.00  0.00    -0.139 N 
HETATM   10  C8  UNL     1     -21.978  14.379  23.675  1.00  0.00     0.196 A 
HETATM   11  C9  UNL     1     -22.025  15.084  22.529  1.00  0.00     0.073 A 
ENDROOT
BRANCH   1  12
HETATM   12  C1  UNL     1     -22.245  11.323  19.410  1.00  0.00     0.169 C 
BRANCH  12  13
HETATM   13  N2  UNL     1     -22.381  10.728  18.174  1.00  0.00    -0.286 N 
ATOM     14  H2  UNL     1     -23.151  10.093  17.965  1.00  0.00     0.188 HD
BRANCH  13  15
HETATM   15  N1  UNL     1     -21.364  11.055  17.183  1.00  0.00    -0.343 N 
ATOM     16  H12 UNL     1     -20.761  11.870  17.301  1.00  0.00     0.176 HD
ATOM     17  H11 UNL     1     -21.296  10.430  16.380  1.00  0.00     0.176 HD
ENDBRANCH  13  15
ENDBRANCH  12  13
BRANCH  12  18
HETATM   18  O1  UNL     1     -21.623  10.553  20.286  1.00  0.00    -0.344 OA
ATOM     19  H1  UNL     1     -21.874  10.738  21.184  1.00  0.00     0.219 HD
ENDBRANCH  12  18
ENDBRANCH   1  12
BRANCH   2  20
HETATM   20  C4  UNL     1     -23.789  13.908  18.072  1.00  0.00     0.227 C 
HETATM   21  O2  UNL     1     -23.006  13.691  17.065  1.00  0.00    -0.643 OA
HETATM   22  O3  UNL     1     -25.001  14.359  17.702  1.00  0.00    -0.643 OA
ENDBRANCH   2  20
BRANCH   5  23
HETATM   23  C6  UNL     1     -21.027  14.694  20.355  1.00  0.00     0.214 C 
HETATM   24  O4  UNL     1     -20.983  15.616  19.524  1.00  0.00    -0.646 OA
HETATM   25  O5  UNL     1     -19.972  13.828  20.490  1.00  0.00    -0.646 OA
ENDBRANCH   5  23
BRANCH  11  26
HETATM   26  C10 UNL     1     -21.867  16.553  22.640  1.00  0.00     0.292 C 
BRANCH  26  27
HETATM   27  O8  UNL     1     -20.545  16.925  22.857  1.00  0.00    -0.367 OA
ATOM     28  H8  UNL     1     -20.452  17.860  22.997  1.00  0.00     0.213 HD
ENDBRANCH  26  27
BRANCH  26  29
HETATM   29  O9  UNL     1     -22.330  17.215  21.511  1.00  0.00    -0.367 OA
ATOM     30  H9  UNL     1     -22.564  18.117  21.697  1.00  0.00     0.213 HD
ENDBRANCH  26  29
ENDBRANCH  11  26
BRANCH   9  31
HETATM   31  O6  UNL     1     -22.057  12.333  24.880  1.00  0.00    -0.266 OA
ATOM     32  H6  UNL     1     -22.075  12.775  25.721  1.00  0.00     0.247 HD
ENDBRANCH   9  31
BRANCH  10  33
HETATM   33  O7  UNL     1     -21.771  15.055  24.881  1.00  0.00    -0.343 OA
ATOM     34  H7  UNL     1     -22.435  14.998  25.558  1.00  0.00     0.219 HD
ENDBRANCH  10  33
TORSDOF 11
ENDMDL
MODEL 2
REMARK VINA RESULT: -5.124300945      2.752      4.358
REMARK  11 active torsions:
REMARK  status: ('A' for Active; 'I' for Inactive)
REMARK    1  A    between atoms: N1_1  and  N2_4 
REMARK    2  A    between atoms: N2_4  and  C1_6 
REMARK    3  A    between atoms: C1_6  and  O1_7 
REMARK    4  A    between atoms: C1_6  and  C2_9 
REMARK    5  A    between atoms: C3_10  and  C4_11 
REMARK    6  A    between atoms: C5_16  and  C6_17 
REMARK    7  A    between atoms: N5_23  and  O6_24 
REMARK    8  A    between atoms: C8_26  and  O7_27 
REMARK    9  A    between atoms: C9_29  and  C10_30 
REMARK   10  A    between atoms: C10_30  and  O8_31 
REMARK   11  A    between atoms: C10_30  and  O9_33 
ROOT
HETATM    1  C2  UNL     1     -22.319  14.629  20.215  1.00  0.00     0.077 C 
HETATM    2  C3  UNL     1     -23.111  14.168  19.264  1.00  0.00     0.124 C 
HETATM    3  N3  UNL     1     -24.005  15.303  18.870  1.00  0.00    -0.356 N 
ATOM      4  H3  UNL     1     -24.961  15.258  18.517  1.00  0.00     0.162 HD
HETATM    5  C5  UNL     1     -23.207  16.465  19.106  1.00  0.00     0.198 A 
HETATM    6  C7  UNL     1     -22.754  16.045  20.492  1.00  0.00     0.089 A 
HETATM    7  N4  UNL     1     -22.783  16.823  21.492  1.00  0.00    -0.272 N 
ATOM      8  H4  UNL     1     -22.430  16.488  22.389  1.00  0.00     0.189 HD
HETATM    9  N5  UNL     1     -23.287  18.138  21.406  1.00  0.00    -0.139 N 
HETATM   10  C8  UNL     1     -23.767  18.576  20.145  1.00  0.00     0.196 A 
HETATM   11  C9  UNL     1     -23.738  17.786  19.056  1.00  0.00     0.073 A 
ENDROOT
BRANCH   1  12
HETATM   12  C1  UNL     1     -21.251  14.041  20.982  1.00  0.00     0.169 C 
BRANCH  12  13
HETATM   13  N2  UNL     1     -20.842  12.736  21.161  1.00  0.00    -0.286 N 
ATOM     14  H2  UNL     1     -21.213  12.155  21.912  1.00  0.00     0.188 HD
BRANCH  13  15
HETATM   15  N1  UNL     1     -19.851  12.234  20.220  1.00  0.00    -0.343 N 
ATOM     16  H12 UNL     1     -19.589  12.776  19.396  1.00  0.00     0.176 HD
ATOM     17  H11 UNL     1     -19.444  11.323  20.433  1.00  0.00     0.176 HD
ENDBRANCH  13  15
ENDBRANCH  12  13
BRANCH  12  18
HETATM   18  O1  UNL     1     -20.511  14.908  21.651  1.00  0.00    -0.344 OA
ATOM     19  H1  UNL     1     -20.647  14.864  22.590  1.00  0.00     0.219 HD
ENDBRANCH  12  18
ENDBRANCH   1  12
BRANCH   2  20
HETATM   20  C4  UNL     1     -23.233  12.896  18.613  1.00  0.00     0.227 C 
HETATM   21  O2  UNL     1     -24.350  12.640  18.013  1.00  0.00    -0.643 OA
HETATM   22  O3  UNL     1     -22.348  11.888  18.519  1.00  0.00    -0.643 OA
ENDBRANCH   2  20
BRANCH   5  23
HETATM   23  C6  UNL     1     -22.016  16.328  18.168  1.00  0.00     0.214 C 
HETATM   24  O4  UNL     1     -22.129  16.120  16.949  1.00  0.00    -0.646 OA
HETATM   25  O5  UNL     1     -20.777  16.448  18.742  1.00  0.00    -0.646 OA
ENDBRANCH   5  23
BRANCH  11  26
HETATM   26  C10 UNL     1     -24.284  18.355  17.802  1.00  0.00     0.292 C 
BRANCH  26  27
HETATM   27  O8  UNL     1     -23.322  19.045  17.074  1.00  0.00    -0.367 OA
ATOM     28  H8  UNL     1     -23.169  19.918  17.415  1.00  0.00     0.213 HD
ENDBRANCH  26  27
BRANCH  26  29
HETATM   29  O9  UNL     1     -24.839  17.380  16.984  1.00  0.00    -0.367 OA
ATOM     30  H9  UNL     1     -25.601  17.699  16.514  1.00  0.00     0.213 HD
ENDBRANCH  26  29
ENDBRANCH  11  26
BRANCH   9  31
HETATM   31  O6  UNL     1     -23.335  18.990  22.445  1.00  0.00    -0.266 OA
ATOM     32  H6  UNL     1     -22.702  19.684  22.589  1.00  0.00     0.247 HD
ENDBRANCH   9  31
BRANCH  10  33
HETATM   33  O7  UNL     1     -24.287  19.869  20.033  1.00  0.00    -0.343 OA
ATOM     34  H7  UNL     1     -24.435  20.230  19.167  1.00  0.00     0.219 HD
ENDBRANCH  10  33
TORSDOF 11
ENDMDL
MODEL 3
REMARK VINA RESULT: -5.091428448      2.119      2.926
REMARK  11 active torsions:
REMARK  status: ('A' for Active; 'I' for Inactive)
REMARK    1  A    between atoms: N1_1  and  N2_4 
REMARK    2  A    between atoms: N2_4  and  C1_6 
REMARK    3  A    between atoms: C1_6  and  O1_7 
REMARK    4  A    between atoms: C1_6  and  C2_9 
REMARK    5  A    between atoms: C3_10  and  C4_11 
REMARK    6  A    between atoms: C5_16  and  C6_17 
REMARK    7  A    between atoms: N5_23  and  O6_24 
REMARK    8  A    between atoms: C8_26  and  O7_27 
REMARK    9  A    between atoms: C9_29  and  C10_30 
REMARK   10  A    between atoms: C10_30  and  O8_31 
REMARK   11  A    between atoms: C10_30  and  O9_33 
ROOT
HETATM    1  C2  UNL     1     -23.388  14.639  18.727  1.00  0.00     0.077 C 
HETATM    2  C3  UNL     1     -24.262  15.376  19.389  1.00  0.00     0.124 C 
HETATM    3  N3  UNL     1     -23.841  15.345  20.825  1.00  0.00    -0.356 N 
ATOM      4  H3  UNL     1     -24.431  15.414  21.655  1.00  0.00     0.162 HD
HETATM    5  C5  UNL     1     -22.421  15.198  20.763  1.00  0.00     0.198 A 
HETATM    6  C7  UNL     1     -22.442  14.067  19.751  1.00  0.00     0.089 A 
HETATM    7  N4  UNL     1     -21.759  13.007  19.887  1.00  0.00    -0.272 N 
ATOM      8  H4  UNL     1     -21.793  12.301  19.152  1.00  0.00     0.189 HD
HETATM    9  N5  UNL     1     -20.955  12.773  21.023  1.00  0.00    -0.139 N 
HETATM   10  C8  UNL     1     -20.928  13.775  22.026  1.00  0.00     0.196 A 
HETATM   11  C9  UNL     1     -21.625  14.921  21.911  1.00  0.00     0.073 A 
ENDROOT
BRANCH   1  12
HETATM   12  C1  UNL     1     -23.239  14.293  17.336  1.00  0.00     0.169 C 
BRANCH  12  13
HETATM   13  N2  UNL     1     -23.200  15.054  16.187  1.00  0.00    -0.286 N 
ATOM     14  H2  UNL     1     -23.569  14.708  15.301  1.00  0.00     0.188 HD
BRANCH  13  15
HETATM   15  N1  UNL     1     -22.603  16.377  16.306  1.00  0.00    -0.343 N 
ATOM     16  H12 UNL     1     -23.033  17.095  16.889  1.00  0.00     0.176 HD
ATOM     17  H11 UNL     1     -21.745  16.536  15.778  1.00  0.00     0.176 HD
ENDBRANCH  13  15
ENDBRANCH  12  13
BRANCH  12  18
HETATM   18  O1  UNL     1     -23.115  12.999  17.101  1.00  0.00    -0.344 OA
ATOM     19  H1  UNL     1     -22.238  12.755  16.827  1.00  0.00     0.219 HD
ENDBRANCH  12  18
ENDBRANCH   1  12
BRANCH   2  20
HETATM   20  C4  UNL     1     -25.420  16.125  18.992  1.00  0.00     0.227 C 
HETATM   21  O2  UNL     1     -25.313  16.871  17.941  1.00  0.00    -0.643 OA
HETATM   22  O3  UNL     1     -26.641  16.184  19.552  1.00  0.00    -0.643 OA
ENDBRANCH   2  20
BRANCH   5  23
HETATM   23  C6  UNL     1     -21.921  16.447  20.050  1.00  0.00     0.214 C 
HETATM   24  O4  UNL     1     -22.351  17.587  20.291  1.00  0.00    -0.646 OA
HETATM   25  O5  UNL     1     -20.948  16.255  19.103  1.00  0.00    -0.646 OA
ENDBRANCH   5  23
BRANCH  11  26
HETATM   26  C10 UNL     1     -21.525  15.881  23.035  1.00  0.00     0.292 C 
BRANCH  26  27
HETATM   27  O8  UNL     1     -20.516  16.817  22.840  1.00  0.00    -0.367 OA
ATOM     28  H8  UNL     1     -20.027  16.659  22.041  1.00  0.00     0.213 HD
ENDBRANCH  26  27
BRANCH  26  29
HETATM   29  O9  UNL     1     -22.718  16.559  23.251  1.00  0.00    -0.367 OA
ATOM     30  H9  UNL     1     -22.583  17.383  23.704  1.00  0.00     0.213 HD
ENDBRANCH  26  29
ENDBRANCH  11  26
BRANCH   9  31
HETATM   31  O6  UNL     1     -20.220  11.662  21.202  1.00  0.00    -0.266 OA
ATOM     32  H6  UNL     1     -19.407  11.640  21.693  1.00  0.00     0.247 HD
ENDBRANCH   9  31
BRANCH  10  33
HETATM   33  O7  UNL     1     -20.152  13.564  23.170  1.00  0.00    -0.343 OA
ATOM     34  H7  UNL     1     -19.220  13.743  23.130  1.00  0.00     0.219 HD
ENDBRANCH  10  33
TORSDOF 11
ENDMDL
MODEL 4
REMARK VINA RESULT: -5.059225482      2.363      5.714
REMARK  11 active torsions:
REMARK  status: ('A' for Active; 'I' for Inactive)
REMARK    1  A    between atoms: N1_1  and  N2_4 
REMARK    2  A    between atoms: N2_4  and  C1_6 
REMARK    3  A    between atoms: C1_6  and  O1_7 
REMARK    4  A    between atoms: C1_6  and  C2_9 
REMARK    5  A    between atoms: C3_10  and  C4_11 
REMARK    6  A    between atoms: C5_16  and  C6_17 
REMARK    7  A    between atoms: N5_23  and  O6_24 
REMARK    8  A    between atoms: C8_26  and  O7_27 
REMARK    9  A    between atoms: C9_29  and  C10_30 
REMARK   10  A    between atoms: C10_30  and  O8_31 
REMARK   11  A    between atoms: C10_30  and  O9_33 
ROOT
HETATM    1  C2  UNL     1     -22.081  15.524  24.521  1.00  0.00     0.077 C 
HETATM    2  C3  UNL     1     -21.472  16.625  24.117  1.00  0.00     0.124 C 
HETATM    3  N3  UNL     1     -20.879  16.315  22.778  1.00  0.00    -0.356 N 
ATOM      4  H3  UNL     1     -20.038  16.709  22.357  1.00  0.00     0.162 HD
HETATM    5  C5  UNL     1     -21.767  15.340  22.228  1.00  0.00     0.198 A 
HETATM    6  C7  UNL     1     -21.814  14.474  23.473  1.00  0.00     0.089 A 
HETATM    7  N4  UNL     1     -21.670  13.215  23.443  1.00  0.00    -0.272 N 
ATOM      8  H4  UNL     1     -21.747  12.688  24.313  1.00  0.00     0.189 HD
HETATM    9  N5  UNL     1     -21.407  12.518  22.245  1.00  0.00    -0.139 N 
HETATM   10  C8  UNL     1     -21.307  13.278  21.051  1.00  0.00     0.196 A 
HETATM   11  C9  UNL     1     -21.471  14.614  21.039  1.00  0.00     0.073 A 
ENDROOT
BRANCH   1  12
HETATM   12  C1  UNL     1     -22.837  15.188  25.700  1.00  0.00     0.169 C 
BRANCH  12  13
HETATM   13  N2  UNL     1     -23.971  15.732  26.266  1.00  0.00    -0.286 N 
ATOM     14  H2  UNL     1     -24.199  15.594  27.250  1.00  0.00     0.188 HD
BRANCH  13  15
HETATM   15  N1  UNL     1     -24.823  16.516  25.382  1.00  0.00    -0.343 N 
ATOM     16  H12 UNL     1     -25.596  17.068  25.753  1.00  0.00     0.176 HD
ATOM     17  H11 UNL     1     -24.601  16.477  24.387  1.00  0.00     0.176 HD
ENDBRANCH  13  15
ENDBRANCH  12  13
BRANCH  12  18
HETATM   18  O1  UNL     1     -22.364  14.161  26.384  1.00  0.00    -0.344 OA
ATOM     19  H1  UNL     1     -21.823  14.424  27.119  1.00  0.00     0.219 HD
ENDBRANCH  12  18
ENDBRANCH   1  12
BRANCH   2  20
HETATM   20  C4  UNL     1     -21.314  17.930  24.691  1.00  0.00     0.227 C 
HETATM   21  O2  UNL     1     -22.315  18.413  25.354  1.00  0.00    -0.643 OA
HETATM   22  O3  UNL     1     -20.262  18.766  24.653  1.00  0.00    -0.643 OA
ENDBRANCH   2  20
BRANCH   5  23
HETATM   23  C6  UNL     1     -23.110  16.047  22.105  1.00  0.00     0.214 C 
HETATM   24  O4  UNL     1     -23.227  17.230  21.744  1.00  0.00    -0.646 OA
HETATM   25  O5  UNL     1     -24.217  15.301  22.418  1.00  0.00    -0.646 OA
ENDBRANCH   5  23
BRANCH  11  26
HETATM   26  C10 UNL     1     -21.327  15.293  19.731  1.00  0.00     0.292 C 
BRANCH  26  27
HETATM   27  O8  UNL     1     -22.460  15.154  18.937  1.00  0.00    -0.367 OA
ATOM     28  H8  UNL     1     -22.287  14.657  18.146  1.00  0.00     0.213 HD
ENDBRANCH  26  27
BRANCH  26  29
HETATM   29  O9  UNL     1     -21.054  16.647  19.872  1.00  0.00    -0.367 OA
ATOM     30  H9  UNL     1     -21.622  17.062  20.510  1.00  0.00     0.213 HD
ENDBRANCH  26  29
ENDBRANCH  11  26
BRANCH   9  31
HETATM   31  O6  UNL     1     -21.247  11.185  22.175  1.00  0.00    -0.266 OA
ATOM     32  H6  UNL     1     -21.930  10.559  22.385  1.00  0.00     0.247 HD
ENDBRANCH   9  31
BRANCH  10  33
HETATM   33  O7  UNL     1     -21.032  12.615  19.851  1.00  0.00    -0.343 OA
ATOM     34  H7  UNL     1     -20.135  12.583  19.541  1.00  0.00     0.219 HD
ENDBRANCH  10  33
TORSDOF 11
ENDMDL
MODEL 5
REMARK VINA RESULT: -5.030784320      2.493      3.700
REMARK  11 active torsions:
REMARK  status: ('A' for Active; 'I' for Inactive)
REMARK    1  A    between atoms: N1_1  and  N2_4 
REMARK    2  A    between atoms: N2_4  and  C1_6 
REMARK    3  A    between atoms: C1_6  and  O1_7 
REMARK    4  A    between atoms: C1_6  and  C2_9 
REMARK    5  A    between atoms: C3_10  and  C4_11 
REMARK    6  A    between atoms: C5_16  and  C6_17 
REMARK    7  A    between atoms: N5_23  and  O6_24 
REMARK    8  A    between atoms: C8_26  and  O7_27 
REMARK    9  A    between atoms: C9_29  and  C10_30 
REMARK   10  A    between atoms: C10_30  and  O8_31 
REMARK   11  A    between atoms: C10_30  and  O9_33 
ROOT
HETATM    1  C2  UNL     1     -22.132  14.151  20.354  1.00  0.00     0.077 C 
HETATM    2  C3  UNL     1     -23.080  13.885  19.474  1.00  0.00     0.124 C 
HETATM    3  N3  UNL     1     -23.948  15.104  19.405  1.00  0.00    -0.356 N 
ATOM      4  H3  UNL     1     -24.945  15.154  19.197  1.00  0.00     0.162 HD
HETATM    5  C5  UNL     1     -23.052  16.178  19.695  1.00  0.00     0.198 A 
HETATM    6  C7  UNL     1     -22.432  15.518  20.913  1.00  0.00     0.089 A 
HETATM    7  N4  UNL     1     -22.268  16.122  22.016  1.00  0.00    -0.272 N 
ATOM      8  H4  UNL     1     -21.812  15.630  22.785  1.00  0.00     0.189 HD
HETATM    9  N5  UNL     1     -22.695  17.452  22.215  1.00  0.00    -0.139 N 
HETATM   10  C8  UNL     1     -23.323  18.110  21.126  1.00  0.00     0.196 A 
HETATM   11  C9  UNL     1     -23.500  17.509  19.934  1.00  0.00     0.073 A 
ENDROOT
BRANCH   1  12
HETATM   12  C1  UNL     1     -21.004  13.404  20.849  1.00  0.00     0.169 C 
BRANCH  12  13
HETATM   13  N2  UNL     1     -20.669  12.068  20.777  1.00  0.00    -0.286 N 
ATOM     14  H2  UNL     1     -21.002  11.393  21.465  1.00  0.00     0.188 HD
BRANCH  13  15
HETATM   15  N1  UNL     1     -19.814  11.674  19.666  1.00  0.00    -0.343 N 
ATOM     16  H12 UNL     1     -20.181  11.622  18.715  1.00  0.00     0.176 HD
ATOM     17  H11 UNL     1     -18.844  11.458  19.895  1.00  0.00     0.176 HD
ENDBRANCH  13  15
ENDBRANCH  12  13
BRANCH  12  18
HETATM   18  O1  UNL     1     -20.108  14.124  21.500  1.00  0.00    -0.344 OA
ATOM     19  H1  UNL     1     -20.494  14.850  21.978  1.00  0.00     0.219 HD
ENDBRANCH  12  18
ENDBRANCH   1  12
BRANCH   2  20
HETATM   20  C4  UNL     1     -23.375  12.743  18.658  1.00  0.00     0.227 C 
HETATM   21  O2  UNL     1     -24.607  12.564  18.310  1.00  0.00    -0.643 OA
HETATM   22  O3  UNL     1     -22.553  11.794  18.176  1.00  0.00    -0.643 OA
ENDBRANCH   2  20
BRANCH   5  23
HETATM   23  C6  UNL     1     -22.020  16.152  18.578  1.00  0.00     0.214 C 
HETATM   24  O4  UNL     1     -22.309  15.953  17.387  1.00  0.00    -0.646 OA
HETATM   25  O5  UNL     1     -20.717  16.362  18.952  1.00  0.00    -0.646 OA
ENDBRANCH   5  23
BRANCH  11  26
HETATM   26  C10 UNL     1     -24.183  18.298  18.883  1.00  0.00     0.292 C 
BRANCH  26  27
HETATM   27  O8  UNL     1     -25.458  18.698  19.269  1.00  0.00    -0.367 OA
ATOM     28  H8  UNL     1     -26.131  18.102  18.961  1.00  0.00     0.213 HD
ENDBRANCH  26  27
BRANCH  26  29
HETATM   29  O9  UNL     1     -23.459  19.427  18.524  1.00  0.00    -0.367 OA
ATOM     30  H9  UNL     1     -23.252  19.973  19.274  1.00  0.00     0.213 HD
ENDBRANCH  26  29
ENDBRANCH  11  26
BRANCH   9  31
HETATM   31  O6  UNL     1     -22.539  18.123  23.370  1.00  0.00    -0.266 OA
ATOM     32  H6  UNL     1     -21.976  18.881  23.468  1.00  0.00     0.247 HD
ENDBRANCH   9  31
BRANCH  10  33
HETATM   33  O7  UNL     1     -23.770  19.423  21.299  1.00  0.00    -0.343 OA
ATOM     34  H7  UNL     1     -23.500  19.900  22.075  1.00  0.00     0.219 HD
ENDBRANCH  10  33
TORSDOF 11
ENDMDL
