MODEL 1
REMARK VINA RESULT: -5.238756197      0.000      0.000
REMARK  9 active torsions:
REMARK  status: ('A' for Active; 'I' for Inactive)
REMARK    1  A    between atoms: N1_1  and  N2_4 
REMARK       I    between atoms: N2_4  and  C1_6 
REMARK    2  A    between atoms: C1_6  and  C2_8 
REMARK    3  A    between atoms: C2_8  and  O2_9 
REMARK    4  A    between atoms: C2_8  and  C11_31 
REMARK    5  A    between atoms: O2_9  and  N3_10 
REMARK    6  A    between atoms: C11_31  and  O3_32 
REMARK    7  A    between atoms: C11_31  and  C12_34 
REMARK    8  A    between atoms: C12_34  and  O4_35 
REMARK    9  A    between atoms: C12_34  and  O5_37 
ROOT
HETATM    1  N3  UNL     1     -22.911  13.248  23.299  1.00  0.00    -0.252 N 
ATOM      2  H3  UNL     1     -23.638  12.687  22.854  1.00  0.00     0.196 HD
HETATM    3  C3  UNL     1     -22.299  12.708  24.288  1.00  0.00     0.123 C 
HETATM    4  C4  UNL     1     -22.731  11.314  24.665  1.00  0.00     0.309 C 
HETATM    5  N4  UNL     1     -23.619  11.338  25.812  1.00  0.00    -0.067 N 
ATOM      6  H41 UNL     1     -24.600  11.297  25.533  1.00  0.00     0.277 HD
ATOM      7  H42 UNL     1     -23.628  12.251  26.266  1.00  0.00     0.277 HD
HETATM    8  C5  UNL     1     -23.278  10.274  26.740  1.00  0.00     0.260 C 
HETATM    9  C6  UNL     1     -23.468  10.706  28.161  1.00  0.00     0.259 C 
HETATM   10  N5  UNL     1     -23.395  12.145  28.319  1.00  0.00    -0.072 N 
ATOM     11  H51 UNL     1     -24.319  12.565  28.422  1.00  0.00     0.277 HD
ATOM     12  H52 UNL     1     -23.115  12.610  27.457  1.00  0.00     0.277 HD
HETATM   13  C7  UNL     1     -22.522  12.481  29.425  1.00  0.00     0.259 C 
HETATM   14  C8  UNL     1     -21.081  12.535  28.972  1.00  0.00     0.259 C 
HETATM   15  N6  UNL     1     -21.045  13.239  27.691  1.00  0.00    -0.072 N 
ATOM     16  H61 UNL     1     -21.191  14.241  27.814  1.00  0.00     0.277 HD
ATOM     17  H62 UNL     1     -21.868  13.027  27.126  1.00  0.00     0.277 HD
HETATM   18  C9  UNL     1     -19.825  12.969  26.966  1.00  0.00     0.251 C 
HETATM   19  C10 UNL     1     -20.063  12.716  25.500  1.00  0.00     0.148 C 
HETATM   20  N7  UNL     1     -21.267  13.355  25.015  1.00  0.00    -0.375 N 
ATOM     21  H7  UNL     1     -21.383  14.350  25.212  1.00  0.00     0.160 HD
ENDROOT
BRANCH   1  22
HETATM   22  O2  UNL     1     -22.700  14.474  22.784  1.00  0.00    -0.261 OA
BRANCH  22  23
HETATM   23  C2  UNL     1     -22.213  14.667  21.431  1.00  0.00     0.279 C 
BRANCH  23  24
HETATM   24  C1  UNL     1     -20.911  14.009  21.262  1.00  0.00     0.270 C 
HETATM   25  N2  UNL     1     -20.667  13.135  20.173  1.00  0.00    -0.274 N 
ATOM     26  H2  UNL     1     -21.425  12.976  19.509  1.00  0.00     0.189 HD
HETATM   27  O1  UNL     1     -19.967  14.187  22.061  1.00  0.00    -0.269 OA
BRANCH  25  28
HETATM   28  N1  UNL     1     -19.470  12.485  19.955  1.00  0.00    -0.343 N 
ATOM     29  H12 UNL     1     -19.520  11.494  19.717  1.00  0.00     0.176 HD
ATOM     30  H11 UNL     1     -18.556  12.934  20.018  1.00  0.00     0.176 HD
ENDBRANCH  25  28
ENDBRANCH  23  24
BRANCH  23  31
HETATM   31  C11 UNL     1     -22.179  16.177  21.299  1.00  0.00     0.213 C 
BRANCH  31  32
HETATM   32  O3  UNL     1     -21.048  16.448  20.470  1.00  0.00    -0.387 OA
ATOM     33  H3  UNL     1     -20.723  17.290  20.767  1.00  0.00     0.210 HD
ENDBRANCH  31  32
BRANCH  31  34
HETATM   34  C12 UNL     1     -21.953  16.922  22.565  1.00  0.00     0.285 C 
BRANCH  34  35
HETATM   35  O4  UNL     1     -22.602  18.154  22.627  1.00  0.00    -0.369 OA
ATOM     36  H4  UNL     1     -22.306  18.716  23.334  1.00  0.00     0.212 HD
ENDBRANCH  34  35
BRANCH  34  37
HETATM   37  O5  UNL     1     -20.659  16.972  23.025  1.00  0.00    -0.369 OA
ATOM     38  H5  UNL     1     -20.513  17.459  23.827  1.00  0.00     0.212 HD
ENDBRANCH  34  37
ENDBRANCH  31  34
ENDBRANCH  23  31
ENDBRANCH  22  23
ENDBRANCH   1  22
TORSDOF 9
ENDMDL
MODEL 2
REMARK VINA RESULT: -5.178815970      4.340      8.328
REMARK  9 active torsions:
REMARK  status: ('A' for Active; 'I' for Inactive)
REMARK    1  A    between atoms: N1_1  and  N2_4 
REMARK       I    between atoms: N2_4  and  C1_6 
REMARK    2  A    between atoms: C1_6  and  C2_8 
REMARK    3  A    between atoms: C2_8  and  O2_9 
REMARK    4  A    between atoms: C2_8  and  C11_31 
REMARK    5  A    between atoms: O2_9  and  N3_10 
REMARK    6  A    between atoms: C11_31  and  O3_32 
REMARK    7  A    between atoms: C11_31  and  C12_34 
REMARK    8  A    between atoms: C12_34  and  O4_35 
REMARK    9  A    between atoms: C12_34  and  O5_37 
ROOT
HETATM    1  N3  UNL     1     -21.643  16.018  19.063  1.00  0.00    -0.252 N 
ATOM      2  H3  UNL     1     -21.317  16.984  19.058  1.00  0.00     0.196 HD
HETATM    3  C3  UNL     1     -22.572  15.725  18.230  1.00  0.00     0.123 C 
HETATM    4  C4  UNL     1     -23.064  16.846  17.350  1.00  0.00     0.309 C 
HETATM    5  N4  UNL     1     -24.310  17.394  17.855  1.00  0.00    -0.067 N 
ATOM      6  H41 UNL     1     -24.156  18.234  18.413  1.00  0.00     0.277 HD
ATOM      7  H42 UNL     1     -24.719  16.803  18.578  1.00  0.00     0.277 HD
HETATM    8  C5  UNL     1     -25.237  17.634  16.763  1.00  0.00     0.260 C 
HETATM    9  C6  UNL     1     -26.649  17.350  17.171  1.00  0.00     0.259 C 
HETATM   10  N5  UNL     1     -26.730  16.420  18.281  1.00  0.00    -0.072 N 
ATOM     11  H51 UNL     1     -26.927  16.894  19.163  1.00  0.00     0.277 HD
ATOM     12  H52 UNL     1     -25.819  16.031  18.520  1.00  0.00     0.277 HD
HETATM   13  C7  UNL     1     -27.703  15.385  17.993  1.00  0.00     0.259 C 
HETATM   14  C8  UNL     1     -27.074  14.265  17.199  1.00  0.00     0.259 C 
HETATM   15  N6  UNL     1     -25.767  13.981  17.791  1.00  0.00    -0.072 N 
ATOM     16  H61 UNL     1     -25.860  13.489  18.679  1.00  0.00     0.277 HD
ATOM     17  H62 UNL     1     -25.318  14.834  18.129  1.00  0.00     0.277 HD
HETATM   18  C9  UNL     1     -24.910  13.261  16.877  1.00  0.00     0.251 C 
HETATM   19  C10 UNL     1     -23.497  13.787  16.867  1.00  0.00     0.148 C 
HETATM   20  N7  UNL     1     -23.136  14.428  18.113  1.00  0.00    -0.375 N 
ATOM     21  H7  UNL     1     -23.300  13.907  18.975  1.00  0.00     0.160 HD
ENDROOT
BRANCH   1  22
HETATM   22  O2  UNL     1     -21.050  15.189  19.943  1.00  0.00    -0.261 OA
BRANCH  22  23
HETATM   23  C2  UNL     1     -21.674  14.833  21.204  1.00  0.00     0.279 C 
BRANCH  23  24
HETATM   24  C1  UNL     1     -21.653  15.979  22.121  1.00  0.00     0.270 C 
HETATM   25  N2  UNL     1     -21.475  15.799  23.516  1.00  0.00    -0.274 N 
ATOM     26  H2  UNL     1     -21.360  14.848  23.864  1.00  0.00     0.189 HD
HETATM   27  O1  UNL     1     -21.791  17.155  21.720  1.00  0.00    -0.269 OA
BRANCH  25  28
HETATM   28  N1  UNL     1     -21.446  16.830  24.432  1.00  0.00    -0.343 N 
ATOM     29  H12 UNL     1     -21.004  17.700  24.133  1.00  0.00     0.176 HD
ATOM     30  H11 UNL     1     -21.835  16.770  25.373  1.00  0.00     0.176 HD
ENDBRANCH  25  28
ENDBRANCH  23  24
BRANCH  23  31
HETATM   31  C11 UNL     1     -20.850  13.644  21.661  1.00  0.00     0.213 C 
BRANCH  31  32
HETATM   32  O3  UNL     1     -19.605  14.200  22.082  1.00  0.00    -0.387 OA
ATOM     33  H3  UNL     1     -19.814  14.710  22.856  1.00  0.00     0.210 HD
ENDBRANCH  31  32
BRANCH  31  34
HETATM   34  C12 UNL     1     -20.525  12.651  20.604  1.00  0.00     0.285 C 
BRANCH  34  35
HETATM   35  O4  UNL     1     -19.287  12.849  19.995  1.00  0.00    -0.369 OA
ATOM     36  H4  UNL     1     -19.027  13.761  19.929  1.00  0.00     0.212 HD
ENDBRANCH  34  35
BRANCH  34  37
HETATM   37  O5  UNL     1     -21.524  12.357  19.709  1.00  0.00    -0.369 OA
ATOM     38  H5  UNL     1     -21.855  11.467  19.719  1.00  0.00     0.212 HD
ENDBRANCH  34  37
ENDBRANCH  31  34
ENDBRANCH  23  31
ENDBRANCH  22  23
ENDBRANCH   1  22
TORSDOF 9
ENDMDL
MODEL 3
REMARK VINA RESULT: -5.165153976      4.087      8.497
REMARK  9 active torsions:
REMARK  status: ('A' for Active; 'I' for Inactive)
REMARK    1  A    between atoms: N1_1  and  N2_4 
REMARK       I    between atoms: N2_4  and  C1_6 
REMARK    2  A    between atoms: C1_6  and  C2_8 
REMARK    3  A    between atoms: C2_8  and  O2_9 
REMARK    4  A    between atoms: C2_8  and  C11_31 
REMARK    5  A    between atoms: O2_9  and  N3_10 
REMARK    6  A    between atoms: C11_31  and  O3_32 
REMARK    7  A    between atoms: C11_31  and  C12_34 
REMARK    8  A    between atoms: C12_34  and  O4_35 
REMARK    9  A    between atoms: C12_34  and  O5_37 
ROOT
HETATM    1  N3  UNL     1     -21.740  14.819  19.694  1.00  0.00    -0.252 N 
ATOM      2  H3  UNL     1     -21.163  15.434  20.268  1.00  0.00     0.196 HD
HETATM    3  C3  UNL     1     -22.346  15.364  18.704  1.00  0.00     0.123 C 
HETATM    4  C4  UNL     1     -22.128  16.844  18.515  1.00  0.00     0.309 C 
HETATM    5  N4  UNL     1     -23.248  17.605  19.038  1.00  0.00    -0.067 N 
ATOM      6  H41 UNL     1     -23.065  17.951  19.979  1.00  0.00     0.277 HD
ATOM      7  H42 UNL     1     -24.048  17.007  19.248  1.00  0.00     0.277 HD
HETATM    8  C5  UNL     1     -23.600  18.680  18.126  1.00  0.00     0.260 C 
HETATM    9  C6  UNL     1     -25.079  18.904  18.089  1.00  0.00     0.259 C 
HETATM   10  N5  UNL     1     -25.830  17.728  18.483  1.00  0.00    -0.072 N 
ATOM     11  H51 UNL     1     -26.183  17.801  19.437  1.00  0.00     0.277 HD
ATOM     12  H52 UNL     1     -25.228  16.915  18.609  1.00  0.00     0.277 HD
HETATM   13  C7  UNL     1     -26.892  17.473  17.531  1.00  0.00     0.259 C 
HETATM   14  C8  UNL     1     -26.382  16.663  16.363  1.00  0.00     0.259 C 
HETATM   15  N6  UNL     1     -25.526  15.604  16.898  1.00  0.00    -0.072 N 
ATOM     16  H61 UNL     1     -26.077  14.872  17.346  1.00  0.00     0.277 HD
ATOM     17  H62 UNL     1     -24.999  15.926  17.710  1.00  0.00     0.277 HD
HETATM   18  C9  UNL     1     -24.652  15.059  15.884  1.00  0.00     0.251 C 
HETATM   19  C10 UNL     1     -23.245  14.849  16.381  1.00  0.00     0.148 C 
HETATM   20  N7  UNL     1     -23.187  14.649  17.813  1.00  0.00    -0.375 N 
ATOM     21  H7  UNL     1     -23.799  13.937  18.213  1.00  0.00     0.160 HD
ENDROOT
BRANCH   1  22
HETATM   22  O2  UNL     1     -21.782  13.523  20.058  1.00  0.00    -0.261 OA
BRANCH  22  23
HETATM   23  C2  UNL     1     -21.772  13.115  21.451  1.00  0.00     0.279 C 
BRANCH  23  24
HETATM   24  C1  UNL     1     -21.277  14.209  22.296  1.00  0.00     0.270 C 
HETATM   25  N2  UNL     1     -21.991  14.626  23.447  1.00  0.00    -0.274 N 
ATOM     26  H2  UNL     1     -22.861  14.143  23.671  1.00  0.00     0.189 HD
HETATM   27  O1  UNL     1     -20.215  14.817  22.044  1.00  0.00    -0.269 OA
BRANCH  25  28
HETATM   28  N1  UNL     1     -21.584  15.645  24.283  1.00  0.00    -0.343 N 
ATOM     29  H12 UNL     1     -20.902  16.304  23.908  1.00  0.00     0.176 HD
ATOM     30  H11 UNL     1     -21.922  15.772  25.237  1.00  0.00     0.176 HD
ENDBRANCH  25  28
ENDBRANCH  23  24
BRANCH  23  31
HETATM   31  C11 UNL     1     -20.889  11.882  21.432  1.00  0.00     0.213 C 
BRANCH  31  32
HETATM   32  O3  UNL     1     -20.051  12.013  22.581  1.00  0.00    -0.387 OA
ATOM     33  H3  UNL     1     -19.837  11.122  22.830  1.00  0.00     0.210 HD
ENDBRANCH  31  32
BRANCH  31  34
HETATM   34  C12 UNL     1     -19.977  11.770  20.264  1.00  0.00     0.285 C 
BRANCH  34  35
HETATM   35  O4  UNL     1     -19.137  12.868  20.087  1.00  0.00    -0.369 OA
ATOM     36  H4  UNL     1     -18.351  12.681  19.587  1.00  0.00     0.212 HD
ENDBRANCH  34  35
BRANCH  34  37
HETATM   37  O5  UNL     1     -20.534  11.324  19.091  1.00  0.00    -0.369 OA
ATOM     38  H5  UNL     1     -20.140  11.640  18.287  1.00  0.00     0.212 HD
ENDBRANCH  34  37
ENDBRANCH  31  34
ENDBRANCH  23  31
ENDBRANCH  22  23
ENDBRANCH   1  22
TORSDOF 9
ENDMDL
MODEL 4
REMARK VINA RESULT: -5.155432864      4.718      7.655
REMARK  9 active torsions:
REMARK  status: ('A' for Active; 'I' for Inactive)
REMARK    1  A    between atoms: N1_1  and  N2_4 
REMARK       I    between atoms: N2_4  and  C1_6 
REMARK    2  A    between atoms: C1_6  and  C2_8 
REMARK    3  A    between atoms: C2_8  and  O2_9 
REMARK    4  A    between atoms: C2_8  and  C11_31 
REMARK    5  A    between atoms: O2_9  and  N3_10 
REMARK    6  A    between atoms: C11_31  and  O3_32 
REMARK    7  A    between atoms: C11_31  and  C12_34 
REMARK    8  A    between atoms: C12_34  and  O4_35 
REMARK    9  A    between atoms: C12_34  and  O5_37 
ROOT
HETATM    1  N3  UNL     1     -21.891  17.894  25.060  1.00  0.00    -0.252 N 
ATOM      2  H3  UNL     1     -20.990  17.603  25.439  1.00  0.00     0.196 HD
HETATM    3  C3  UNL     1     -22.420  17.119  24.186  1.00  0.00     0.123 C 
HETATM    4  C4  UNL     1     -21.643  15.876  23.832  1.00  0.00     0.309 C 
HETATM    5  N4  UNL     1     -20.925  16.050  22.583  1.00  0.00    -0.067 N 
ATOM      6  H41 UNL     1     -19.952  16.313  22.739  1.00  0.00     0.277 HD
ATOM      7  H42 UNL     1     -21.230  16.885  22.083  1.00  0.00     0.277 HD
HETATM    8  C5  UNL     1     -21.038  14.856  21.763  1.00  0.00     0.260 C 
HETATM    9  C6  UNL     1     -21.131  15.199  20.309  1.00  0.00     0.259 C 
HETATM   10  N5  UNL     1     -21.636  16.539  20.084  1.00  0.00    -0.072 N 
ATOM     11  H51 UNL     1     -20.891  17.193  19.844  1.00  0.00     0.277 HD
ATOM     12  H52 UNL     1     -21.948  16.980  20.949  1.00  0.00     0.277 HD
HETATM   13  C7  UNL     1     -22.681  16.517  19.081  1.00  0.00     0.259 C 
HETATM   14  C8  UNL     1     -24.018  16.200  19.707  1.00  0.00     0.259 C 
HETATM   15  N6  UNL     1     -24.123  16.975  20.944  1.00  0.00    -0.072 N 
ATOM     16  H61 UNL     1     -24.289  17.963  20.750  1.00  0.00     0.277 HD
ATOM     17  H62 UNL     1     -23.220  17.054  21.411  1.00  0.00     0.277 HD
HETATM   18  C9  UNL     1     -25.130  16.435  21.830  1.00  0.00     0.251 C 
HETATM   19  C10 UNL     1     -24.676  16.389  23.266  1.00  0.00     0.148 C 
HETATM   20  N7  UNL     1     -23.666  17.382  23.560  1.00  0.00    -0.375 N 
ATOM     21  H7  UNL     1     -23.866  18.348  23.298  1.00  0.00     0.160 HD
ENDROOT
BRANCH   1  22
HETATM   22  O2  UNL     1     -22.395  19.051  25.531  1.00  0.00    -0.261 OA
BRANCH  22  23
HETATM   23  C2  UNL     1     -22.013  20.337  24.978  1.00  0.00     0.279 C 
BRANCH  23  24
HETATM   24  C1  UNL     1     -21.372  21.162  26.009  1.00  0.00     0.270 C 
HETATM   25  N2  UNL     1     -21.996  22.336  26.501  1.00  0.00    -0.274 N 
ATOM     26  H2  UNL     1     -22.905  22.591  26.117  1.00  0.00     0.189 HD
HETATM   27  O1  UNL     1     -20.258  20.871  26.497  1.00  0.00    -0.269 OA
BRANCH  25  28
HETATM   28  N1  UNL     1     -21.450  23.155  27.467  1.00  0.00    -0.343 N 
ATOM     29  H12 UNL     1     -21.148  22.709  28.334  1.00  0.00     0.176 HD
ATOM     30  H11 UNL     1     -21.334  24.163  27.363  1.00  0.00     0.176 HD
ENDBRANCH  25  28
ENDBRANCH  23  24
BRANCH  23  31
HETATM   31  C11 UNL     1     -23.330  20.883  24.461  1.00  0.00     0.213 C 
BRANCH  31  32
HETATM   32  O3  UNL     1     -24.291  19.870  24.759  1.00  0.00    -0.387 OA
ATOM     33  H3  UNL     1     -24.235  19.259  24.034  1.00  0.00     0.210 HD
ENDBRANCH  31  32
BRANCH  31  34
HETATM   34  C12 UNL     1     -23.397  21.099  22.992  1.00  0.00     0.285 C 
BRANCH  34  35
HETATM   35  O4  UNL     1     -23.416  19.923  22.242  1.00  0.00    -0.369 OA
ATOM     36  H4  UNL     1     -24.113  19.883  21.598  1.00  0.00     0.212 HD
ENDBRANCH  34  35
BRANCH  34  37
HETATM   37  O5  UNL     1     -22.559  22.055  22.473  1.00  0.00    -0.369 OA
ATOM     38  H5  UNL     1     -21.860  22.359  23.039  1.00  0.00     0.212 HD
ENDBRANCH  34  37
ENDBRANCH  31  34
ENDBRANCH  23  31
ENDBRANCH  22  23
ENDBRANCH   1  22
TORSDOF 9
ENDMDL
MODEL 5
REMARK VINA RESULT: -5.091228670      3.789      6.350
REMARK  9 active torsions:
REMARK  status: ('A' for Active; 'I' for Inactive)
REMARK    1  A    between atoms: N1_1  and  N2_4 
REMARK       I    between atoms: N2_4  and  C1_6 
REMARK    2  A    between atoms: C1_6  and  C2_8 
REMARK    3  A    between atoms: C2_8  and  O2_9 
REMARK    4  A    between atoms: C2_8  and  C11_31 
REMARK    5  A    between atoms: O2_9  and  N3_10 
REMARK    6  A    between atoms: C11_31  and  O3_32 
REMARK    7  A    between atoms: C11_31  and  C12_34 
REMARK    8  A    between atoms: C12_34  and  O4_35 
REMARK    9  A    between atoms: C12_34  and  O5_37 
ROOT
HETATM    1  N3  UNL     1     -24.252  15.745  20.267  1.00  0.00    -0.252 N 
ATOM      2  H3  UNL     1     -24.446  16.263  21.123  1.00  0.00     0.196 HD
HETATM    3  C3  UNL     1     -23.922  14.514  20.406  1.00  0.00     0.123 C 
HETATM    4  C4  UNL     1     -23.863  13.990  21.819  1.00  0.00     0.309 C 
HETATM    5  N4  UNL     1     -22.495  13.943  22.299  1.00  0.00    -0.067 N 
ATOM      6  H41 UNL     1     -22.260  14.763  22.858  1.00  0.00     0.277 HD
ATOM      7  H42 UNL     1     -21.823  14.077  21.543  1.00  0.00     0.277 HD
HETATM    8  C5  UNL     1     -22.254  12.707  23.024  1.00  0.00     0.260 C 
HETATM    9  C6  UNL     1     -20.867  12.195  22.788  1.00  0.00     0.259 C 
HETATM   10  N5  UNL     1     -20.303  12.673  21.541  1.00  0.00    -0.072 N 
ATOM     11  H51 UNL     1     -19.635  13.430  21.689  1.00  0.00     0.277 HD
ATOM     12  H52 UNL     1     -20.987  13.184  20.983  1.00  0.00     0.277 HD
HETATM   13  C7  UNL     1     -19.718  11.571  20.804  1.00  0.00     0.259 C 
HETATM   14  C8  UNL     1     -20.764  10.867  19.973  1.00  0.00     0.259 C 
HETATM   15  N6  UNL     1     -21.592  11.893  19.339  1.00  0.00    -0.072 N 
ATOM     16  H61 UNL     1     -21.094  12.354  18.577  1.00  0.00     0.277 HD
ATOM     17  H62 UNL     1     -21.722  12.698  19.953  1.00  0.00     0.277 HD
HETATM   18  C9  UNL     1     -22.859  11.360  18.894  1.00  0.00     0.251 C 
HETATM   19  C10 UNL     1     -24.017  12.271  19.210  1.00  0.00     0.148 C 
HETATM   20  N7  UNL     1     -23.619  13.657  19.316  1.00  0.00    -0.375 N 
ATOM     21  H7  UNL     1     -23.078  14.051  18.545  1.00  0.00     0.160 HD
ENDROOT
BRANCH   1  22
HETATM   22  O2  UNL     1     -24.371  16.428  19.112  1.00  0.00    -0.261 OA
BRANCH  22  23
HETATM   23  C2  UNL     1     -23.517  17.557  18.796  1.00  0.00     0.279 C 
BRANCH  23  24
HETATM   24  C1  UNL     1     -24.158  18.412  17.789  1.00  0.00     0.270 C 
HETATM   25  N2  UNL     1     -24.299  19.807  17.992  1.00  0.00    -0.274 N 
ATOM     26  H2  UNL     1     -23.941  20.201  18.862  1.00  0.00     0.189 HD
HETATM   27  O1  UNL     1     -24.604  17.953  16.714  1.00  0.00    -0.269 OA
BRANCH  25  28
HETATM   28  N1  UNL     1     -24.889  20.665  17.089  1.00  0.00    -0.343 N 
ATOM     29  H12 UNL     1     -24.672  20.518  16.103  1.00  0.00     0.176 HD
ATOM     30  H11 UNL     1     -25.519  21.424  17.349  1.00  0.00     0.176 HD
ENDBRANCH  25  28
ENDBRANCH  23  24
BRANCH  23  31
HETATM   31  C11 UNL     1     -22.235  16.890  18.336  1.00  0.00     0.213 C 
BRANCH  31  32
HETATM   32  O3  UNL     1     -22.660  15.705  17.661  1.00  0.00    -0.387 OA
ATOM     33  H3  UNL     1     -23.473  15.459  18.088  1.00  0.00     0.210 HD
ENDBRANCH  31  32
BRANCH  31  34
HETATM   34  C12 UNL     1     -21.323  16.445  19.421  1.00  0.00     0.285 C 
BRANCH  34  35
HETATM   35  O4  UNL     1     -21.138  15.064  19.481  1.00  0.00    -0.369 OA
ATOM     36  H4  UNL     1     -20.270  14.776  19.223  1.00  0.00     0.212 HD
ENDBRANCH  34  35
BRANCH  34  37
HETATM   37  O5  UNL     1     -21.512  17.017  20.655  1.00  0.00    -0.369 OA
ATOM     38  H5  UNL     1     -20.790  16.950  21.269  1.00  0.00     0.212 HD
ENDBRANCH  34  37
ENDBRANCH  31  34
ENDBRANCH  23  31
ENDBRANCH  22  23
ENDBRANCH   1  22
TORSDOF 9
ENDMDL
